MODEL 1
REMARK VINA RESULT:      -7.6      0.000      0.000
REMARK  5 active torsions:
REMARK  status: ('A' for Active; 'I' for Inactive)
REMARK    1  A    between atoms: C_3  and  N_4 
REMARK       I    between atoms: N_4  and  C_5 
REMARK       I    between atoms: C_5  and  N_6 
REMARK    2  A    between atoms: N_6  and  C_7 
REMARK    3  A    between atoms: C_7  and  C_8 
REMARK    4  A    between atoms: C_8  and  O_9 
REMARK    5  A    between atoms: O_9  and  C_10 
ROOT
HETATM    1  N   UNL     1     -43.711  56.441 -56.752  1.00  0.00    -0.307 N 
HETATM    2  C   UNL     1     -43.108  55.528 -55.913  1.00  0.00     0.320 C 
HETATM    3  N   UNL     1     -43.792  55.438 -54.723  1.00  0.00    -0.340 N 
HETATM    4  O   UNL     1     -42.128  54.846 -56.176  1.00  0.00    -0.247 OA
HETATM    5  H   UNL     1     -44.719  56.362 -56.727  1.00  0.00     0.170 HD
HETATM    6  H   UNL     1     -44.352  56.237 -54.465  1.00  0.00     0.164 HD
ENDROOT
BRANCH   3   7
HETATM    7  C   UNL     1     -43.395  54.513 -53.674  1.00  0.00     0.156 C 
BRANCH   7   8
HETATM    8  C   UNL     1     -42.338  55.069 -52.698  1.00  0.00     0.142 C 
HETATM    9  C   UNL     1     -42.348  56.596 -52.633  1.00  0.00     0.042 C 
BRANCH   8  10
HETATM   10  O   UNL     1     -41.031  54.707 -53.176  1.00  0.00    -0.345 OA
BRANCH  10  11
HETATM   11  C   UNL     1     -40.559  53.448 -52.938  1.00  0.00     0.070 A 
HETATM   12  C   UNL     1     -40.325  52.458 -53.891  1.00  0.00     0.060 A 
HETATM   13  C   UNL     1     -39.843  51.210 -53.489  1.00  0.00     0.036 A 
HETATM   14 CL   UNL     1     -39.568  49.986 -54.669  1.00  0.00    -0.084 Cl
HETATM   15  C   UNL     1     -39.578  50.942 -52.147  1.00  0.00     0.024 A 
HETATM   16  C   UNL     1     -39.792  51.936 -51.195  1.00  0.00     0.004 A 
HETATM   17  C   UNL     1     -40.278  53.182 -51.592  1.00  0.00     0.037 A 
ENDBRANCH  10  11
ENDBRANCH   8  10
ENDBRANCH   7   8
ENDBRANCH   3   7
BRANCH   1  18
HETATM   18  C   UNL     1     -43.155  56.857 -57.984  1.00  0.00     0.059 A 
HETATM   19  C   UNL     1     -43.334  56.188 -59.204  1.00  0.00    -0.032 A 
HETATM   20  C   UNL     1     -44.097  54.902 -59.352  1.00  0.00     0.050 C 
HETATM   21  C   UNL     1     -42.745  56.736 -60.354  1.00  0.00     0.028 A 
HETATM   22  C   UNL     1     -41.964  57.876 -60.243  1.00  0.00     0.117 A 
HETATM   23  N   UNL     1     -41.721  58.504 -59.077  1.00  0.00    -0.271 NA
HETATM   24  C   UNL     1     -42.319  57.979 -57.983  1.00  0.00     0.146 A 
ENDBRANCH   1  18
TORSDOF 5
ENDMDL
MODEL 2
REMARK VINA RESULT:      -7.4      3.545      7.023
REMARK  5 active torsions:
REMARK  status: ('A' for Active; 'I' for Inactive)
REMARK    1  A    between atoms: C_3  and  N_4 
REMARK       I    between atoms: N_4  and  C_5 
REMARK       I    between atoms: C_5  and  N_6 
REMARK    2  A    between atoms: N_6  and  C_7 
REMARK    3  A    between atoms: C_7  and  C_8 
REMARK    4  A    between atoms: C_8  and  O_9 
REMARK    5  A    between atoms: O_9  and  C_10 
ROOT
HETATM    1  N   UNL     1     -40.009  52.911 -54.460  1.00  0.00    -0.307 N 
HETATM    2  C   UNL     1     -41.219  53.518 -54.722  1.00  0.00     0.320 C 
HETATM    3  N   UNL     1     -41.039  54.653 -55.477  1.00  0.00    -0.340 N 
HETATM    4  O   UNL     1     -42.319  53.107 -54.382  1.00  0.00    -0.247 OA
HETATM    5  H   UNL     1     -39.406  52.915 -55.272  1.00  0.00     0.170 HD
HETATM    6  H   UNL     1     -40.128  55.088 -55.425  1.00  0.00     0.164 HD
ENDROOT
BRANCH   3   7
HETATM    7  C   UNL     1     -42.157  55.462 -55.934  1.00  0.00     0.156 C 
BRANCH   7   8
HETATM    8  C   UNL     1     -42.553  56.604 -54.977  1.00  0.00     0.142 C 
HETATM    9  C   UNL     1     -43.334  57.713 -55.680  1.00  0.00     0.042 C 
BRANCH   8  10
HETATM   10  O   UNL     1     -41.355  57.226 -54.480  1.00  0.00    -0.345 OA
BRANCH  10  11
HETATM   11  C   UNL     1     -41.197  57.390 -53.133  1.00  0.00     0.070 A 
HETATM   12  C   UNL     1     -40.540  58.443 -52.500  1.00  0.00     0.060 A 
HETATM   13  C   UNL     1     -40.456  58.469 -51.105  1.00  0.00     0.036 A 
HETATM   14 CL   UNL     1     -39.631  59.765 -50.328  1.00  0.00    -0.084 Cl
HETATM   15  C   UNL     1     -41.033  57.460 -50.334  1.00  0.00     0.024 A 
HETATM   16  C   UNL     1     -41.707  56.417 -50.964  1.00  0.00     0.004 A 
HETATM   17  C   UNL     1     -41.788  56.387 -52.357  1.00  0.00     0.037 A 
ENDBRANCH  10  11
ENDBRANCH   8  10
ENDBRANCH   7   8
ENDBRANCH   3   7
BRANCH   1  18
HETATM   18  C   UNL     1     -39.860  51.810 -53.584  1.00  0.00     0.059 A 
HETATM   19  C   UNL     1     -39.790  51.910 -52.187  1.00  0.00    -0.032 A 
HETATM   20  C   UNL     1     -39.807  53.210 -51.435  1.00  0.00     0.050 C 
HETATM   21  C   UNL     1     -39.674  50.725 -51.443  1.00  0.00     0.028 A 
HETATM   22  C   UNL     1     -39.571  49.511 -52.104  1.00  0.00     0.117 A 
HETATM   23  N   UNL     1     -39.571  49.390 -53.445  1.00  0.00    -0.271 NA
HETATM   24  C   UNL     1     -39.712  50.538 -54.147  1.00  0.00     0.146 A 
ENDBRANCH   1  18
TORSDOF 5
ENDMDL
MODEL 3
REMARK VINA RESULT:      -7.3      3.671      7.008
REMARK  5 active torsions:
REMARK  status: ('A' for Active; 'I' for Inactive)
REMARK    1  A    between atoms: C_3  and  N_4 
REMARK       I    between atoms: N_4  and  C_5 
REMARK       I    between atoms: C_5  and  N_6 
REMARK    2  A    between atoms: N_6  and  C_7 
REMARK    3  A    between atoms: C_7  and  C_8 
REMARK    4  A    between atoms: C_8  and  O_9 
REMARK    5  A    between atoms: O_9  and  C_10 
ROOT
HETATM    1  N   UNL     1     -40.203  53.675 -51.934  1.00  0.00    -0.307 N 
HETATM    2  C   UNL     1     -41.390  54.217 -51.487  1.00  0.00     0.320 C 
HETATM    3  N   UNL     1     -41.249  55.565 -51.252  1.00  0.00    -0.340 N 
HETATM    4  O   UNL     1     -42.447  53.620 -51.350  1.00  0.00    -0.247 OA
HETATM    5  H   UNL     1     -39.743  54.282 -52.600  1.00  0.00     0.170 HD
HETATM    6  H   UNL     1     -40.312  55.894 -51.069  1.00  0.00     0.164 HD
ENDROOT
BRANCH   3   7
HETATM    7  C   UNL     1     -42.361  56.393 -50.817  1.00  0.00     0.156 C 
BRANCH   7   8
HETATM    8  C   UNL     1     -43.046  57.189 -51.946  1.00  0.00     0.142 C 
HETATM    9  C   UNL     1     -44.062  58.200 -51.416  1.00  0.00     0.042 C 
BRANCH   8  10
HETATM   10  O   UNL     1     -43.795  56.276 -52.767  1.00  0.00    -0.345 OA
BRANCH  10  11
HETATM   11  C   UNL     1     -43.437  56.106 -54.073  1.00  0.00     0.070 A 
HETATM   12  C   UNL     1     -43.070  57.110 -54.967  1.00  0.00     0.060 A 
HETATM   13  C   UNL     1     -42.733  56.778 -56.283  1.00  0.00     0.036 A 
HETATM   14 CL   UNL     1     -42.293  58.024 -57.387  1.00  0.00    -0.084 Cl
HETATM   15  C   UNL     1     -42.747  55.452 -56.712  1.00  0.00     0.024 A 
HETATM   16  C   UNL     1     -43.095  54.444 -55.815  1.00  0.00     0.004 A 
HETATM   17  C   UNL     1     -43.436  54.774 -54.503  1.00  0.00     0.037 A 
ENDBRANCH  10  11
ENDBRANCH   8  10
ENDBRANCH   7   8
ENDBRANCH   3   7
BRANCH   1  18
HETATM   18  C   UNL     1     -39.998  52.288 -52.117  1.00  0.00     0.059 A 
HETATM   19  C   UNL     1     -39.992  51.643 -53.363  1.00  0.00    -0.032 A 
HETATM   20  C   UNL     1     -40.262  52.336 -54.669  1.00  0.00     0.050 C 
HETATM   21  C   UNL     1     -39.744  50.262 -53.394  1.00  0.00     0.028 A 
HETATM   22  C   UNL     1     -39.573  49.572 -52.204  1.00  0.00     0.117 A 
HETATM   23  N   UNL     1     -39.637  50.153 -50.990  1.00  0.00    -0.271 NA
HETATM   24  C   UNL     1     -39.848  51.489 -50.979  1.00  0.00     0.146 A 
ENDBRANCH   1  18
TORSDOF 5
ENDMDL
MODEL 4
REMARK VINA RESULT:      -7.2      4.491      5.348
REMARK  5 active torsions:
REMARK  status: ('A' for Active; 'I' for Inactive)
REMARK    1  A    between atoms: C_3  and  N_4 
REMARK       I    between atoms: N_4  and  C_5 
REMARK       I    between atoms: C_5  and  N_6 
REMARK    2  A    between atoms: N_6  and  C_7 
REMARK    3  A    between atoms: C_7  and  C_8 
REMARK    4  A    between atoms: C_8  and  O_9 
REMARK    5  A    between atoms: O_9  and  C_10 
ROOT
HETATM    1  N   UNL     1     -41.964  58.036 -50.610  1.00  0.00    -0.307 N 
HETATM    2  C   UNL     1     -42.373  56.730 -50.777  1.00  0.00     0.320 C 
HETATM    3  N   UNL     1     -41.769  55.911 -49.851  1.00  0.00    -0.340 N 
HETATM    4  O   UNL     1     -43.188  56.329 -51.595  1.00  0.00    -0.247 OA
HETATM    5  H   UNL     1     -41.916  58.290 -49.632  1.00  0.00     0.170 HD
HETATM    6  H   UNL     1     -40.899  56.241 -49.459  1.00  0.00     0.164 HD
ENDROOT
BRANCH   3   7
HETATM    7  C   UNL     1     -42.058  54.488 -49.774  1.00  0.00     0.156 C 
BRANCH   7   8
HETATM    8  C   UNL     1     -40.827  53.600 -49.505  1.00  0.00     0.142 C 
HETATM    9  C   UNL     1     -40.123  53.956 -48.197  1.00  0.00     0.042 C 
BRANCH   8  10
HETATM   10  O   UNL     1     -39.858  53.826 -50.544  1.00  0.00    -0.345 OA
BRANCH  10  11
HETATM   11  C   UNL     1     -40.011  53.199 -51.747  1.00  0.00     0.070 A 
HETATM   12  C   UNL     1     -39.670  51.881 -52.042  1.00  0.00     0.060 A 
HETATM   13  C   UNL     1     -39.882  51.381 -53.330  1.00  0.00     0.036 A 
HETATM   14 CL   UNL     1     -39.446  49.755 -53.691  1.00  0.00    -0.084 Cl
HETATM   15  C   UNL     1     -40.445  52.179 -54.324  1.00  0.00     0.024 A 
HETATM   16  C   UNL     1     -40.806  53.492 -54.026  1.00  0.00     0.004 A 
HETATM   17  C   UNL     1     -40.590  53.995 -52.743  1.00  0.00     0.037 A 
ENDBRANCH  10  11
ENDBRANCH   8  10
ENDBRANCH   7   8
ENDBRANCH   3   7
BRANCH   1  18
HETATM   18  C   UNL     1     -42.298  59.080 -51.504  1.00  0.00     0.059 A 
HETATM   19  C   UNL     1     -41.640  59.328 -52.718  1.00  0.00    -0.032 A 
HETATM   20  C   UNL     1     -40.450  58.550 -53.202  1.00  0.00     0.050 C 
HETATM   21  C   UNL     1     -42.103  60.383 -53.520  1.00  0.00     0.028 A 
HETATM   22  C   UNL     1     -43.145  61.177 -53.068  1.00  0.00     0.117 A 
HETATM   23  N   UNL     1     -43.754  61.003 -51.879  1.00  0.00    -0.271 NA
HETATM   24  C   UNL     1     -43.315  59.964 -51.132  1.00  0.00     0.146 A 
ENDBRANCH   1  18
TORSDOF 5
ENDMDL
MODEL 5
REMARK VINA RESULT:      -7.1      1.598      2.311
REMARK  5 active torsions:
REMARK  status: ('A' for Active; 'I' for Inactive)
REMARK    1  A    between atoms: C_3  and  N_4 
REMARK       I    between atoms: N_4  and  C_5 
REMARK       I    between atoms: C_5  and  N_6 
REMARK    2  A    between atoms: N_6  and  C_7 
REMARK    3  A    between atoms: C_7  and  C_8 
REMARK    4  A    between atoms: C_8  and  O_9 
REMARK    5  A    between atoms: O_9  and  C_10 
ROOT
HETATM    1  N   UNL     1     -42.396  55.754 -56.755  1.00  0.00    -0.307 N 
HETATM    2  C   UNL     1     -43.044  55.765 -55.538  1.00  0.00     0.320 C 
HETATM    3  N   UNL     1     -42.399  54.948 -54.638  1.00  0.00    -0.340 N 
HETATM    4  O   UNL     1     -44.029  56.429 -55.253  1.00  0.00    -0.247 OA
HETATM    5  H   UNL     1     -41.391  55.781 -56.644  1.00  0.00     0.170 HD
HETATM    6  H   UNL     1     -41.829  54.211 -55.028  1.00  0.00     0.164 HD
ENDROOT
BRANCH   3   7
HETATM    7  C   UNL     1     -42.847  54.811 -53.262  1.00  0.00     0.156 C 
BRANCH   7   8
HETATM    8  C   UNL     1     -41.715  54.576 -52.242  1.00  0.00     0.142 C 
HETATM    9  C   UNL     1     -41.289  55.861 -51.534  1.00  0.00     0.042 C 
BRANCH   8  10
HETATM   10  O   UNL     1     -40.548  54.113 -52.945  1.00  0.00    -0.345 OA
BRANCH  10  11
HETATM   11  C   UNL     1     -40.259  52.778 -52.952  1.00  0.00     0.070 A 
HETATM   12  C   UNL     1     -39.947  51.995 -51.843  1.00  0.00     0.060 A 
HETATM   13  C   UNL     1     -39.667  50.636 -52.011  1.00  0.00     0.036 A 
HETATM   14 CL   UNL     1     -39.268  49.675 -50.639  1.00  0.00    -0.084 Cl
HETATM   15  C   UNL     1     -39.709  50.047 -53.274  1.00  0.00     0.024 A 
HETATM   16  C   UNL     1     -40.041  50.824 -54.382  1.00  0.00     0.004 A 
HETATM   17  C   UNL     1     -40.316  52.182 -54.217  1.00  0.00     0.037 A 
ENDBRANCH  10  11
ENDBRANCH   8  10
ENDBRANCH   7   8
ENDBRANCH   3   7
BRANCH   1  18
HETATM   18  C   UNL     1     -42.906  56.378 -57.918  1.00  0.00     0.059 A 
HETATM   19  C   UNL     1     -42.825  57.754 -58.181  1.00  0.00    -0.032 A 
HETATM   20  C   UNL     1     -42.235  58.758 -57.232  1.00  0.00     0.050 C 
HETATM   21  C   UNL     1     -43.349  58.228 -59.394  1.00  0.00     0.028 A 
HETATM   22  C   UNL     1     -43.976  57.345 -60.259  1.00  0.00     0.117 A 
HETATM   23  N   UNL     1     -44.125  56.031 -60.003  1.00  0.00    -0.271 NA
HETATM   24  C   UNL     1     -43.590  55.585 -58.844  1.00  0.00     0.146 A 
ENDBRANCH   1  18
TORSDOF 5
ENDMDL
MODEL 6
REMARK VINA RESULT:      -6.7      1.568      2.334
REMARK  5 active torsions:
REMARK  status: ('A' for Active; 'I' for Inactive)
REMARK    1  A    between atoms: C_3  and  N_4 
REMARK       I    between atoms: N_4  and  C_5 
REMARK       I    between atoms: C_5  and  N_6 
REMARK    2  A    between atoms: N_6  and  C_7 
REMARK    3  A    between atoms: C_7  and  C_8 
REMARK    4  A    between atoms: C_8  and  O_9 
REMARK    5  A    between atoms: O_9  and  C_10 
ROOT
HETATM    1  N   UNL     1     -43.783  56.342 -57.006  1.00  0.00    -0.307 N 
HETATM    2  C   UNL     1     -43.141  55.827 -55.900  1.00  0.00     0.320 C 
HETATM    3  N   UNL     1     -44.051  55.493 -54.924  1.00  0.00    -0.340 N 
HETATM    4  O   UNL     1     -41.939  55.640 -55.787  1.00  0.00    -0.247 OA
HETATM    5  H   UNL     1     -44.625  55.825 -57.224  1.00  0.00     0.170 HD
HETATM    6  H   UNL     1     -44.940  55.971 -54.956  1.00  0.00     0.164 HD
ENDROOT
BRANCH   3   7
HETATM    7  C   UNL     1     -43.646  54.885 -53.667  1.00  0.00     0.156 C 
BRANCH   7   8
HETATM    8  C   UNL     1     -43.419  55.887 -52.517  1.00  0.00     0.142 C 
HETATM    9  C   UNL     1     -44.004  57.266 -52.818  1.00  0.00     0.042 C 
BRANCH   8  10
HETATM   10  O   UNL     1     -42.005  56.090 -52.354  1.00  0.00    -0.345 OA
BRANCH  10  11
HETATM   11  C   UNL     1     -41.279  55.188 -51.630  1.00  0.00     0.070 A 
HETATM   12  C   UNL     1     -40.699  54.016 -52.112  1.00  0.00     0.060 A 
HETATM   13  C   UNL     1     -39.987  53.187 -51.241  1.00  0.00     0.036 A 
HETATM   14 CL   UNL     1     -39.284  51.733 -51.839  1.00  0.00    -0.084 Cl
HETATM   15  C   UNL     1     -39.837  53.521 -49.896  1.00  0.00     0.024 A 
HETATM   16  C   UNL     1     -40.400  54.702 -49.416  1.00  0.00     0.004 A 
HETATM   17  C   UNL     1     -41.115  55.529 -50.282  1.00  0.00     0.037 A 
ENDBRANCH  10  11
ENDBRANCH   8  10
ENDBRANCH   7   8
ENDBRANCH   3   7
BRANCH   1  18
HETATM   18  C   UNL     1     -43.103  56.909 -58.110  1.00  0.00     0.059 A 
HETATM   19  C   UNL     1     -42.671  58.242 -58.177  1.00  0.00    -0.032 A 
HETATM   20  C   UNL     1     -42.925  59.263 -57.104  1.00  0.00     0.050 C 
HETATM   21  C   UNL     1     -41.980  58.658 -59.325  1.00  0.00     0.028 A 
HETATM   22  C   UNL     1     -41.800  57.769 -60.373  1.00  0.00     0.117 A 
HETATM   23  N   UNL     1     -42.259  56.503 -60.364  1.00  0.00    -0.271 NA
HETATM   24  C   UNL     1     -42.898  56.109 -59.238  1.00  0.00     0.146 A 
ENDBRANCH   1  18
TORSDOF 5
ENDMDL
MODEL 7
REMARK VINA RESULT:      -6.6      4.220      6.344
REMARK  5 active torsions:
REMARK  status: ('A' for Active; 'I' for Inactive)
REMARK    1  A    between atoms: C_3  and  N_4 
REMARK       I    between atoms: N_4  and  C_5 
REMARK       I    between atoms: C_5  and  N_6 
REMARK    2  A    between atoms: N_6  and  C_7 
REMARK    3  A    between atoms: C_7  and  C_8 
REMARK    4  A    between atoms: C_8  and  O_9 
REMARK    5  A    between atoms: O_9  and  C_10 
ROOT
HETATM    1  N   UNL     1     -43.614  59.458 -50.687  1.00  0.00    -0.307 N 
HETATM    2  C   UNL     1     -43.920  58.291 -51.355  1.00  0.00     0.320 C 
HETATM    3  N   UNL     1     -42.805  57.494 -51.473  1.00  0.00    -0.340 N 
HETATM    4  O   UNL     1     -45.025  57.962 -51.760  1.00  0.00    -0.247 OA
HETATM    5  H   UNL     1     -43.001  59.288 -49.900  1.00  0.00     0.170 HD
HETATM    6  H   UNL     1     -41.911  57.962 -51.423  1.00  0.00     0.164 HD
ENDROOT
BRANCH   3   7
HETATM    7  C   UNL     1     -42.857  56.183 -52.098  1.00  0.00     0.156 C 
BRANCH   7   8
HETATM    8  C   UNL     1     -41.543  55.745 -52.775  1.00  0.00     0.142 C 
HETATM    9  C   UNL     1     -41.058  56.753 -53.817  1.00  0.00     0.042 C 
BRANCH   8  10
HETATM   10  O   UNL     1     -41.779  54.523 -53.496  1.00  0.00    -0.345 OA
BRANCH  10  11
HETATM   11  C   UNL     1     -41.026  53.421 -53.205  1.00  0.00     0.070 A 
HETATM   12  C   UNL     1     -40.751  52.358 -54.064  1.00  0.00     0.060 A 
HETATM   13  C   UNL     1     -39.964  51.293 -53.617  1.00  0.00     0.036 A 
HETATM   14 CL   UNL     1     -39.638  49.976 -54.677  1.00  0.00    -0.084 Cl
HETATM   15  C   UNL     1     -39.438  51.283 -52.326  1.00  0.00     0.024 A 
HETATM   16  C   UNL     1     -39.696  52.353 -51.473  1.00  0.00     0.004 A 
HETATM   17  C   UNL     1     -40.485  53.416 -51.915  1.00  0.00     0.037 A 
ENDBRANCH  10  11
ENDBRANCH   8  10
ENDBRANCH   7   8
ENDBRANCH   3   7
BRANCH   1  18
HETATM   18  C   UNL     1     -44.519  60.537 -50.543  1.00  0.00     0.059 A 
HETATM   19  C   UNL     1     -44.596  61.630 -51.418  1.00  0.00    -0.032 A 
HETATM   20  C   UNL     1     -43.685  61.830 -52.596  1.00  0.00     0.050 C 
HETATM   21  C   UNL     1     -45.566  62.613 -51.167  1.00  0.00     0.028 A 
HETATM   22  C   UNL     1     -46.370  62.506 -50.043  1.00  0.00     0.117 A 
HETATM   23  N   UNL     1     -46.276  61.502 -49.151  1.00  0.00    -0.271 NA
HETATM   24  C   UNL     1     -45.355  60.549 -49.423  1.00  0.00     0.146 A 
ENDBRANCH   1  18
TORSDOF 5
ENDMDL
MODEL 8
REMARK VINA RESULT:      -6.6      3.450      7.136
REMARK  5 active torsions:
REMARK  status: ('A' for Active; 'I' for Inactive)
REMARK    1  A    between atoms: C_3  and  N_4 
REMARK       I    between atoms: N_4  and  C_5 
REMARK       I    between atoms: C_5  and  N_6 
REMARK    2  A    between atoms: N_6  and  C_7 
REMARK    3  A    between atoms: C_7  and  C_8 
REMARK    4  A    between atoms: C_8  and  O_9 
REMARK    5  A    between atoms: O_9  and  C_10 
ROOT
HETATM    1  N   UNL     1     -40.175  53.367 -54.343  1.00  0.00    -0.307 N 
HETATM    2  C   UNL     1     -41.398  53.747 -54.855  1.00  0.00     0.320 C 
HETATM    3  N   UNL     1     -41.281  54.912 -55.577  1.00  0.00    -0.340 N 
HETATM    4  O   UNL     1     -42.449  53.134 -54.738  1.00  0.00    -0.247 OA
HETATM    5  H   UNL     1     -39.431  53.499 -55.016  1.00  0.00     0.170 HD
HETATM    6  H   UNL     1     -40.495  55.505 -55.349  1.00  0.00     0.164 HD
ENDROOT
BRANCH   3   7
HETATM    7  C   UNL     1     -42.413  55.510 -56.265  1.00  0.00     0.156 C 
BRANCH   7   8
HETATM    8  C   UNL     1     -42.929  56.816 -55.628  1.00  0.00     0.142 C 
HETATM    9  C   UNL     1     -42.566  58.052 -56.450  1.00  0.00     0.042 C 
BRANCH   8  10
HETATM   10  O   UNL     1     -42.288  56.994 -54.353  1.00  0.00    -0.345 OA
BRANCH  10  11
HETATM   11  C   UNL     1     -43.051  57.034 -53.222  1.00  0.00     0.070 A 
HETATM   12  C   UNL     1     -43.946  58.040 -52.863  1.00  0.00     0.060 A 
HETATM   13  C   UNL     1     -44.655  57.941 -51.662  1.00  0.00     0.036 A 
HETATM   14 CL   UNL     1     -45.748  59.195 -51.217  1.00  0.00    -0.084 Cl
HETATM   15  C   UNL     1     -44.491  56.841 -50.822  1.00  0.00     0.024 A 
HETATM   16  C   UNL     1     -43.613  55.824 -51.189  1.00  0.00     0.004 A 
HETATM   17  C   UNL     1     -42.900  55.923 -52.384  1.00  0.00     0.037 A 
ENDBRANCH  10  11
ENDBRANCH   8  10
ENDBRANCH   7   8
ENDBRANCH   3   7
BRANCH   1  18
HETATM   18  C   UNL     1     -40.006  52.294 -53.437  1.00  0.00     0.059 A 
HETATM   19  C   UNL     1     -40.004  52.426 -52.040  1.00  0.00    -0.032 A 
HETATM   20  C   UNL     1     -40.123  53.739 -51.320  1.00  0.00     0.050 C 
HETATM   21  C   UNL     1     -39.856  51.265 -51.265  1.00  0.00     0.028 A 
HETATM   22  C   UNL     1     -39.660  50.045 -51.893  1.00  0.00     0.117 A 
HETATM   23  N   UNL     1     -39.594  49.897 -53.230  1.00  0.00    -0.271 NA
HETATM   24  C   UNL     1     -39.766  51.021 -53.963  1.00  0.00     0.146 A 
ENDBRANCH   1  18
TORSDOF 5
ENDMDL
MODEL 9
REMARK VINA RESULT:      -6.6      4.855      6.614
REMARK  5 active torsions:
REMARK  status: ('A' for Active; 'I' for Inactive)
REMARK    1  A    between atoms: C_3  and  N_4 
REMARK       I    between atoms: N_4  and  C_5 
REMARK       I    between atoms: C_5  and  N_6 
REMARK    2  A    between atoms: N_6  and  C_7 
REMARK    3  A    between atoms: C_7  and  C_8 
REMARK    4  A    between atoms: C_8  and  O_9 
REMARK    5  A    between atoms: O_9  and  C_10 
ROOT
HETATM    1  N   UNL     1     -45.005  58.954 -50.683  1.00  0.00    -0.307 N 
HETATM    2  C   UNL     1     -43.810  58.649 -51.299  1.00  0.00     0.320 C 
HETATM    3  N   UNL     1     -43.348  57.423 -50.879  1.00  0.00    -0.340 N 
HETATM    4  O   UNL     1     -43.238  59.329 -52.138  1.00  0.00    -0.247 OA
HETATM    5  H   UNL     1     -45.615  58.149 -50.631  1.00  0.00     0.170 HD
HETATM    6  H   UNL     1     -43.680  57.101 -49.981  1.00  0.00     0.164 HD
ENDROOT
BRANCH   3   7
HETATM    7  C   UNL     1     -42.127  56.837 -51.407  1.00  0.00     0.156 C 
BRANCH   7   8
HETATM    8  C   UNL     1     -42.183  55.308 -51.600  1.00  0.00     0.142 C 
HETATM    9  C   UNL     1     -43.202  54.639 -50.678  1.00  0.00     0.042 C 
BRANCH   8  10
HETATM   10  O   UNL     1     -40.907  54.749 -51.242  1.00  0.00    -0.345 OA
BRANCH  10  11
HETATM   11  C   UNL     1     -40.509  53.575 -51.813  1.00  0.00     0.070 A 
HETATM   12  C   UNL     1     -40.101  52.425 -51.141  1.00  0.00     0.060 A 
HETATM   13  C   UNL     1     -39.714  51.297 -51.869  1.00  0.00     0.036 A 
HETATM   14 CL   UNL     1     -39.198  49.883 -51.033  1.00  0.00    -0.084 Cl
HETATM   15  C   UNL     1     -39.743  51.300 -53.263  1.00  0.00     0.024 A 
HETATM   16  C   UNL     1     -40.169  52.442 -53.937  1.00  0.00     0.004 A 
HETATM   17  C   UNL     1     -40.551  53.571 -53.212  1.00  0.00     0.037 A 
ENDBRANCH  10  11
ENDBRANCH   8  10
ENDBRANCH   7   8
ENDBRANCH   3   7
BRANCH   1  18
HETATM   18  C   UNL     1     -45.647  60.209 -50.801  1.00  0.00     0.059 A 
HETATM   19  C   UNL     1     -45.536  61.250 -49.867  1.00  0.00    -0.032 A 
HETATM   20  C   UNL     1     -44.763  61.147 -48.583  1.00  0.00     0.050 C 
HETATM   21  C   UNL     1     -46.206  62.454 -50.133  1.00  0.00     0.028 A 
HETATM   22  C   UNL     1     -46.998  62.559 -51.266  1.00  0.00     0.117 A 
HETATM   23  N   UNL     1     -47.175  61.555 -52.147  1.00  0.00    -0.271 NA
HETATM   24  C   UNL     1     -46.499  60.412 -51.891  1.00  0.00     0.146 A 
ENDBRANCH   1  18
TORSDOF 5
ENDMDL
MODEL 10
REMARK VINA RESULT:      -6.5      5.487      7.883
REMARK  5 active torsions:
REMARK  status: ('A' for Active; 'I' for Inactive)
REMARK    1  A    between atoms: C_3  and  N_4 
REMARK       I    between atoms: N_4  and  C_5 
REMARK       I    between atoms: C_5  and  N_6 
REMARK    2  A    between atoms: N_6  and  C_7 
REMARK    3  A    between atoms: C_7  and  C_8 
REMARK    4  A    between atoms: C_8  and  O_9 
REMARK    5  A    between atoms: O_9  and  C_10 
ROOT
HETATM    1  N   UNL     1     -44.784  60.443 -49.692  1.00  0.00    -0.307 N 
HETATM    2  C   UNL     1     -45.155  59.249 -50.274  1.00  0.00     0.320 C 
HETATM    3  N   UNL     1     -44.058  58.604 -50.798  1.00  0.00    -0.340 N 
HETATM    4  O   UNL     1     -46.283  58.780 -50.299  1.00  0.00    -0.247 OA
HETATM    5  H   UNL     1     -43.924  60.351 -49.167  1.00  0.00     0.170 HD
HETATM    6  H   UNL     1     -43.264  59.184 -51.029  1.00  0.00     0.164 HD
ENDROOT
BRANCH   3   7
HETATM    7  C   UNL     1     -44.160  57.299 -51.431  1.00  0.00     0.156 C 
BRANCH   7   8
HETATM    8  C   UNL     1     -42.816  56.718 -51.916  1.00  0.00     0.142 C 
HETATM    9  C   UNL     1     -42.195  57.541 -53.043  1.00  0.00     0.042 C 
BRANCH   8  10
HETATM   10  O   UNL     1     -43.052  55.412 -52.471  1.00  0.00    -0.345 OA
BRANCH  10  11
HETATM   11  C   UNL     1     -42.077  54.460 -52.374  1.00  0.00     0.070 A 
HETATM   12  C   UNL     1     -41.676  53.583 -53.379  1.00  0.00     0.060 A 
HETATM   13  C   UNL     1     -40.662  52.655 -53.125  1.00  0.00     0.036 A 
HETATM   14 CL   UNL     1     -40.179  51.564 -54.366  1.00  0.00    -0.084 Cl
HETATM   15  C   UNL     1     -40.035  52.603 -51.881  1.00  0.00     0.024 A 
HETATM   16  C   UNL     1     -40.420  53.492 -50.881  1.00  0.00     0.004 A 
HETATM   17  C   UNL     1     -41.436  54.416 -51.131  1.00  0.00     0.037 A 
ENDBRANCH  10  11
ENDBRANCH   8  10
ENDBRANCH   7   8
ENDBRANCH   3   7
BRANCH   1  18
HETATM   18  C   UNL     1     -45.709  61.394 -49.202  1.00  0.00     0.059 A 
HETATM   19  C   UNL     1     -46.066  61.532 -47.852  1.00  0.00    -0.032 A 
HETATM   20  C   UNL     1     -45.552  60.647 -46.752  1.00  0.00     0.050 C 
HETATM   21  C   UNL     1     -46.976  62.543 -47.507  1.00  0.00     0.028 A 
HETATM   22  C   UNL     1     -47.536  63.326 -48.505  1.00  0.00     0.117 A 
HETATM   23  N   UNL     1     -47.262  63.174 -49.814  1.00  0.00    -0.271 NA
HETATM   24  C   UNL     1     -46.361  62.214 -50.127  1.00  0.00     0.146 A 
ENDBRANCH   1  18
TORSDOF 5
ENDMDL
