MODEL 1
REMARK VINA RESULT:      -8.0      0.000      0.000
REMARK  8 active torsions:
REMARK  status: ('A' for Active; 'I' for Inactive)
REMARK       I    between atoms: C_2  and  N_3 
REMARK    1  A    between atoms: N_3  and  C_4 
REMARK    2  A    between atoms: C_6  and  N_7 
REMARK    3  A    between atoms: N_7  and  C_8 
REMARK    4  A    between atoms: C_8  and  C_9 
REMARK       I    between atoms: C_9  and  N_10 
REMARK    5  A    between atoms: N_10  and  C_11 
REMARK    6  A    between atoms: C_12  and  C_13 
REMARK       I    between atoms: C_13  and  N_14 
REMARK    7  A    between atoms: N_14  and  C_15 
REMARK    8  A    between atoms: C_24  and  O_25 
ROOT
HETATM    1  C   UNL     1     -40.960  53.374 -54.443  1.00  0.00     0.235 C 
HETATM    2  N   UNL     1     -39.878  52.692 -53.903  1.00  0.00    -0.325 N 
HETATM    3  O   UNL     1     -42.137  53.231 -54.135  1.00  0.00    -0.272 OA
HETATM    4  H   UNL     1     -38.969  53.090 -54.102  1.00  0.00     0.169 HD
ENDROOT
BRANCH   1   5
HETATM    5  C   UNL     1     -40.523  54.463 -55.440  1.00  0.00     0.195 C 
BRANCH   5   6
HETATM    6  N   UNL     1     -41.636  55.271 -55.944  1.00  0.00    -0.282 NA
HETATM    7  H   UNL     1     -41.604  55.317 -56.968  1.00  0.00     0.128 HD
BRANCH   6   8
HETATM    8  C   UNL     1     -41.865  56.567 -55.450  1.00  0.00     0.044 A 
HETATM    9  C   UNL     1     -41.596  56.930 -54.120  1.00  0.00     0.055 A 
HETATM   10  C   UNL     1     -41.697  58.253 -53.674  1.00  0.00     0.036 A 
HETATM   11  C   UNL     1     -42.126  59.239 -54.564  1.00  0.00     0.032 A 
HETATM   12  C   UNL     1     -42.401  58.909 -55.890  1.00  0.00     0.041 A 
HETATM   13  C   UNL     1     -42.278  57.589 -56.329  1.00  0.00     0.089 A 
BRANCH  10  14
HETATM   14  N   UNL     1     -41.350  58.663 -52.367  1.00  0.00    -0.327 N 
HETATM   15  C   UNL     1     -40.109  59.096 -51.932  1.00  0.00     0.218 C 
HETATM   16  C   UNL     1     -40.113  59.534 -50.489  1.00  0.00     0.117 C 
HETATM   17  O   UNL     1     -39.089  59.201 -52.609  1.00  0.00    -0.274 OA
HETATM   18  H   UNL     1     -42.124  58.773 -51.723  1.00  0.00     0.169 HD
ENDBRANCH  10  14
BRANCH  13  19
HETATM   19  O   UNL     1     -42.539  57.398 -57.665  1.00  0.00    -0.354 OA
HETATM   20  C   UNL     1     -41.933  58.383 -58.501  1.00  0.00     0.210 C 
ENDBRANCH  13  19
ENDBRANCH   6   8
ENDBRANCH   5   6
ENDBRANCH   1   5
BRANCH   2  21
HETATM   21  C   UNL     1     -39.891  51.726 -52.871  1.00  0.00     0.050 A 
HETATM   22  C   UNL     1     -40.082  51.934 -51.497  1.00  0.00     0.058 A 
HETATM   23  C   UNL     1     -39.939  50.849 -50.604  1.00  0.00     0.019 A 
HETATM   24  C   UNL     1     -39.653  49.565 -51.061  1.00  0.00     0.001 A 
HETATM   25  C   UNL     1     -39.523  49.342 -52.423  1.00  0.00     0.002 A 
HETATM   26  C   UNL     1     -39.649  50.409 -53.316  1.00  0.00     0.030 A 
BRANCH  22  27
HETATM   27  C   UNL     1     -40.563  53.175 -50.844  1.00  0.00     0.254 C 
HETATM   28  N   UNL     1     -41.869  53.549 -51.113  1.00  0.00    -0.352 N 
HETATM   29  H   UNL     1     -42.418  53.013 -51.783  1.00  0.00     0.163 HD
HETATM   30  O   UNL     1     -39.856  53.713 -49.993  1.00  0.00    -0.268 OA
BRANCH  28  31
HETATM   31  C   UNL     1     -42.482  54.623 -50.394  1.00  0.00     0.084 A 
HETATM   32  C   UNL     1     -43.212  55.712 -51.130  1.00  0.00     0.027 A 
HETATM   33  C   UNL     1     -43.973  54.750 -50.266  1.00  0.00     0.027 A 
ENDBRANCH  28  31
ENDBRANCH  22  27
ENDBRANCH   2  21
TORSDOF 8
ENDMDL
MODEL 2
REMARK VINA RESULT:      -7.9      2.289      5.324
REMARK  8 active torsions:
REMARK  status: ('A' for Active; 'I' for Inactive)
REMARK       I    between atoms: C_2  and  N_3 
REMARK    1  A    between atoms: N_3  and  C_4 
REMARK    2  A    between atoms: C_6  and  N_7 
REMARK    3  A    between atoms: N_7  and  C_8 
REMARK    4  A    between atoms: C_8  and  C_9 
REMARK       I    between atoms: C_9  and  N_10 
REMARK    5  A    between atoms: N_10  and  C_11 
REMARK    6  A    between atoms: C_12  and  C_13 
REMARK       I    between atoms: C_13  and  N_14 
REMARK    7  A    between atoms: N_14  and  C_15 
REMARK    8  A    between atoms: C_24  and  O_25 
ROOT
HETATM    1  C   UNL     1     -42.942  56.568 -52.116  1.00  0.00     0.235 C 
HETATM    2  N   UNL     1     -41.661  56.039 -52.035  1.00  0.00    -0.325 N 
HETATM    3  O   UNL     1     -43.903  56.255 -51.422  1.00  0.00    -0.272 OA
HETATM    4  H   UNL     1     -40.942  56.564 -52.516  1.00  0.00     0.169 HD
ENDROOT
BRANCH   1   5
HETATM    5  C   UNL     1     -43.034  57.719 -53.134  1.00  0.00     0.195 C 
BRANCH   5   6
HETATM    6  N   UNL     1     -42.050  57.621 -54.214  1.00  0.00    -0.282 NA
HETATM    7  H   UNL     1     -41.234  58.206 -54.004  1.00  0.00     0.128 HD
BRANCH   6   8
HETATM    8  C   UNL     1     -42.424  57.845 -55.550  1.00  0.00     0.044 A 
HETATM    9  C   UNL     1     -43.026  56.855 -56.345  1.00  0.00     0.055 A 
HETATM   10  C   UNL     1     -43.520  57.127 -57.627  1.00  0.00     0.036 A 
HETATM   11  C   UNL     1     -43.368  58.411 -58.154  1.00  0.00     0.032 A 
HETATM   12  C   UNL     1     -42.776  59.414 -57.390  1.00  0.00     0.041 A 
HETATM   13  C   UNL     1     -42.304  59.136 -56.105  1.00  0.00     0.089 A 
BRANCH  10  14
HETATM   14  N   UNL     1     -44.206  56.176 -58.415  1.00  0.00    -0.327 N 
HETATM   15  C   UNL     1     -43.766  55.598 -59.594  1.00  0.00     0.218 C 
HETATM   16  C   UNL     1     -44.721  54.560 -60.129  1.00  0.00     0.117 C 
HETATM   17  O   UNL     1     -42.698  55.811 -60.162  1.00  0.00    -0.274 OA
HETATM   18  H   UNL     1     -45.044  55.787 -57.999  1.00  0.00     0.169 HD
ENDBRANCH  10  14
BRANCH  13  19
HETATM   19  O   UNL     1     -41.776  60.215 -55.437  1.00  0.00    -0.354 OA
HETATM   20  C   UNL     1     -42.772  61.087 -54.906  1.00  0.00     0.210 C 
ENDBRANCH  13  19
ENDBRANCH   6   8
ENDBRANCH   5   6
ENDBRANCH   1   5
BRANCH   2  21
HETATM   21  C   UNL     1     -41.181  55.068 -51.125  1.00  0.00     0.050 A 
HETATM   22  C   UNL     1     -40.794  53.748 -51.397  1.00  0.00     0.058 A 
HETATM   23  C   UNL     1     -40.454  52.889 -50.328  1.00  0.00     0.019 A 
HETATM   24  C   UNL     1     -40.455  53.337 -49.009  1.00  0.00     0.001 A 
HETATM   25  C   UNL     1     -40.778  54.658 -48.740  1.00  0.00     0.002 A 
HETATM   26  C   UNL     1     -41.129  55.514 -49.787  1.00  0.00     0.030 A 
BRANCH  22  27
HETATM   27  C   UNL     1     -40.560  53.147 -52.733  1.00  0.00     0.254 C 
HETATM   28  N   UNL     1     -39.805  51.986 -52.764  1.00  0.00    -0.352 N 
HETATM   29  H   UNL     1     -39.391  51.632 -51.904  1.00  0.00     0.163 HD
HETATM   30  O   UNL     1     -41.161  53.602 -53.704  1.00  0.00    -0.268 OA
BRANCH  28  31
HETATM   31  C   UNL     1     -39.676  51.234 -53.974  1.00  0.00     0.084 A 
HETATM   32  C   UNL     1     -39.344  49.769 -53.927  1.00  0.00     0.027 A 
HETATM   33  C   UNL     1     -40.697  50.217 -54.395  1.00  0.00     0.027 A 
ENDBRANCH  28  31
ENDBRANCH  22  27
ENDBRANCH   2  21
TORSDOF 8
ENDMDL
MODEL 3
REMARK VINA RESULT:      -7.8      1.836      4.048
REMARK  8 active torsions:
REMARK  status: ('A' for Active; 'I' for Inactive)
REMARK       I    between atoms: C_2  and  N_3 
REMARK    1  A    between atoms: N_3  and  C_4 
REMARK    2  A    between atoms: C_6  and  N_7 
REMARK    3  A    between atoms: N_7  and  C_8 
REMARK    4  A    between atoms: C_8  and  C_9 
REMARK       I    between atoms: C_9  and  N_10 
REMARK    5  A    between atoms: N_10  and  C_11 
REMARK    6  A    between atoms: C_12  and  C_13 
REMARK       I    between atoms: C_13  and  N_14 
REMARK    7  A    between atoms: N_14  and  C_15 
REMARK    8  A    between atoms: C_24  and  O_25 
ROOT
HETATM    1  C   UNL     1     -41.063  53.443 -54.508  1.00  0.00     0.235 C 
HETATM    2  N   UNL     1     -39.961  52.744 -54.035  1.00  0.00    -0.325 N 
HETATM    3  O   UNL     1     -42.218  53.331 -54.117  1.00  0.00    -0.272 OA
HETATM    4  H   UNL     1     -39.059  53.118 -54.303  1.00  0.00     0.169 HD
ENDROOT
BRANCH   1   5
HETATM    5  C   UNL     1     -40.673  54.509 -55.549  1.00  0.00     0.195 C 
BRANCH   5   6
HETATM    6  N   UNL     1     -41.113  55.860 -55.192  1.00  0.00    -0.282 NA
HETATM    7  H   UNL     1     -41.342  55.905 -54.193  1.00  0.00     0.128 HD
BRANCH   6   8
HETATM    8  C   UNL     1     -42.139  56.495 -55.911  1.00  0.00     0.044 A 
HETATM    9  C   UNL     1     -42.707  55.942 -57.071  1.00  0.00     0.055 A 
HETATM   10  C   UNL     1     -43.820  56.513 -57.701  1.00  0.00     0.036 A 
HETATM   11  C   UNL     1     -44.355  57.697 -57.191  1.00  0.00     0.032 A 
HETATM   12  C   UNL     1     -43.814  58.269 -56.041  1.00  0.00     0.041 A 
HETATM   13  C   UNL     1     -42.716  57.681 -55.410  1.00  0.00     0.089 A 
BRANCH  10  14
HETATM   14  N   UNL     1     -44.466  55.933 -58.815  1.00  0.00    -0.327 N 
HETATM   15  C   UNL     1     -43.989  55.869 -60.114  1.00  0.00     0.218 C 
HETATM   16  C   UNL     1     -44.906  55.106 -61.037  1.00  0.00     0.117 C 
HETATM   17  O   UNL     1     -42.916  56.305 -60.525  1.00  0.00    -0.274 OA
HETATM   18  H   UNL     1     -45.301  55.398 -58.607  1.00  0.00     0.169 HD
ENDBRANCH  10  14
BRANCH  13  19
HETATM   19  O   UNL     1     -42.297  58.317 -54.266  1.00  0.00    -0.354 OA
HETATM   20  C   UNL     1     -41.770  59.620 -54.511  1.00  0.00     0.210 C 
ENDBRANCH  13  19
ENDBRANCH   6   8
ENDBRANCH   5   6
ENDBRANCH   1   5
BRANCH   2  21
HETATM   21  C   UNL     1     -39.923  51.791 -52.990  1.00  0.00     0.050 A 
HETATM   22  C   UNL     1     -40.046  52.017 -51.612  1.00  0.00     0.058 A 
HETATM   23  C   UNL     1     -39.859  50.944 -50.712  1.00  0.00     0.019 A 
HETATM   24  C   UNL     1     -39.595  49.654 -51.166  1.00  0.00     0.001 A 
HETATM   25  C   UNL     1     -39.533  49.413 -52.530  1.00  0.00     0.002 A 
HETATM   26  C   UNL     1     -39.703  50.468 -53.430  1.00  0.00     0.030 A 
BRANCH  22  27
HETATM   27  C   UNL     1     -40.495  53.267 -50.952  1.00  0.00     0.254 C 
HETATM   28  N   UNL     1     -41.838  53.583 -51.074  1.00  0.00    -0.352 N 
HETATM   29  H   UNL     1     -42.441  53.000 -51.651  1.00  0.00     0.163 HD
HETATM   30  O   UNL     1     -39.712  53.865 -50.215  1.00  0.00    -0.268 OA
BRANCH  28  31
HETATM   31  C   UNL     1     -42.402  54.665 -50.327  1.00  0.00     0.084 A 
HETATM   32  C   UNL     1     -42.773  55.950 -51.012  1.00  0.00     0.027 A 
HETATM   33  C   UNL     1     -43.845  55.058 -50.459  1.00  0.00     0.027 A 
ENDBRANCH  28  31
ENDBRANCH  22  27
ENDBRANCH   2  21
TORSDOF 8
ENDMDL
MODEL 4
REMARK VINA RESULT:      -7.8      2.266      3.363
REMARK  8 active torsions:
REMARK  status: ('A' for Active; 'I' for Inactive)
REMARK       I    between atoms: C_2  and  N_3 
REMARK    1  A    between atoms: N_3  and  C_4 
REMARK    2  A    between atoms: C_6  and  N_7 
REMARK    3  A    between atoms: N_7  and  C_8 
REMARK    4  A    between atoms: C_8  and  C_9 
REMARK       I    between atoms: C_9  and  N_10 
REMARK    5  A    between atoms: N_10  and  C_11 
REMARK    6  A    between atoms: C_12  and  C_13 
REMARK       I    between atoms: C_13  and  N_14 
REMARK    7  A    between atoms: N_14  and  C_15 
REMARK    8  A    between atoms: C_24  and  O_25 
ROOT
HETATM    1  C   UNL     1     -41.181  54.266 -55.198  1.00  0.00     0.235 C 
HETATM    2  N   UNL     1     -41.645  53.164 -54.494  1.00  0.00    -0.325 N 
HETATM    3  O   UNL     1     -40.011  54.604 -55.332  1.00  0.00    -0.272 OA
HETATM    4  H   UNL     1     -42.607  52.904 -54.675  1.00  0.00     0.169 HD
ENDROOT
BRANCH   1   5
HETATM    5  C   UNL     1     -42.315  55.011 -55.927  1.00  0.00     0.195 C 
BRANCH   5   6
HETATM    6  N   UNL     1     -43.509  55.205 -55.102  1.00  0.00    -0.282 NA
HETATM    7  H   UNL     1     -44.310  55.455 -55.692  1.00  0.00     0.128 HD
BRANCH   6   8
HETATM    8  C   UNL     1     -43.485  56.072 -53.996  1.00  0.00     0.044 A 
HETATM    9  C   UNL     1     -43.511  57.470 -54.128  1.00  0.00     0.055 A 
HETATM   10  C   UNL     1     -43.627  58.321 -53.022  1.00  0.00     0.036 A 
HETATM   11  C   UNL     1     -43.670  57.767 -51.742  1.00  0.00     0.032 A 
HETATM   12  C   UNL     1     -43.647  56.384 -51.578  1.00  0.00     0.041 A 
HETATM   13  C   UNL     1     -43.551  55.544 -52.690  1.00  0.00     0.089 A 
BRANCH  10  14
HETATM   14  N   UNL     1     -43.742  59.725 -53.129  1.00  0.00    -0.327 N 
HETATM   15  C   UNL     1     -42.715  60.632 -53.329  1.00  0.00     0.218 C 
HETATM   16  C   UNL     1     -43.207  62.051 -53.474  1.00  0.00     0.117 C 
HETATM   17  O   UNL     1     -41.520  60.374 -53.451  1.00  0.00    -0.274 OA
HETATM   18  H   UNL     1     -44.688  60.082 -53.196  1.00  0.00     0.169 HD
ENDBRANCH  10  14
BRANCH  13  19
HETATM   19  O   UNL     1     -43.575  54.200 -52.403  1.00  0.00    -0.354 OA
HETATM   20  C   UNL     1     -43.879  53.925 -51.036  1.00  0.00     0.210 C 
ENDBRANCH  13  19
ENDBRANCH   6   8
ENDBRANCH   5   6
ENDBRANCH   1   5
BRANCH   2  21
HETATM   21  C   UNL     1     -40.881  52.182 -53.820  1.00  0.00     0.050 A 
HETATM   22  C   UNL     1     -40.165  52.320 -52.622  1.00  0.00     0.058 A 
HETATM   23  C   UNL     1     -39.359  51.252 -52.168  1.00  0.00     0.019 A 
HETATM   24  C   UNL     1     -39.291  50.047 -52.863  1.00  0.00     0.001 A 
HETATM   25  C   UNL     1     -40.044  49.885 -54.016  1.00  0.00     0.002 A 
HETATM   26  C   UNL     1     -40.835  50.938 -54.483  1.00  0.00     0.030 A 
BRANCH  22  27
HETATM   27  C   UNL     1     -40.249  53.445 -51.659  1.00  0.00     0.254 C 
HETATM   28  N   UNL     1     -39.997  53.142 -50.331  1.00  0.00    -0.352 N 
HETATM   29  H   UNL     1     -39.834  52.174 -50.058  1.00  0.00     0.163 HD
HETATM   30  O   UNL     1     -40.378  54.589 -52.090  1.00  0.00    -0.268 OA
BRANCH  28  31
HETATM   31  C   UNL     1     -39.876  54.183 -49.357  1.00  0.00     0.084 A 
HETATM   32  C   UNL     1     -41.104  54.810 -48.759  1.00  0.00     0.027 A 
HETATM   33  C   UNL     1     -40.204  53.962 -47.909  1.00  0.00     0.027 A 
ENDBRANCH  28  31
ENDBRANCH  22  27
ENDBRANCH   2  21
TORSDOF 8
ENDMDL
MODEL 5
REMARK VINA RESULT:      -7.6      2.545      4.005
REMARK  8 active torsions:
REMARK  status: ('A' for Active; 'I' for Inactive)
REMARK       I    between atoms: C_2  and  N_3 
REMARK    1  A    between atoms: N_3  and  C_4 
REMARK    2  A    between atoms: C_6  and  N_7 
REMARK    3  A    between atoms: N_7  and  C_8 
REMARK    4  A    between atoms: C_8  and  C_9 
REMARK       I    between atoms: C_9  and  N_10 
REMARK    5  A    between atoms: N_10  and  C_11 
REMARK    6  A    between atoms: C_12  and  C_13 
REMARK       I    between atoms: C_13  and  N_14 
REMARK    7  A    between atoms: N_14  and  C_15 
REMARK    8  A    between atoms: C_24  and  O_25 
ROOT
HETATM    1  C   UNL     1     -41.916  55.154 -55.043  1.00  0.00     0.235 C 
HETATM    2  N   UNL     1     -42.122  53.872 -54.553  1.00  0.00    -0.325 N 
HETATM    3  O   UNL     1     -40.966  55.886 -54.789  1.00  0.00    -0.272 OA
HETATM    4  H   UNL     1     -42.826  53.329 -55.036  1.00  0.00     0.169 HD
ENDROOT
BRANCH   1   5
HETATM    5  C   UNL     1     -42.985  55.563 -56.073  1.00  0.00     0.195 C 
BRANCH   5   6
HETATM    6  N   UNL     1     -42.480  55.615 -57.446  1.00  0.00    -0.282 NA
HETATM    7  H   UNL     1     -41.458  55.523 -57.452  1.00  0.00     0.128 HD
BRANCH   6   8
HETATM    8  C   UNL     1     -42.834  56.671 -58.304  1.00  0.00     0.044 A 
HETATM    9  C   UNL     1     -42.204  57.926 -58.261  1.00  0.00     0.055 A 
HETATM   10  C   UNL     1     -42.467  58.924 -59.207  1.00  0.00     0.036 A 
HETATM   11  C   UNL     1     -43.421  58.686 -60.198  1.00  0.00     0.032 A 
HETATM   12  C   UNL     1     -44.062  57.450 -60.266  1.00  0.00     0.041 A 
HETATM   13  C   UNL     1     -43.778  56.455 -59.329  1.00  0.00     0.089 A 
BRANCH  10  14
HETATM   14  N   UNL     1     -41.788  60.162 -59.242  1.00  0.00    -0.327 N 
HETATM   15  C   UNL     1     -41.363  60.910 -58.157  1.00  0.00     0.218 C 
HETATM   16  C   UNL     1     -40.597  62.145 -58.561  1.00  0.00     0.117 C 
HETATM   17  O   UNL     1     -41.503  60.627 -56.970  1.00  0.00    -0.274 OA
HETATM   18  H   UNL     1     -41.467  60.459 -60.156  1.00  0.00     0.169 HD
ENDBRANCH  10  14
BRANCH  13  19
HETATM   19  O   UNL     1     -44.445  55.270 -59.524  1.00  0.00    -0.354 OA
HETATM   20  C   UNL     1     -44.965  55.130 -60.846  1.00  0.00     0.210 C 
ENDBRANCH  13  19
ENDBRANCH   6   8
ENDBRANCH   5   6
ENDBRANCH   1   5
BRANCH   2  21
HETATM   21  C   UNL     1     -41.278  53.125 -53.698  1.00  0.00     0.050 A 
HETATM   22  C   UNL     1     -40.939  53.400 -52.365  1.00  0.00     0.058 A 
HETATM   23  C   UNL     1     -39.978  52.596 -51.713  1.00  0.00     0.019 A 
HETATM   24  C   UNL     1     -39.387  51.508 -52.352  1.00  0.00     0.001 A 
HETATM   25  C   UNL     1     -39.763  51.196 -53.649  1.00  0.00     0.002 A 
HETATM   26  C   UNL     1     -40.703  51.991 -54.310  1.00  0.00     0.030 A 
BRANCH  22  27
HETATM   27  C   UNL     1     -41.583  54.390 -51.470  1.00  0.00     0.254 C 
HETATM   28  N   UNL     1     -41.125  55.694 -51.559  1.00  0.00    -0.352 N 
HETATM   29  H   UNL     1     -40.339  55.910 -52.168  1.00  0.00     0.163 HD
HETATM   30  O   UNL     1     -42.574  54.053 -50.823  1.00  0.00    -0.268 OA
BRANCH  28  31
HETATM   31  C   UNL     1     -41.801  56.752 -50.873  1.00  0.00     0.084 A 
HETATM   32  C   UNL     1     -41.065  58.008 -50.500  1.00  0.00     0.027 A 
HETATM   33  C   UNL     1     -42.140  58.052 -51.545  1.00  0.00     0.027 A 
ENDBRANCH  28  31
ENDBRANCH  22  27
ENDBRANCH   2  21
TORSDOF 8
ENDMDL
MODEL 6
REMARK VINA RESULT:      -7.6      2.951      5.263
REMARK  8 active torsions:
REMARK  status: ('A' for Active; 'I' for Inactive)
REMARK       I    between atoms: C_2  and  N_3 
REMARK    1  A    between atoms: N_3  and  C_4 
REMARK    2  A    between atoms: C_6  and  N_7 
REMARK    3  A    between atoms: N_7  and  C_8 
REMARK    4  A    between atoms: C_8  and  C_9 
REMARK       I    between atoms: C_9  and  N_10 
REMARK    5  A    between atoms: N_10  and  C_11 
REMARK    6  A    between atoms: C_12  and  C_13 
REMARK       I    between atoms: C_13  and  N_14 
REMARK    7  A    between atoms: N_14  and  C_15 
REMARK    8  A    between atoms: C_24  and  O_25 
ROOT
HETATM    1  C   UNL     1     -42.576  56.152 -52.856  1.00  0.00     0.235 C 
HETATM    2  N   UNL     1     -41.345  55.975 -52.241  1.00  0.00    -0.325 N 
HETATM    3  O   UNL     1     -43.596  55.508 -52.641  1.00  0.00    -0.272 OA
HETATM    4  H   UNL     1     -40.682  56.731 -52.366  1.00  0.00     0.169 HD
ENDROOT
BRANCH   1   5
HETATM    5  C   UNL     1     -42.584  57.363 -53.807  1.00  0.00     0.195 C 
BRANCH   5   6
HETATM    6  N   UNL     1     -41.657  58.424 -53.406  1.00  0.00    -0.282 NA
HETATM    7  H   UNL     1     -40.752  58.021 -53.141  1.00  0.00     0.128 HD
BRANCH   6   8
HETATM    8  C   UNL     1     -42.023  59.369 -52.432  1.00  0.00     0.044 A 
HETATM    9  C   UNL     1     -43.147  60.201 -52.567  1.00  0.00     0.055 A 
HETATM   10  C   UNL     1     -43.582  61.040 -51.534  1.00  0.00     0.036 A 
HETATM   11  C   UNL     1     -42.850  61.089 -50.346  1.00  0.00     0.032 A 
HETATM   12  C   UNL     1     -41.732  60.275 -50.182  1.00  0.00     0.041 A 
HETATM   13  C   UNL     1     -41.318  59.428 -51.213  1.00  0.00     0.089 A 
BRANCH  10  14
HETATM   14  N   UNL     1     -44.756  61.822 -51.608  1.00  0.00    -0.327 N 
HETATM   15  C   UNL     1     -45.997  61.514 -51.075  1.00  0.00     0.218 C 
HETATM   16  C   UNL     1     -47.008  62.616 -51.273  1.00  0.00     0.117 C 
HETATM   17  O   UNL     1     -46.295  60.504 -50.443  1.00  0.00    -0.274 OA
HETATM   18  H   UNL     1     -44.635  62.759 -51.974  1.00  0.00     0.169 HD
ENDBRANCH  10  14
BRANCH  13  19
HETATM   19  O   UNL     1     -40.225  58.649 -50.916  1.00  0.00    -0.354 OA
HETATM   20  C   UNL     1     -39.005  59.389 -50.868  1.00  0.00     0.210 C 
ENDBRANCH  13  19
ENDBRANCH   6   8
ENDBRANCH   5   6
ENDBRANCH   1   5
BRANCH   2  21
HETATM   21  C   UNL     1     -41.010  55.053 -51.222  1.00  0.00     0.050 A 
HETATM   22  C   UNL     1     -40.605  53.718 -51.365  1.00  0.00     0.058 A 
HETATM   23  C   UNL     1     -40.431  52.918 -50.214  1.00  0.00     0.019 A 
HETATM   24  C   UNL     1     -40.614  53.437 -48.934  1.00  0.00     0.001 A 
HETATM   25  C   UNL     1     -40.956  54.773 -48.785  1.00  0.00     0.002 A 
HETATM   26  C   UNL     1     -41.143  55.571 -49.916  1.00  0.00     0.030 A 
BRANCH  22  27
HETATM   27  C   UNL     1     -40.191  53.044 -52.619  1.00  0.00     0.254 C 
HETATM   28  N   UNL     1     -39.650  51.776 -52.489  1.00  0.00    -0.352 N 
HETATM   29  H   UNL     1     -39.496  51.387 -51.560  1.00  0.00     0.163 HD
HETATM   30  O   UNL     1     -40.485  53.558 -53.696  1.00  0.00    -0.268 OA
BRANCH  28  31
HETATM   31  C   UNL     1     -39.389  50.973 -53.644  1.00  0.00     0.084 A 
HETATM   32  C   UNL     1     -39.447  49.474 -53.557  1.00  0.00     0.027 A 
HETATM   33  C   UNL     1     -40.476  50.219 -54.354  1.00  0.00     0.027 A 
ENDBRANCH  28  31
ENDBRANCH  22  27
ENDBRANCH   2  21
TORSDOF 8
ENDMDL
MODEL 7
REMARK VINA RESULT:      -7.5      2.749      5.012
REMARK  8 active torsions:
REMARK  status: ('A' for Active; 'I' for Inactive)
REMARK       I    between atoms: C_2  and  N_3 
REMARK    1  A    between atoms: N_3  and  C_4 
REMARK    2  A    between atoms: C_6  and  N_7 
REMARK    3  A    between atoms: N_7  and  C_8 
REMARK    4  A    between atoms: C_8  and  C_9 
REMARK       I    between atoms: C_9  and  N_10 
REMARK    5  A    between atoms: N_10  and  C_11 
REMARK    6  A    between atoms: C_12  and  C_13 
REMARK       I    between atoms: C_13  and  N_14 
REMARK    7  A    between atoms: N_14  and  C_15 
REMARK    8  A    between atoms: C_24  and  O_25 
ROOT
HETATM    1  C   UNL     1     -41.555  55.204 -55.099  1.00  0.00     0.235 C 
HETATM    2  N   UNL     1     -41.760  53.865 -54.798  1.00  0.00    -0.325 N 
HETATM    3  O   UNL     1     -40.746  55.953 -54.565  1.00  0.00    -0.272 OA
HETATM    4  H   UNL     1     -42.295  53.342 -55.481  1.00  0.00     0.169 HD
ENDROOT
BRANCH   1   5
HETATM    5  C   UNL     1     -42.401  55.668 -56.299  1.00  0.00     0.195 C 
BRANCH   5   6
HETATM    6  N   UNL     1     -42.209  57.080 -56.635  1.00  0.00    -0.282 NA
HETATM    7  H   UNL     1     -42.575  57.676 -55.885  1.00  0.00     0.128 HD
BRANCH   6   8
HETATM    8  C   UNL     1     -42.653  57.593 -57.866  1.00  0.00     0.044 A 
HETATM    9  C   UNL     1     -43.644  56.963 -58.637  1.00  0.00     0.055 A 
HETATM   10  C   UNL     1     -44.177  57.551 -59.790  1.00  0.00     0.036 A 
HETATM   11  C   UNL     1     -43.676  58.782 -60.218  1.00  0.00     0.032 A 
HETATM   12  C   UNL     1     -42.693  59.432 -59.475  1.00  0.00     0.041 A 
HETATM   13  C   UNL     1     -42.182  58.844 -58.315  1.00  0.00     0.089 A 
BRANCH  10  14
HETATM   14  N   UNL     1     -45.234  56.984 -60.536  1.00  0.00    -0.327 N 
HETATM   15  C   UNL     1     -46.559  56.868 -60.150  1.00  0.00     0.218 C 
HETATM   16  C   UNL     1     -47.435  56.282 -61.229  1.00  0.00     0.117 C 
HETATM   17  O   UNL     1     -47.049  57.241 -59.086  1.00  0.00    -0.274 OA
HETATM   18  H   UNL     1     -45.018  56.762 -61.501  1.00  0.00     0.169 HD
ENDBRANCH  10  14
BRANCH  13  19
HETATM   19  O   UNL     1     -41.246  59.599 -57.649  1.00  0.00    -0.354 OA
HETATM   20  C   UNL     1     -41.644  60.958 -57.473  1.00  0.00     0.210 C 
ENDBRANCH  13  19
ENDBRANCH   6   8
ENDBRANCH   5   6
ENDBRANCH   1   5
BRANCH   2  21
HETATM   21  C   UNL     1     -41.067  53.073 -53.853  1.00  0.00     0.050 A 
HETATM   22  C   UNL     1     -40.950  53.284 -52.472  1.00  0.00     0.058 A 
HETATM   23  C   UNL     1     -40.108  52.443 -51.710  1.00  0.00     0.019 A 
HETATM   24  C   UNL     1     -39.422  51.381 -52.293  1.00  0.00     0.001 A 
HETATM   25  C   UNL     1     -39.582  51.131 -53.648  1.00  0.00     0.002 A 
HETATM   26  C   UNL     1     -40.400  51.963 -54.415  1.00  0.00     0.030 A 
BRANCH  22  27
HETATM   27  C   UNL     1     -41.731  54.238 -51.648  1.00  0.00     0.254 C 
HETATM   28  N   UNL     1     -41.202  55.510 -51.507  1.00  0.00    -0.352 N 
HETATM   29  H   UNL     1     -40.288  55.721 -51.904  1.00  0.00     0.163 HD
HETATM   30  O   UNL     1     -42.857  53.916 -51.272  1.00  0.00    -0.268 OA
BRANCH  28  31
HETATM   31  C   UNL     1     -41.963  56.550 -50.887  1.00  0.00     0.084 A 
HETATM   32  C   UNL     1     -41.435  57.957 -50.845  1.00  0.00     0.027 A 
HETATM   33  C   UNL     1     -42.635  57.631 -51.684  1.00  0.00     0.027 A 
ENDBRANCH  28  31
ENDBRANCH  22  27
ENDBRANCH   2  21
TORSDOF 8
ENDMDL
MODEL 8
REMARK VINA RESULT:      -7.5      2.578      5.223
REMARK  8 active torsions:
REMARK  status: ('A' for Active; 'I' for Inactive)
REMARK       I    between atoms: C_2  and  N_3 
REMARK    1  A    between atoms: N_3  and  C_4 
REMARK    2  A    between atoms: C_6  and  N_7 
REMARK    3  A    between atoms: N_7  and  C_8 
REMARK    4  A    between atoms: C_8  and  C_9 
REMARK       I    between atoms: C_9  and  N_10 
REMARK    5  A    between atoms: N_10  and  C_11 
REMARK    6  A    between atoms: C_12  and  C_13 
REMARK       I    between atoms: C_13  and  N_14 
REMARK    7  A    between atoms: N_14  and  C_15 
REMARK    8  A    between atoms: C_24  and  O_25 
ROOT
HETATM    1  C   UNL     1     -43.070  55.533 -54.141  1.00  0.00     0.235 C 
HETATM    2  N   UNL     1     -41.975  55.929 -53.385  1.00  0.00    -0.325 N 
HETATM    3  O   UNL     1     -43.817  54.591 -53.902  1.00  0.00    -0.272 OA
HETATM    4  H   UNL     1     -41.612  56.851 -53.593  1.00  0.00     0.169 HD
ENDROOT
BRANCH   1   5
HETATM    5  C   UNL     1     -43.347  56.494 -55.311  1.00  0.00     0.195 C 
BRANCH   5   6
HETATM    6  N   UNL     1     -43.355  55.833 -56.618  1.00  0.00    -0.282 NA
HETATM    7  H   UNL     1     -42.677  55.064 -56.630  1.00  0.00     0.128 HD
BRANCH   6   8
HETATM    8  C   UNL     1     -43.203  56.577 -57.801  1.00  0.00     0.044 A 
HETATM    9  C   UNL     1     -42.581  57.837 -57.830  1.00  0.00     0.055 A 
HETATM   10  C   UNL     1     -42.311  58.506 -59.029  1.00  0.00     0.036 A 
HETATM   11  C   UNL     1     -42.714  57.929 -60.235  1.00  0.00     0.032 A 
HETATM   12  C   UNL     1     -43.333  56.681 -60.238  1.00  0.00     0.041 A 
HETATM   13  C   UNL     1     -43.580  56.013 -59.037  1.00  0.00     0.089 A 
BRANCH  10  14
HETATM   14  N   UNL     1     -41.611  59.731 -59.097  1.00  0.00    -0.327 N 
HETATM   15  C   UNL     1     -42.150  60.988 -59.318  1.00  0.00     0.218 C 
HETATM   16  C   UNL     1     -41.120  62.088 -59.246  1.00  0.00     0.117 C 
HETATM   17  O   UNL     1     -43.335  61.257 -59.495  1.00  0.00    -0.274 OA
HETATM   18  H   UNL     1     -40.636  59.693 -58.822  1.00  0.00     0.169 HD
ENDBRANCH  10  14
BRANCH  13  19
HETATM   19  O   UNL     1     -44.160  54.774 -59.173  1.00  0.00    -0.354 OA
HETATM   20  C   UNL     1     -44.945  54.650 -60.359  1.00  0.00     0.210 C 
ENDBRANCH  13  19
ENDBRANCH   6   8
ENDBRANCH   5   6
ENDBRANCH   1   5
BRANCH   2  21
HETATM   21  C   UNL     1     -41.511  55.366 -52.173  1.00  0.00     0.050 A 
HETATM   22  C   UNL     1     -40.835  54.151 -51.989  1.00  0.00     0.058 A 
HETATM   23  C   UNL     1     -40.560  53.701 -50.679  1.00  0.00     0.019 A 
HETATM   24  C   UNL     1     -40.907  54.458 -49.563  1.00  0.00     0.001 A 
HETATM   25  C   UNL     1     -41.521  55.689 -49.741  1.00  0.00     0.002 A 
HETATM   26  C   UNL     1     -41.811  56.139 -51.031  1.00  0.00     0.030 A 
BRANCH  22  27
HETATM   27  C   UNL     1     -40.232  53.301 -53.043  1.00  0.00     0.254 C 
HETATM   28  N   UNL     1     -39.890  52.010 -52.676  1.00  0.00    -0.352 N 
HETATM   29  H   UNL     1     -39.998  51.718 -51.706  1.00  0.00     0.163 HD
HETATM   30  O   UNL     1     -40.210  53.714 -54.201  1.00  0.00    -0.268 OA
BRANCH  28  31
HETATM   31  C   UNL     1     -39.471  51.059 -53.659  1.00  0.00     0.084 A 
HETATM   32  C   UNL     1     -39.558  49.585 -53.377  1.00  0.00     0.027 A 
HETATM   33  C   UNL     1     -40.450  50.205 -54.411  1.00  0.00     0.027 A 
ENDBRANCH  28  31
ENDBRANCH  22  27
ENDBRANCH   2  21
TORSDOF 8
ENDMDL
MODEL 9
REMARK VINA RESULT:      -7.4      2.251      3.379
REMARK  8 active torsions:
REMARK  status: ('A' for Active; 'I' for Inactive)
REMARK       I    between atoms: C_2  and  N_3 
REMARK    1  A    between atoms: N_3  and  C_4 
REMARK    2  A    between atoms: C_6  and  N_7 
REMARK    3  A    between atoms: N_7  and  C_8 
REMARK    4  A    between atoms: C_8  and  C_9 
REMARK       I    between atoms: C_9  and  N_10 
REMARK    5  A    between atoms: N_10  and  C_11 
REMARK    6  A    between atoms: C_12  and  C_13 
REMARK       I    between atoms: C_13  and  N_14 
REMARK    7  A    between atoms: N_14  and  C_15 
REMARK    8  A    between atoms: C_24  and  O_25 
ROOT
HETATM    1  C   UNL     1     -41.382  53.886 -54.759  1.00  0.00     0.235 C 
HETATM    2  N   UNL     1     -40.207  53.205 -54.473  1.00  0.00    -0.325 N 
HETATM    3  O   UNL     1     -42.502  53.610 -54.344  1.00  0.00    -0.272 OA
HETATM    4  H   UNL     1     -39.352  53.694 -54.707  1.00  0.00     0.169 HD
ENDROOT
BRANCH   1   5
HETATM    5  C   UNL     1     -41.133  55.150 -55.601  1.00  0.00     0.195 C 
BRANCH   5   6
HETATM    6  N   UNL     1     -42.257  55.502 -56.471  1.00  0.00    -0.282 NA
HETATM    7  H   UNL     1     -42.091  55.157 -57.422  1.00  0.00     0.128 HD
BRANCH   6   8
HETATM    8  C   UNL     1     -42.714  56.828 -56.554  1.00  0.00     0.044 A 
HETATM    9  C   UNL     1     -42.288  57.715 -57.557  1.00  0.00     0.055 A 
HETATM   10  C   UNL     1     -42.850  58.988 -57.715  1.00  0.00     0.036 A 
HETATM   11  C   UNL     1     -43.833  59.411 -56.819  1.00  0.00     0.032 A 
HETATM   12  C   UNL     1     -44.277  58.554 -55.814  1.00  0.00     0.041 A 
HETATM   13  C   UNL     1     -43.722  57.279 -55.678  1.00  0.00     0.089 A 
BRANCH  10  14
HETATM   14  N   UNL     1     -42.505  59.867 -58.765  1.00  0.00    -0.327 N 
HETATM   15  C   UNL     1     -41.530  60.850 -58.741  1.00  0.00     0.218 C 
HETATM   16  C   UNL     1     -41.373  61.552 -60.068  1.00  0.00     0.117 C 
HETATM   17  O   UNL     1     -40.792  61.130 -57.800  1.00  0.00    -0.274 OA
HETATM   18  H   UNL     1     -42.926  59.663 -59.664  1.00  0.00     0.169 HD
ENDBRANCH  10  14
BRANCH  13  19
HETATM   19  O   UNL     1     -44.269  56.515 -54.675  1.00  0.00    -0.354 OA
HETATM   20  C   UNL     1     -44.490  57.247 -53.470  1.00  0.00     0.210 C 
ENDBRANCH  13  19
ENDBRANCH   6   8
ENDBRANCH   5   6
ENDBRANCH   1   5
BRANCH   2  21
HETATM   21  C   UNL     1     -40.039  52.086 -53.624  1.00  0.00     0.050 A 
HETATM   22  C   UNL     1     -39.987  52.066 -52.223  1.00  0.00     0.058 A 
HETATM   23  C   UNL     1     -39.689  50.857 -51.556  1.00  0.00     0.019 A 
HETATM   24  C   UNL     1     -39.485  49.672 -52.258  1.00  0.00     0.001 A 
HETATM   25  C   UNL     1     -39.595  49.673 -53.640  1.00  0.00     0.002 A 
HETATM   26  C   UNL     1     -39.876  50.865 -54.313  1.00  0.00     0.030 A 
BRANCH  22  27
HETATM   27  C   UNL     1     -40.349  53.172 -51.304  1.00  0.00     0.254 C 
HETATM   28  N   UNL     1     -41.677  53.566 -51.303  1.00  0.00    -0.352 N 
HETATM   29  H   UNL     1     -42.328  53.142 -51.962  1.00  0.00     0.163 HD
HETATM   30  O   UNL     1     -39.514  53.569 -50.493  1.00  0.00    -0.268 OA
BRANCH  28  31
HETATM   31  C   UNL     1     -42.161  54.494 -50.328  1.00  0.00     0.084 A 
HETATM   32  C   UNL     1     -42.436  55.922 -50.709  1.00  0.00     0.027 A 
HETATM   33  C   UNL     1     -43.571  55.010 -50.347  1.00  0.00     0.027 A 
ENDBRANCH  28  31
ENDBRANCH  22  27
ENDBRANCH   2  21
TORSDOF 8
ENDMDL
MODEL 10
REMARK VINA RESULT:      -7.3      3.563      7.550
REMARK  8 active torsions:
REMARK  status: ('A' for Active; 'I' for Inactive)
REMARK       I    between atoms: C_2  and  N_3 
REMARK    1  A    between atoms: N_3  and  C_4 
REMARK    2  A    between atoms: C_6  and  N_7 
REMARK    3  A    between atoms: N_7  and  C_8 
REMARK    4  A    between atoms: C_8  and  C_9 
REMARK       I    between atoms: C_9  and  N_10 
REMARK    5  A    between atoms: N_10  and  C_11 
REMARK    6  A    between atoms: C_12  and  C_13 
REMARK       I    between atoms: C_13  and  N_14 
REMARK    7  A    between atoms: N_14  and  C_15 
REMARK    8  A    between atoms: C_24  and  O_25 
ROOT
HETATM    1  C   UNL     1     -43.489  56.555 -51.314  1.00  0.00     0.235 C 
HETATM    2  N   UNL     1     -44.654  56.989 -51.931  1.00  0.00    -0.325 N 
HETATM    3  O   UNL     1     -42.454  57.198 -51.183  1.00  0.00    -0.272 OA
HETATM    4  H   UNL     1     -45.477  56.427 -51.752  1.00  0.00     0.169 HD
ENDROOT
BRANCH   1   5
HETATM    5  C   UNL     1     -43.650  55.162 -50.678  1.00  0.00     0.195 C 
BRANCH   5   6
HETATM    6  N   UNL     1     -43.749  54.081 -51.661  1.00  0.00    -0.282 NA
HETATM    7  H   UNL     1     -43.709  53.171 -51.191  1.00  0.00     0.128 HD
BRANCH   6   8
HETATM    8  C   UNL     1     -42.893  54.042 -52.776  1.00  0.00     0.044 A 
HETATM    9  C   UNL     1     -43.307  54.425 -54.063  1.00  0.00     0.055 A 
HETATM   10  C   UNL     1     -42.413  54.515 -55.137  1.00  0.00     0.036 A 
HETATM   11  C   UNL     1     -41.076  54.166 -54.938  1.00  0.00     0.032 A 
HETATM   12  C   UNL     1     -40.635  53.783 -53.672  1.00  0.00     0.041 A 
HETATM   13  C   UNL     1     -41.532  53.716 -52.604  1.00  0.00     0.089 A 
BRANCH  10  14
HETATM   14  N   UNL     1     -42.780  54.979 -56.419  1.00  0.00    -0.327 N 
HETATM   15  C   UNL     1     -42.706  56.280 -56.886  1.00  0.00     0.218 C 
HETATM   16  C   UNL     1     -43.107  56.406 -58.336  1.00  0.00     0.117 C 
HETATM   17  O   UNL     1     -42.306  57.262 -56.265  1.00  0.00    -0.274 OA
HETATM   18  H   UNL     1     -42.993  54.260 -57.100  1.00  0.00     0.169 HD
ENDBRANCH  10  14
BRANCH  13  19
HETATM   19  O   UNL     1     -40.971  53.362 -51.400  1.00  0.00    -0.354 OA
HETATM   20  C   UNL     1     -39.820  52.531 -51.541  1.00  0.00     0.210 C 
ENDBRANCH  13  19
ENDBRANCH   6   8
ENDBRANCH   5   6
ENDBRANCH   1   5
BRANCH   2  21
HETATM   21  C   UNL     1     -44.913  58.257 -52.501  1.00  0.00     0.050 A 
HETATM   22  C   UNL     1     -45.359  59.418 -51.854  1.00  0.00     0.058 A 
HETATM   23  C   UNL     1     -45.678  60.562 -52.620  1.00  0.00     0.019 A 
HETATM   24  C   UNL     1     -45.518  60.576 -54.003  1.00  0.00     0.001 A 
HETATM   25  C   UNL     1     -45.020  59.451 -54.642  1.00  0.00     0.002 A 
HETATM   26  C   UNL     1     -44.714  58.309 -53.897  1.00  0.00     0.030 A 
BRANCH  22  27
HETATM   27  C   UNL     1     -45.421  59.654 -50.391  1.00  0.00     0.254 C 
HETATM   28  N   UNL     1     -44.853  60.830 -49.930  1.00  0.00    -0.352 N 
HETATM   29  H   UNL     1     -44.366  61.443 -50.582  1.00  0.00     0.163 HD
HETATM   30  O   UNL     1     -46.093  58.896 -49.694  1.00  0.00    -0.268 OA
BRANCH  28  31
HETATM   31  C   UNL     1     -45.019  61.234 -48.568  1.00  0.00     0.084 A 
HETATM   32  C   UNL     1     -44.772  62.660 -48.162  1.00  0.00     0.027 A 
HETATM   33  C   UNL     1     -46.164  62.099 -48.125  1.00  0.00     0.027 A 
ENDBRANCH  28  31
ENDBRANCH  22  27
ENDBRANCH   2  21
TORSDOF 8
ENDMDL
