MODEL 1
REMARK VINA RESULT:      -9.2      0.000      0.000
REMARK  6 active torsions:
REMARK  status: ('A' for Active; 'I' for Inactive)
REMARK    1  A    between atoms: C_2  and  O_3 
REMARK    2  A    between atoms: C_2  and  C_4 
REMARK    3  A    between atoms: C_6  and  N_7 
REMARK       I    between atoms: N_7  and  C_8 
REMARK    4  A    between atoms: C_8  and  C_9 
REMARK    5  A    between atoms: C_14  and  C_15 
REMARK    6  A    between atoms: C_23  and  C_24 
ROOT
HETATM    1  C   UNL     1     -42.106  58.517 -51.372  1.00  0.00     0.148 A 
HETATM    2  N   UNL     1     -43.163  57.670 -51.351  1.00  0.00    -0.165 NA
HETATM    3  N   UNL     1     -42.749  56.637 -52.112  1.00  0.00    -0.240 N 
HETATM    4  C   UNL     1     -41.530  56.835 -52.695  1.00  0.00     0.123 A 
HETATM    5  N   UNL     1     -40.992  55.948 -53.555  1.00  0.00    -0.366 N 
HETATM    6  C   UNL     1     -41.607  54.664 -53.848  1.00  0.00     0.118 C 
HETATM    7  C   UNL     1     -43.120  54.673 -53.563  1.00  0.00     0.066 C 
HETATM    8  C   UNL     1     -43.565  55.456 -52.311  1.00  0.00     0.221 C 
HETATM    9  C   UNL     1     -41.071  58.030 -52.214  1.00  0.00     0.089 A 
HETATM   10  H   UNL     1     -40.031  56.055 -53.880  1.00  0.00     0.161 HD
ENDROOT
BRANCH   1  11
HETATM   11  C   UNL     1     -42.076  59.778 -50.609  1.00  0.00     0.276 C 
HETATM   12  N   UNL     1     -43.336  60.308 -50.417  1.00  0.00    -0.322 N 
HETATM   13  H   UNL     1     -44.078  59.772 -50.862  1.00  0.00     0.169 HD
HETATM   14  O   UNL     1     -41.013  60.257 -50.225  1.00  0.00    -0.266 OA
BRANCH  12  15
HETATM   15  C   UNL     1     -43.687  61.472 -49.712  1.00  0.00     0.035 A 
HETATM   16  C   UNL     1     -44.393  61.463 -48.505  1.00  0.00     0.039 A 
HETATM   17  C   UNL     1     -44.730  62.659 -47.845  1.00  0.00    -0.028 A 
HETATM   18  C   UNL     1     -44.325  63.874 -48.409  1.00  0.00     0.010 A 
HETATM   19  C   UNL     1     -43.622  63.896 -49.613  1.00  0.00     0.003 A 
HETATM   20  C   UNL     1     -43.310  62.700 -50.264  1.00  0.00     0.029 A 
BRANCH  17  21
HETATM   21  C   UNL     1     -45.497  62.595 -46.541  1.00  0.00     0.147 C 
HETATM   22  C   UNL     1     -45.177  61.323 -45.764  1.00  0.00     0.044 C 
BRANCH  21  23
HETATM   23  O   UNL     1     -45.193  63.726 -45.725  1.00  0.00    -0.391 OA
HETATM   24  H   UNL     1     -44.232  63.720 -45.585  1.00  0.00     0.210 HD
ENDBRANCH  21  23
ENDBRANCH  17  21
ENDBRANCH  12  15
ENDBRANCH   1  11
BRANCH   8  25
HETATM   25  C   UNL     1     -43.599  54.616 -51.053  1.00  0.00     0.409 C 
HETATM   26  F   UNL     1     -42.528  54.787 -50.258  1.00  0.00    -0.169 F 
HETATM   27  F   UNL     1     -44.701  54.863 -50.309  1.00  0.00    -0.169 F 
HETATM   28  F   UNL     1     -43.650  53.298 -51.376  1.00  0.00    -0.169 F 
ENDBRANCH   8  25
BRANCH   6  29
HETATM   29  C   UNL     1     -40.827  53.511 -53.238  1.00  0.00    -0.035 A 
HETATM   30  C   UNL     1     -40.575  52.313 -53.930  1.00  0.00     0.012 A 
HETATM   31  C   UNL     1     -39.888  51.261 -53.319  1.00  0.00     0.043 A 
HETATM   32  C   UNL     1     -39.461  51.393 -52.006  1.00  0.00     0.116 A 
HETATM   33  F   UNL     1     -38.817  50.378 -51.414  1.00  0.00    -0.206 F 
HETATM   34  C   UNL     1     -39.698  52.562 -51.295  1.00  0.00     0.043 A 
HETATM   35  C   UNL     1     -40.372  53.619 -51.910  1.00  0.00     0.012 A 
ENDBRANCH   6  29
TORSDOF 6
ENDMDL
MODEL 2
REMARK VINA RESULT:      -9.2      6.674     10.418
REMARK  6 active torsions:
REMARK  status: ('A' for Active; 'I' for Inactive)
REMARK    1  A    between atoms: C_2  and  O_3 
REMARK    2  A    between atoms: C_2  and  C_4 
REMARK    3  A    between atoms: C_6  and  N_7 
REMARK       I    between atoms: N_7  and  C_8 
REMARK    4  A    between atoms: C_8  and  C_9 
REMARK    5  A    between atoms: C_14  and  C_15 
REMARK    6  A    between atoms: C_23  and  C_24 
ROOT
HETATM    1  C   UNL     1     -43.132  56.469 -55.972  1.00  0.00     0.148 A 
HETATM    2  N   UNL     1     -43.248  56.227 -57.301  1.00  0.00    -0.165 NA
HETATM    3  N   UNL     1     -43.344  57.462 -57.835  1.00  0.00    -0.240 N 
HETATM    4  C   UNL     1     -43.398  58.462 -56.907  1.00  0.00     0.123 A 
HETATM    5  N   UNL     1     -43.576  59.752 -57.251  1.00  0.00    -0.366 N 
HETATM    6  C   UNL     1     -43.616  60.199 -58.634  1.00  0.00     0.118 C 
HETATM    7  C   UNL     1     -44.008  59.062 -59.595  1.00  0.00     0.066 C 
HETATM    8  C   UNL     1     -43.425  57.672 -59.267  1.00  0.00     0.221 C 
HETATM    9  C   UNL     1     -43.233  57.858 -55.691  1.00  0.00     0.089 A 
HETATM   10  H   UNL     1     -43.489  60.493 -56.556  1.00  0.00     0.161 HD
ENDROOT
BRANCH   1  11
HETATM   11  C   UNL     1     -42.932  55.400 -54.979  1.00  0.00     0.276 C 
HETATM   12  N   UNL     1     -41.612  55.005 -54.886  1.00  0.00    -0.322 N 
HETATM   13  H   UNL     1     -40.996  55.483 -55.540  1.00  0.00     0.169 HD
HETATM   14  O   UNL     1     -43.879  54.944 -54.345  1.00  0.00    -0.266 OA
BRANCH  12  15
HETATM   15  C   UNL     1     -41.055  54.042 -54.027  1.00  0.00     0.035 A 
HETATM   16  C   UNL     1     -40.738  52.740 -54.425  1.00  0.00     0.039 A 
HETATM   17  C   UNL     1     -40.194  51.809 -53.520  1.00  0.00    -0.028 A 
HETATM   18  C   UNL     1     -39.949  52.217 -52.204  1.00  0.00     0.010 A 
HETATM   19  C   UNL     1     -40.262  53.513 -51.796  1.00  0.00     0.003 A 
HETATM   20  C   UNL     1     -40.819  54.419 -52.701  1.00  0.00     0.029 A 
BRANCH  17  21
HETATM   21  C   UNL     1     -39.870  50.411 -54.002  1.00  0.00     0.147 C 
HETATM   22  C   UNL     1     -39.517  49.486 -52.843  1.00  0.00     0.044 C 
BRANCH  21  23
HETATM   23  O   UNL     1     -40.975  49.859 -54.716  1.00  0.00    -0.391 OA
HETATM   24  H   UNL     1     -41.683  49.711 -54.068  1.00  0.00     0.210 HD
ENDBRANCH  21  23
ENDBRANCH  17  21
ENDBRANCH  12  15
ENDBRANCH   1  11
BRANCH   8  25
HETATM   25  C   UNL     1     -42.086  57.409 -59.919  1.00  0.00     0.409 C 
HETATM   26  F   UNL     1     -41.855  56.109 -60.180  1.00  0.00    -0.169 F 
HETATM   27  F   UNL     1     -41.945  58.088 -61.080  1.00  0.00    -0.169 F 
HETATM   28  F   UNL     1     -41.083  57.837 -59.109  1.00  0.00    -0.169 F 
ENDBRANCH   8  25
BRANCH   6  29
HETATM   29  C   UNL     1     -42.370  60.983 -59.010  1.00  0.00    -0.035 A 
HETATM   30  C   UNL     1     -41.419  61.401 -58.063  1.00  0.00     0.012 A 
HETATM   31  C   UNL     1     -40.307  62.155 -58.444  1.00  0.00     0.043 A 
HETATM   32  C   UNL     1     -40.146  62.511 -59.775  1.00  0.00     0.116 A 
HETATM   33  F   UNL     1     -39.088  63.249 -60.139  1.00  0.00    -0.206 F 
HETATM   34  C   UNL     1     -41.069  62.118 -60.734  1.00  0.00     0.043 A 
HETATM   35  C   UNL     1     -42.173  61.351 -60.355  1.00  0.00     0.012 A 
ENDBRANCH   6  29
TORSDOF 6
ENDMDL
MODEL 3
REMARK VINA RESULT:      -9.1      6.283      8.482
REMARK  6 active torsions:
REMARK  status: ('A' for Active; 'I' for Inactive)
REMARK    1  A    between atoms: C_2  and  O_3 
REMARK    2  A    between atoms: C_2  and  C_4 
REMARK    3  A    between atoms: C_6  and  N_7 
REMARK       I    between atoms: N_7  and  C_8 
REMARK    4  A    between atoms: C_8  and  C_9 
REMARK    5  A    between atoms: C_14  and  C_15 
REMARK    6  A    between atoms: C_23  and  C_24 
ROOT
HETATM    1  C   UNL     1     -42.555  57.157 -57.755  1.00  0.00     0.148 A 
HETATM    2  N   UNL     1     -42.514  57.823 -56.576  1.00  0.00    -0.165 NA
HETATM    3  N   UNL     1     -42.713  56.851 -55.662  1.00  0.00    -0.240 N 
HETATM    4  C   UNL     1     -42.981  55.628 -56.208  1.00  0.00     0.123 A 
HETATM    5  N   UNL     1     -43.287  54.556 -55.452  1.00  0.00    -0.366 N 
HETATM    6  C   UNL     1     -43.253  54.583 -53.998  1.00  0.00     0.118 C 
HETATM    7  C   UNL     1     -43.405  56.011 -53.446  1.00  0.00     0.066 C 
HETATM    8  C   UNL     1     -42.685  57.121 -54.239  1.00  0.00     0.221 C 
HETATM    9  C   UNL     1     -42.856  55.783 -57.561  1.00  0.00     0.089 A 
HETATM   10  H   UNL     1     -43.360  53.629 -55.869  1.00  0.00     0.161 HD
ENDROOT
BRANCH   1  11
HETATM   11  C   UNL     1     -42.317  57.813 -59.053  1.00  0.00     0.276 C 
HETATM   12  N   UNL     1     -42.818  59.099 -59.093  1.00  0.00    -0.322 N 
HETATM   13  H   UNL     1     -43.303  59.376 -58.243  1.00  0.00     0.169 HD
HETATM   14  O   UNL     1     -41.741  57.223 -59.962  1.00  0.00    -0.266 OA
BRANCH  12  15
HETATM   15  C   UNL     1     -42.743  60.025 -60.149  1.00  0.00     0.035 A 
HETATM   16  C   UNL     1     -41.715  60.962 -60.286  1.00  0.00     0.039 A 
HETATM   17  C   UNL     1     -41.694  61.876 -61.356  1.00  0.00    -0.028 A 
HETATM   18  C   UNL     1     -42.719  61.817 -62.308  1.00  0.00     0.010 A 
HETATM   19  C   UNL     1     -43.750  60.887 -62.181  1.00  0.00     0.003 A 
HETATM   20  C   UNL     1     -43.766  60.000 -61.103  1.00  0.00     0.029 A 
BRANCH  17  21
HETATM   21  C   UNL     1     -40.559  62.872 -61.458  1.00  0.00     0.147 C 
HETATM   22  C   UNL     1     -39.746  62.930 -60.170  1.00  0.00     0.044 C 
BRANCH  21  23
HETATM   23  O   UNL     1     -39.691  62.533 -62.539  1.00  0.00    -0.391 OA
HETATM   24  H   UNL     1     -39.619  63.322 -63.099  1.00  0.00     0.210 HD
ENDBRANCH  21  23
ENDBRANCH  17  21
ENDBRANCH  12  15
ENDBRANCH   1  11
BRANCH   8  25
HETATM   25  C   UNL     1     -41.268  57.374 -53.774  1.00  0.00     0.409 C 
HETATM   26  F   UNL     1     -40.358  56.558 -54.338  1.00  0.00    -0.169 F 
HETATM   27  F   UNL     1     -40.876  58.646 -54.013  1.00  0.00    -0.169 F 
HETATM   28  F   UNL     1     -41.181  57.199 -52.430  1.00  0.00    -0.169 F 
ENDBRANCH   8  25
BRANCH   6  29
HETATM   29  C   UNL     1     -42.085  53.781 -53.447  1.00  0.00    -0.035 A 
HETATM   30  C   UNL     1     -41.661  53.877 -52.110  1.00  0.00     0.012 A 
HETATM   31  C   UNL     1     -40.557  53.153 -51.652  1.00  0.00     0.043 A 
HETATM   32  C   UNL     1     -39.859  52.339 -52.532  1.00  0.00     0.116 A 
HETATM   33  F   UNL     1     -38.791  51.658 -52.098  1.00  0.00    -0.206 F 
HETATM   34  C   UNL     1     -40.251  52.226 -53.859  1.00  0.00     0.043 A 
HETATM   35  C   UNL     1     -41.363  52.938 -54.314  1.00  0.00     0.012 A 
ENDBRANCH   6  29
TORSDOF 6
ENDMDL
MODEL 4
REMARK VINA RESULT:      -8.8      6.232      8.297
REMARK  6 active torsions:
REMARK  status: ('A' for Active; 'I' for Inactive)
REMARK    1  A    between atoms: C_2  and  O_3 
REMARK    2  A    between atoms: C_2  and  C_4 
REMARK    3  A    between atoms: C_6  and  N_7 
REMARK       I    between atoms: N_7  and  C_8 
REMARK    4  A    between atoms: C_8  and  C_9 
REMARK    5  A    between atoms: C_14  and  C_15 
REMARK    6  A    between atoms: C_23  and  C_24 
ROOT
HETATM    1  C   UNL     1     -42.379  57.757 -57.306  1.00  0.00     0.148 A 
HETATM    2  N   UNL     1     -42.322  58.274 -56.055  1.00  0.00    -0.165 NA
HETATM    3  N   UNL     1     -42.589  57.214 -55.266  1.00  0.00    -0.240 N 
HETATM    4  C   UNL     1     -42.912  56.081 -55.957  1.00  0.00     0.123 A 
HETATM    5  N   UNL     1     -43.288  54.945 -55.337  1.00  0.00    -0.366 N 
HETATM    6  C   UNL     1     -43.276  54.796 -53.891  1.00  0.00     0.118 C 
HETATM    7  C   UNL     1     -43.361  56.156 -53.173  1.00  0.00     0.066 C 
HETATM    8  C   UNL     1     -42.570  57.310 -53.820  1.00  0.00     0.221 C 
HETATM    9  C   UNL     1     -42.758  56.388 -57.281  1.00  0.00     0.089 A 
HETATM   10  H   UNL     1     -43.404  54.079 -55.863  1.00  0.00     0.161 HD
ENDROOT
BRANCH   1  11
HETATM   11  C   UNL     1     -42.085  58.548 -58.513  1.00  0.00     0.276 C 
HETATM   12  N   UNL     1     -41.837  59.876 -58.226  1.00  0.00    -0.322 N 
HETATM   13  H   UNL     1     -41.933  60.106 -57.239  1.00  0.00     0.169 HD
HETATM   14  O   UNL     1     -42.088  58.028 -59.624  1.00  0.00    -0.266 OA
BRANCH  12  15
HETATM   15  C   UNL     1     -41.491  60.905 -59.119  1.00  0.00     0.035 A 
HETATM   16  C   UNL     1     -42.044  61.040 -60.396  1.00  0.00     0.039 A 
HETATM   17  C   UNL     1     -41.653  62.082 -61.258  1.00  0.00    -0.028 A 
HETATM   18  C   UNL     1     -40.707  63.008 -60.804  1.00  0.00     0.010 A 
HETATM   19  C   UNL     1     -40.148  62.883 -59.532  1.00  0.00     0.003 A 
HETATM   20  C   UNL     1     -40.533  61.832 -58.697  1.00  0.00     0.029 A 
BRANCH  17  21
HETATM   21  C   UNL     1     -42.282  62.182 -62.631  1.00  0.00     0.147 C 
HETATM   22  C   UNL     1     -41.957  63.512 -63.301  1.00  0.00     0.044 C 
BRANCH  21  23
HETATM   23  O   UNL     1     -41.829  61.119 -63.468  1.00  0.00    -0.391 OA
HETATM   24  H   UNL     1     -42.291  61.213 -64.317  1.00  0.00     0.210 HD
ENDBRANCH  21  23
ENDBRANCH  17  21
ENDBRANCH  12  15
ENDBRANCH   1  11
BRANCH   8  25
HETATM   25  C   UNL     1     -41.149  57.427 -53.315  1.00  0.00     0.409 C 
HETATM   26  F   UNL     1     -40.620  58.656 -53.461  1.00  0.00    -0.169 F 
HETATM   27  F   UNL     1     -41.046  57.093 -52.008  1.00  0.00    -0.169 F 
HETATM   28  F   UNL     1     -40.344  56.564 -53.988  1.00  0.00    -0.169 F 
ENDBRANCH   8  25
BRANCH   6  29
HETATM   29  C   UNL     1     -42.163  53.872 -53.427  1.00  0.00    -0.035 A 
HETATM   30  C   UNL     1     -41.707  53.837 -52.098  1.00  0.00     0.012 A 
HETATM   31  C   UNL     1     -40.653  53.001 -51.721  1.00  0.00     0.043 A 
HETATM   32  C   UNL     1     -40.037  52.205 -52.674  1.00  0.00     0.116 A 
HETATM   33  F   UNL     1     -39.015  51.415 -52.317  1.00  0.00    -0.206 F 
HETATM   34  C   UNL     1     -40.461  52.219 -53.996  1.00  0.00     0.043 A 
HETATM   35  C   UNL     1     -41.524  53.044 -54.370  1.00  0.00     0.012 A 
ENDBRANCH   6  29
TORSDOF 6
ENDMDL
MODEL 5
REMARK VINA RESULT:      -8.8      6.478      9.795
REMARK  6 active torsions:
REMARK  status: ('A' for Active; 'I' for Inactive)
REMARK    1  A    between atoms: C_2  and  O_3 
REMARK    2  A    between atoms: C_2  and  C_4 
REMARK    3  A    between atoms: C_6  and  N_7 
REMARK       I    between atoms: N_7  and  C_8 
REMARK    4  A    between atoms: C_8  and  C_9 
REMARK    5  A    between atoms: C_14  and  C_15 
REMARK    6  A    between atoms: C_23  and  C_24 
ROOT
HETATM    1  C   UNL     1     -43.144  56.577 -55.953  1.00  0.00     0.148 A 
HETATM    2  N   UNL     1     -43.221  56.294 -57.275  1.00  0.00    -0.165 NA
HETATM    3  N   UNL     1     -43.361  57.507 -57.847  1.00  0.00    -0.240 N 
HETATM    4  C   UNL     1     -43.480  58.529 -56.948  1.00  0.00     0.123 A 
HETATM    5  N   UNL     1     -43.708  59.800 -57.332  1.00  0.00    -0.366 N 
HETATM    6  C   UNL     1     -43.739  60.207 -58.728  1.00  0.00     0.118 C 
HETATM    7  C   UNL     1     -44.060  59.027 -59.664  1.00  0.00     0.066 C 
HETATM    8  C   UNL     1     -43.422  57.675 -59.285  1.00  0.00     0.221 C 
HETATM    9  C   UNL     1     -43.313  57.967 -55.712  1.00  0.00     0.089 A 
HETATM   10  H   UNL     1     -43.669  60.563 -56.657  1.00  0.00     0.161 HD
ENDROOT
BRANCH   1  11
HETATM   11  C   UNL     1     -42.918  55.545 -54.925  1.00  0.00     0.276 C 
HETATM   12  N   UNL     1     -41.615  55.088 -54.915  1.00  0.00    -0.322 N 
HETATM   13  H   UNL     1     -41.030  55.502 -55.637  1.00  0.00     0.169 HD
HETATM   14  O   UNL     1     -43.832  55.169 -54.199  1.00  0.00    -0.266 OA
BRANCH  12  15
HETATM   15  C   UNL     1     -41.038  54.138 -54.055  1.00  0.00     0.035 A 
HETATM   16  C   UNL     1     -40.924  54.313 -52.672  1.00  0.00     0.039 A 
HETATM   17  C   UNL     1     -40.326  53.335 -51.857  1.00  0.00    -0.028 A 
HETATM   18  C   UNL     1     -39.860  52.157 -52.453  1.00  0.00     0.010 A 
HETATM   19  C   UNL     1     -39.967  51.972 -53.831  1.00  0.00     0.003 A 
HETATM   20  C   UNL     1     -40.547  52.961 -54.628  1.00  0.00     0.029 A 
BRANCH  17  21
HETATM   21  C   UNL     1     -40.226  53.574 -50.365  1.00  0.00     0.147 C 
HETATM   22  C   UNL     1     -41.279  54.565 -49.884  1.00  0.00     0.044 C 
BRANCH  21  23
HETATM   23  O   UNL     1     -40.381  52.349 -49.650  1.00  0.00    -0.391 OA
HETATM   24  H   UNL     1     -39.642  52.294 -49.023  1.00  0.00     0.210 HD
ENDBRANCH  21  23
ENDBRANCH  17  21
ENDBRANCH  12  15
ENDBRANCH   1  11
BRANCH   8  25
HETATM   25  C   UNL     1     -42.059  57.454 -59.903  1.00  0.00     0.409 C 
HETATM   26  F   UNL     1     -41.038  57.864 -59.127  1.00  0.00    -0.169 F 
HETATM   27  F   UNL     1     -41.843  56.154 -60.205  1.00  0.00    -0.169 F 
HETATM   28  F   UNL     1     -41.965  58.133 -61.075  1.00  0.00    -0.169 F 
ENDBRANCH   8  25
BRANCH   6  29
HETATM   29  C   UNL     1     -42.522  61.036 -59.102  1.00  0.00    -0.035 A 
HETATM   30  C   UNL     1     -42.229  61.402 -60.427  1.00  0.00     0.012 A 
HETATM   31  C   UNL     1     -41.077  62.132 -60.733  1.00  0.00     0.043 A 
HETATM   32  C   UNL     1     -40.201  62.486 -59.718  1.00  0.00     0.116 A 
HETATM   33  F   UNL     1     -39.088  63.170 -60.014  1.00  0.00    -0.206 F 
HETATM   34  C   UNL     1     -40.460  62.136 -58.400  1.00  0.00     0.043 A 
HETATM   35  C   UNL     1     -41.619  61.419 -58.092  1.00  0.00     0.012 A 
ENDBRANCH   6  29
TORSDOF 6
ENDMDL
MODEL 6
REMARK VINA RESULT:      -8.7     18.028     20.257
REMARK  6 active torsions:
REMARK  status: ('A' for Active; 'I' for Inactive)
REMARK    1  A    between atoms: C_2  and  O_3 
REMARK    2  A    between atoms: C_2  and  C_4 
REMARK    3  A    between atoms: C_6  and  N_7 
REMARK       I    between atoms: N_7  and  C_8 
REMARK    4  A    between atoms: C_8  and  C_9 
REMARK    5  A    between atoms: C_14  and  C_15 
REMARK    6  A    between atoms: C_23  and  C_24 
ROOT
HETATM    1  C   UNL     1     -33.615  40.224 -53.246  1.00  0.00     0.148 A 
HETATM    2  N   UNL     1     -34.846  40.773 -53.107  1.00  0.00    -0.165 NA
HETATM    3  N   UNL     1     -35.134  41.212 -54.349  1.00  0.00    -0.240 N 
HETATM    4  C   UNL     1     -34.109  41.061 -55.238  1.00  0.00     0.123 A 
HETATM    5  N   UNL     1     -34.183  41.516 -56.504  1.00  0.00    -0.366 N 
HETATM    6  C   UNL     1     -35.392  42.104 -57.059  1.00  0.00     0.118 C 
HETATM    7  C   UNL     1     -36.316  42.661 -55.961  1.00  0.00     0.066 C 
HETATM    8  C   UNL     1     -36.408  41.824 -54.669  1.00  0.00     0.221 C 
HETATM    9  C   UNL     1     -33.120  40.397 -54.566  1.00  0.00     0.089 A 
HETATM   10  H   UNL     1     -33.460  41.284 -57.184  1.00  0.00     0.161 HD
ENDROOT
BRANCH   1  11
HETATM   11  C   UNL     1     -32.912  39.547 -52.142  1.00  0.00     0.276 C 
HETATM   12  N   UNL     1     -33.439  39.866 -50.906  1.00  0.00    -0.322 N 
HETATM   13  H   UNL     1     -34.198  40.542 -50.948  1.00  0.00     0.169 HD
HETATM   14  O   UNL     1     -31.961  38.803 -52.363  1.00  0.00    -0.266 OA
BRANCH  12  15
HETATM   15  C   UNL     1     -33.044  39.384 -49.646  1.00  0.00     0.035 A 
HETATM   16  C   UNL     1     -31.962  39.897 -48.925  1.00  0.00     0.039 A 
HETATM   17  C   UNL     1     -31.600  39.369 -47.672  1.00  0.00    -0.028 A 
HETATM   18  C   UNL     1     -32.363  38.322 -47.139  1.00  0.00     0.010 A 
HETATM   19  C   UNL     1     -33.443  37.801 -47.851  1.00  0.00     0.003 A 
HETATM   20  C   UNL     1     -33.778  38.325 -49.101  1.00  0.00     0.029 A 
BRANCH  17  21
HETATM   21  C   UNL     1     -30.420  39.960 -46.932  1.00  0.00     0.147 C 
HETATM   22  C   UNL     1     -30.367  39.482 -45.485  1.00  0.00     0.044 C 
BRANCH  21  23
HETATM   23  O   UNL     1     -29.197  39.611 -47.580  1.00  0.00    -0.391 OA
HETATM   24  H   UNL     1     -28.634  40.402 -47.563  1.00  0.00     0.210 HD
ENDBRANCH  21  23
ENDBRANCH  17  21
ENDBRANCH  12  15
ENDBRANCH   1  11
BRANCH   8  25
HETATM   25  C   UNL     1     -37.505  40.783 -54.698  1.00  0.00     0.409 C 
HETATM   26  F   UNL     1     -37.085  39.563 -55.079  1.00  0.00    -0.169 F 
HETATM   27  F   UNL     1     -38.108  40.648 -53.496  1.00  0.00    -0.169 F 
HETATM   28  F   UNL     1     -38.478  41.159 -55.568  1.00  0.00    -0.169 F 
ENDBRANCH   8  25
BRANCH   6  29
HETATM   29  C   UNL     1     -36.050  41.186 -58.075  1.00  0.00    -0.035 A 
HETATM   30  C   UNL     1     -35.767  39.812 -58.156  1.00  0.00     0.012 A 
HETATM   31  C   UNL     1     -36.364  39.010 -59.132  1.00  0.00     0.043 A 
HETATM   32  C   UNL     1     -37.237  39.580 -60.046  1.00  0.00     0.116 A 
HETATM   33  F   UNL     1     -37.797  38.815 -60.992  1.00  0.00    -0.206 F 
HETATM   34  C   UNL     1     -37.535  40.935 -59.996  1.00  0.00     0.043 A 
HETATM   35  C   UNL     1     -36.949  41.734 -59.011  1.00  0.00     0.012 A 
ENDBRANCH   6  29
TORSDOF 6
ENDMDL
MODEL 7
REMARK VINA RESULT:      -8.6      6.837     10.675
REMARK  6 active torsions:
REMARK  status: ('A' for Active; 'I' for Inactive)
REMARK    1  A    between atoms: C_2  and  O_3 
REMARK    2  A    between atoms: C_2  and  C_4 
REMARK    3  A    between atoms: C_6  and  N_7 
REMARK       I    between atoms: N_7  and  C_8 
REMARK    4  A    between atoms: C_8  and  C_9 
REMARK    5  A    between atoms: C_14  and  C_15 
REMARK    6  A    between atoms: C_23  and  C_24 
ROOT
HETATM    1  C   UNL     1     -42.693  55.754 -56.591  1.00  0.00     0.148 A 
HETATM    2  N   UNL     1     -42.266  57.037 -56.514  1.00  0.00    -0.165 NA
HETATM    3  N   UNL     1     -42.626  57.557 -57.705  1.00  0.00    -0.240 N 
HETATM    4  C   UNL     1     -43.163  56.643 -58.566  1.00  0.00     0.123 A 
HETATM    5  N   UNL     1     -43.506  56.960 -59.829  1.00  0.00    -0.366 N 
HETATM    6  C   UNL     1     -43.435  58.318 -60.346  1.00  0.00     0.118 C 
HETATM    7  C   UNL     1     -42.438  59.183 -59.554  1.00  0.00     0.066 C 
HETATM    8  C   UNL     1     -42.409  58.953 -58.030  1.00  0.00     0.221 C 
HETATM    9  C   UNL     1     -43.249  55.470 -57.866  1.00  0.00     0.089 A 
HETATM   10  H   UNL     1     -44.018  56.299 -60.412  1.00  0.00     0.161 HD
ENDROOT
BRANCH   1  11
HETATM   11  C   UNL     1     -42.571  54.802 -55.472  1.00  0.00     0.276 C 
HETATM   12  N   UNL     1     -41.256  54.488 -55.188  1.00  0.00    -0.322 N 
HETATM   13  H   UNL     1     -40.586  54.927 -55.814  1.00  0.00     0.169 HD
HETATM   14  O   UNL     1     -43.567  54.366 -54.905  1.00  0.00    -0.266 OA
BRANCH  12  15
HETATM   15  C   UNL     1     -40.768  53.647 -54.172  1.00  0.00     0.035 A 
HETATM   16  C   UNL     1     -40.364  52.326 -54.387  1.00  0.00     0.039 A 
HETATM   17  C   UNL     1     -39.895  51.522 -53.332  1.00  0.00    -0.028 A 
HETATM   18  C   UNL     1     -39.815  52.078 -52.050  1.00  0.00     0.010 A 
HETATM   19  C   UNL     1     -40.216  53.394 -51.823  1.00  0.00     0.003 A 
HETATM   20  C   UNL     1     -40.697  54.172 -52.878  1.00  0.00     0.029 A 
BRANCH  17  21
HETATM   21  C   UNL     1     -39.470  50.098 -53.619  1.00  0.00     0.147 C 
HETATM   22  C   UNL     1     -39.581  49.219 -52.378  1.00  0.00     0.044 C 
BRANCH  21  23
HETATM   23  O   UNL     1     -40.271  49.536 -54.657  1.00  0.00    -0.391 OA
HETATM   24  H   UNL     1     -40.003  48.608 -54.749  1.00  0.00     0.210 HD
ENDBRANCH  21  23
ENDBRANCH  17  21
ENDBRANCH  12  15
ENDBRANCH   1  11
BRANCH   8  25
HETATM   25  C   UNL     1     -43.375  59.832 -57.266  1.00  0.00     0.409 C 
HETATM   26  F   UNL     1     -42.955  60.153 -56.029  1.00  0.00    -0.169 F 
HETATM   27  F   UNL     1     -43.634  60.987 -57.920  1.00  0.00    -0.169 F 
HETATM   28  F   UNL     1     -44.569  59.200 -57.131  1.00  0.00    -0.169 F 
ENDBRANCH   8  25
BRANCH   6  29
HETATM   29  C   UNL     1     -44.817  58.917 -60.548  1.00  0.00    -0.035 A 
HETATM   30  C   UNL     1     -46.001  58.206 -60.285  1.00  0.00     0.012 A 
HETATM   31  C   UNL     1     -47.252  58.780 -60.522  1.00  0.00     0.043 A 
HETATM   32  C   UNL     1     -47.329  60.064 -61.039  1.00  0.00     0.116 A 
HETATM   33  F   UNL     1     -48.529  60.609 -61.282  1.00  0.00    -0.206 F 
HETATM   34  C   UNL     1     -46.179  60.792 -61.313  1.00  0.00     0.043 A 
HETATM   35  C   UNL     1     -44.927  60.223 -61.062  1.00  0.00     0.012 A 
ENDBRANCH   6  29
TORSDOF 6
ENDMDL
MODEL 8
REMARK VINA RESULT:      -8.6      4.995      7.157
REMARK  6 active torsions:
REMARK  status: ('A' for Active; 'I' for Inactive)
REMARK    1  A    between atoms: C_2  and  O_3 
REMARK    2  A    between atoms: C_2  and  C_4 
REMARK    3  A    between atoms: C_6  and  N_7 
REMARK       I    between atoms: N_7  and  C_8 
REMARK    4  A    between atoms: C_8  and  C_9 
REMARK    5  A    between atoms: C_14  and  C_15 
REMARK    6  A    between atoms: C_23  and  C_24 
ROOT
HETATM    1  C   UNL     1     -43.352  58.353 -55.116  1.00  0.00     0.148 A 
HETATM    2  N   UNL     1     -43.052  58.662 -53.831  1.00  0.00    -0.165 NA
HETATM    3  N   UNL     1     -43.101  57.469 -53.204  1.00  0.00    -0.240 N 
HETATM    4  C   UNL     1     -43.517  56.443 -54.004  1.00  0.00     0.123 A 
HETATM    5  N   UNL     1     -43.706  55.195 -53.532  1.00  0.00    -0.366 N 
HETATM    6  C   UNL     1     -43.381  54.813 -52.167  1.00  0.00     0.118 C 
HETATM    7  C   UNL     1     -43.368  56.026 -51.218  1.00  0.00     0.066 C 
HETATM    8  C   UNL     1     -42.779  57.328 -51.798  1.00  0.00     0.221 C 
HETATM    9  C   UNL     1     -43.660  56.974 -55.256  1.00  0.00     0.089 A 
HETATM   10  H   UNL     1     -43.895  54.421 -54.167  1.00  0.00     0.161 HD
ENDROOT
BRANCH   1  11
HETATM   11  C   UNL     1     -43.354  59.353 -56.199  1.00  0.00     0.276 C 
HETATM   12  N   UNL     1     -42.222  59.278 -56.987  1.00  0.00    -0.322 N 
HETATM   13  H   UNL     1     -41.552  58.578 -56.676  1.00  0.00     0.169 HD
HETATM   14  O   UNL     1     -44.283  60.144 -56.324  1.00  0.00    -0.266 OA
BRANCH  12  15
HETATM   15  C   UNL     1     -41.905  60.046 -58.120  1.00  0.00     0.035 A 
HETATM   16  C   UNL     1     -41.057  61.158 -58.090  1.00  0.00     0.039 A 
HETATM   17  C   UNL     1     -40.783  61.902 -59.253  1.00  0.00    -0.028 A 
HETATM   18  C   UNL     1     -41.360  61.495 -60.461  1.00  0.00     0.010 A 
HETATM   19  C   UNL     1     -42.208  60.389 -60.503  1.00  0.00     0.003 A 
HETATM   20  C   UNL     1     -42.484  59.672 -59.337  1.00  0.00     0.029 A 
BRANCH  17  21
HETATM   21  C   UNL     1     -39.859  63.098 -59.166  1.00  0.00     0.147 C 
HETATM   22  C   UNL     1     -39.872  63.912 -60.454  1.00  0.00     0.044 C 
BRANCH  21  23
HETATM   23  O   UNL     1     -40.235  63.943 -58.079  1.00  0.00    -0.391 OA
HETATM   24  H   UNL     1     -39.851  63.555 -57.276  1.00  0.00     0.210 HD
ENDBRANCH  21  23
ENDBRANCH  17  21
ENDBRANCH  12  15
ENDBRANCH   1  11
BRANCH   8  25
HETATM   25  C   UNL     1     -41.289  57.470 -51.578  1.00  0.00     0.409 C 
HETATM   26  F   UNL     1     -40.875  58.745 -51.471  1.00  0.00    -0.169 F 
HETATM   27  F   UNL     1     -40.876  56.815 -50.469  1.00  0.00    -0.169 F 
HETATM   28  F   UNL     1     -40.612  56.916 -52.616  1.00  0.00    -0.169 F 
ENDBRANCH   8  25
BRANCH   6  29
HETATM   29  C   UNL     1     -42.158  53.914 -52.108  1.00  0.00    -0.035 A 
HETATM   30  C   UNL     1     -41.539  53.548 -50.900  1.00  0.00     0.012 A 
HETATM   31  C   UNL     1     -40.392  52.752 -50.892  1.00  0.00     0.043 A 
HETATM   32  C   UNL     1     -39.845  52.327 -52.093  1.00  0.00     0.116 A 
HETATM   33  F   UNL     1     -38.734  51.577 -52.087  1.00  0.00    -0.206 F 
HETATM   34  C   UNL     1     -40.430  52.674 -53.304  1.00  0.00     0.043 A 
HETATM   35  C   UNL     1     -41.586  53.458 -53.312  1.00  0.00     0.012 A 
ENDBRANCH   6  29
TORSDOF 6
ENDMDL
MODEL 9
REMARK VINA RESULT:      -8.4      6.432     10.276
REMARK  6 active torsions:
REMARK  status: ('A' for Active; 'I' for Inactive)
REMARK    1  A    between atoms: C_2  and  O_3 
REMARK    2  A    between atoms: C_2  and  C_4 
REMARK    3  A    between atoms: C_6  and  N_7 
REMARK       I    between atoms: N_7  and  C_8 
REMARK    4  A    between atoms: C_8  and  C_9 
REMARK    5  A    between atoms: C_14  and  C_15 
REMARK    6  A    between atoms: C_23  and  C_24 
ROOT
HETATM    1  C   UNL     1     -42.989  55.869 -55.549  1.00  0.00     0.148 A 
HETATM    2  N   UNL     1     -43.361  57.153 -55.325  1.00  0.00    -0.165 NA
HETATM    3  N   UNL     1     -43.548  57.644 -56.567  1.00  0.00    -0.240 N 
HETATM    4  C   UNL     1     -43.215  56.769 -57.562  1.00  0.00     0.123 A 
HETATM    5  N   UNL     1     -43.258  57.112 -58.864  1.00  0.00    -0.366 N 
HETATM    6  C   UNL     1     -43.764  58.396 -59.323  1.00  0.00     0.118 C 
HETATM    7  C   UNL     1     -43.688  59.471 -58.223  1.00  0.00     0.066 C 
HETATM    8  C   UNL     1     -44.020  58.995 -56.794  1.00  0.00     0.221 C 
HETATM    9  C   UNL     1     -42.877  55.599 -56.939  1.00  0.00     0.089 A 
HETATM   10  H   UNL     1     -43.126  56.411 -59.592  1.00  0.00     0.161 HD
ENDROOT
BRANCH   1  11
HETATM   11  C   UNL     1     -42.737  54.908 -54.461  1.00  0.00     0.276 C 
HETATM   12  N   UNL     1     -41.475  54.351 -54.531  1.00  0.00    -0.322 N 
HETATM   13  H   UNL     1     -40.937  54.658 -55.338  1.00  0.00     0.169 HD
HETATM   14  O   UNL     1     -43.599  54.665 -53.622  1.00  0.00    -0.266 OA
BRANCH  12  15
HETATM   15  C   UNL     1     -40.886  53.430 -53.648  1.00  0.00     0.035 A 
HETATM   16  C   UNL     1     -40.700  52.077 -53.949  1.00  0.00     0.039 A 
HETATM   17  C   UNL     1     -40.116  51.193 -53.023  1.00  0.00    -0.028 A 
HETATM   18  C   UNL     1     -39.696  51.699 -51.787  1.00  0.00     0.010 A 
HETATM   19  C   UNL     1     -39.877  53.046 -51.475  1.00  0.00     0.003 A 
HETATM   20  C   UNL     1     -40.475  53.905 -52.398  1.00  0.00     0.029 A 
BRANCH  17  21
HETATM   21  C   UNL     1     -39.939  49.738 -53.398  1.00  0.00     0.147 C 
HETATM   22  C   UNL     1     -39.234  49.586 -54.740  1.00  0.00     0.044 C 
BRANCH  21  23
HETATM   23  O   UNL     1     -39.186  49.051 -52.398  1.00  0.00    -0.391 OA
HETATM   24  H   UNL     1     -38.888  48.216 -52.795  1.00  0.00     0.210 HD
ENDBRANCH  21  23
ENDBRANCH  17  21
ENDBRANCH  12  15
ENDBRANCH   1  11
BRANCH   8  25
HETATM   25  C   UNL     1     -45.486  59.112 -56.442  1.00  0.00     0.409 C 
HETATM   26  F   UNL     1     -46.200  58.005 -56.716  1.00  0.00    -0.169 F 
HETATM   27  F   UNL     1     -45.673  59.402 -55.134  1.00  0.00    -0.169 F 
HETATM   28  F   UNL     1     -46.051  60.133 -57.137  1.00  0.00    -0.169 F 
ENDBRANCH   8  25
BRANCH   6  29
HETATM   29  C   UNL     1     -45.107  58.257 -60.020  1.00  0.00    -0.035 A 
HETATM   30  C   UNL     1     -45.831  59.361 -60.503  1.00  0.00     0.012 A 
HETATM   31  C   UNL     1     -47.082  59.193 -61.103  1.00  0.00     0.043 A 
HETATM   32  C   UNL     1     -47.625  57.922 -61.210  1.00  0.00     0.116 A 
HETATM   33  F   UNL     1     -48.832  57.763 -61.770  1.00  0.00    -0.206 F 
HETATM   34  C   UNL     1     -46.937  56.812 -60.739  1.00  0.00     0.043 A 
HETATM   35  C   UNL     1     -45.680  56.977 -60.153  1.00  0.00     0.012 A 
ENDBRANCH   6  29
TORSDOF 6
ENDMDL
MODEL 10
REMARK VINA RESULT:      -8.3      6.090      9.315
REMARK  6 active torsions:
REMARK  status: ('A' for Active; 'I' for Inactive)
REMARK    1  A    between atoms: C_2  and  O_3 
REMARK    2  A    between atoms: C_2  and  C_4 
REMARK    3  A    between atoms: C_6  and  N_7 
REMARK       I    between atoms: N_7  and  C_8 
REMARK    4  A    between atoms: C_8  and  C_9 
REMARK    5  A    between atoms: C_14  and  C_15 
REMARK    6  A    between atoms: C_23  and  C_24 
ROOT
HETATM    1  C   UNL     1     -42.671  55.616 -55.816  1.00  0.00     0.148 A 
HETATM    2  N   UNL     1     -42.147  56.861 -55.924  1.00  0.00    -0.165 NA
HETATM    3  N   UNL     1     -42.418  57.203 -57.200  1.00  0.00    -0.240 N 
HETATM    4  C   UNL     1     -42.991  56.200 -57.930  1.00  0.00     0.123 A 
HETATM    5  N   UNL     1     -43.258  56.330 -59.244  1.00  0.00    -0.366 N 
HETATM    6  C   UNL     1     -43.060  57.576 -59.967  1.00  0.00     0.118 C 
HETATM    7  C   UNL     1     -42.030  58.486 -59.274  1.00  0.00     0.066 C 
HETATM    8  C   UNL     1     -42.079  58.507 -57.733  1.00  0.00     0.221 C 
HETATM    9  C   UNL     1     -43.197  55.168 -57.057  1.00  0.00     0.089 A 
HETATM   10  H   UNL     1     -43.797  55.621 -59.738  1.00  0.00     0.161 HD
ENDROOT
BRANCH   1  11
HETATM   11  C   UNL     1     -42.669  54.855 -54.554  1.00  0.00     0.276 C 
HETATM   12  N   UNL     1     -41.402  54.720 -54.021  1.00  0.00    -0.322 N 
HETATM   13  H   UNL     1     -40.670  55.130 -54.598  1.00  0.00     0.169 HD
HETATM   14  O   UNL     1     -43.711  54.406 -54.087  1.00  0.00    -0.266 OA
BRANCH  12  15
HETATM   15  C   UNL     1     -41.030  54.090 -52.821  1.00  0.00     0.035 A 
HETATM   16  C   UNL     1     -41.332  54.598 -51.554  1.00  0.00     0.039 A 
HETATM   17  C   UNL     1     -40.925  53.934 -50.382  1.00  0.00    -0.028 A 
HETATM   18  C   UNL     1     -40.224  52.728 -50.503  1.00  0.00     0.010 A 
HETATM   19  C   UNL     1     -39.916  52.213 -51.762  1.00  0.00     0.003 A 
HETATM   20  C   UNL     1     -40.312  52.894 -52.915  1.00  0.00     0.029 A 
BRANCH  17  21
HETATM   21  C   UNL     1     -41.276  54.527 -49.034  1.00  0.00     0.147 C 
HETATM   22  C   UNL     1     -40.296  54.086 -47.954  1.00  0.00     0.044 C 
BRANCH  21  23
HETATM   23  O   UNL     1     -41.282  55.952 -49.101  1.00  0.00    -0.391 OA
HETATM   24  H   UNL     1     -41.444  56.275 -48.200  1.00  0.00     0.210 HD
ENDBRANCH  21  23
ENDBRANCH  17  21
ENDBRANCH  12  15
ENDBRANCH   1  11
BRANCH   8  25
HETATM   25  C   UNL     1     -43.002  59.566 -57.171  1.00  0.00     0.409 C 
HETATM   26  F   UNL     1     -44.268  59.146 -56.998  1.00  0.00    -0.169 F 
HETATM   27  F   UNL     1     -42.565  60.041 -55.983  1.00  0.00    -0.169 F 
HETATM   28  F   UNL     1     -43.048  60.634 -58.009  1.00  0.00    -0.169 F 
ENDBRANCH   8  25
BRANCH   6  29
HETATM   29  C   UNL     1     -44.381  58.232 -60.334  1.00  0.00    -0.035 A 
HETATM   30  C   UNL     1     -44.473  59.564 -60.774  1.00  0.00     0.012 A 
HETATM   31  C   UNL     1     -45.711  60.142 -61.062  1.00  0.00     0.043 A 
HETATM   32  C   UNL     1     -46.869  59.397 -60.898  1.00  0.00     0.116 A 
HETATM   33  F   UNL     1     -48.059  59.957 -61.158  1.00  0.00    -0.206 F 
HETATM   34  C   UNL     1     -46.813  58.080 -60.461  1.00  0.00     0.043 A 
HETATM   35  C   UNL     1     -45.573  57.498 -60.187  1.00  0.00     0.012 A 
ENDBRANCH   6  29
TORSDOF 6
ENDMDL
