MODEL 1
REMARK VINA RESULT:      -8.1      0.000      0.000
REMARK  7 active torsions:
REMARK  status: ('A' for Active; 'I' for Inactive)
REMARK    1  A    between atoms: O_1  and  C_2 
REMARK    2  A    between atoms: C_2  and  C_3 
REMARK    3  A    between atoms: C_3  and  C_4 
REMARK    4  A    between atoms: C_4  and  N_5 
REMARK    5  A    between atoms: C_4  and  C_21 
REMARK       I    between atoms: N_5  and  C_6 
REMARK       I    between atoms: C_6  and  N_8 
REMARK    6  A    between atoms: N_8  and  C_9 
REMARK    7  A    between atoms: C_12  and  C_15 
ROOT
HETATM    1  N   UNL     1     -40.524  54.428 -52.279  1.00  0.00    -0.334 N 
HETATM    2  C   UNL     1     -41.556  54.705 -53.154  1.00  0.00     0.321 C 
HETATM    3  O   UNL     1     -42.683  54.250 -53.022  1.00  0.00    -0.247 OA
HETATM    4  N   UNL     1     -41.138  55.606 -54.111  1.00  0.00    -0.309 N 
HETATM    5  H   UNL     1     -39.611  54.388 -52.707  1.00  0.00     0.165 HD
HETATM    6  H   UNL     1     -40.319  56.138 -53.861  1.00  0.00     0.170 HD
ENDROOT
BRANCH   1   7
HETATM    7  C   UNL     1     -40.736  53.565 -51.124  1.00  0.00     0.121 C 
BRANCH   7   8
HETATM    8  C   UNL     1     -40.013  54.128 -49.892  1.00  0.00     0.056 C 
BRANCH   8   9
HETATM    9  C   UNL     1     -40.978  54.821 -48.937  1.00  0.00     0.166 C 
BRANCH   9  10
HETATM   10  O   UNL     1     -40.622  54.481 -47.602  1.00  0.00    -0.401 OA
HETATM   11  H   UNL     1     -40.213  55.270 -47.206  1.00  0.00     0.209 HD
ENDBRANCH   9  10
ENDBRANCH   8   9
ENDBRANCH   7   8
BRANCH   7  12
HETATM   12  C   UNL     1     -40.298  52.139 -51.421  1.00  0.00    -0.032 A 
HETATM   13  C   UNL     1     -40.248  51.195 -50.380  1.00  0.00     0.009 A 
HETATM   14  C   UNL     1     -39.827  49.884 -50.618  1.00  0.00     0.004 A 
HETATM   15  C   UNL     1     -39.459  49.495 -51.903  1.00  0.00     0.042 A 
HETATM   16  C   UNL     1     -39.519  50.420 -52.938  1.00  0.00     0.117 A 
HETATM   17  F   UNL     1     -39.172  50.047 -54.177  1.00  0.00    -0.206 F 
HETATM   18  C   UNL     1     -39.931  51.730 -52.712  1.00  0.00     0.051 A 
ENDBRANCH   7  12
ENDBRANCH   1   7
BRANCH   4  19
HETATM   19  C   UNL     1     -41.899  56.091 -55.192  1.00  0.00     0.036 A 
HETATM   20  C   UNL     1     -42.257  55.185 -56.194  1.00  0.00     0.030 A 
HETATM   21  C   UNL     1     -42.989  55.610 -57.312  1.00  0.00     0.014 A 
HETATM   22  C   UNL     1     -43.399  56.943 -57.442  1.00  0.00    -0.023 A 
HETATM   23  C   UNL     1     -43.068  57.834 -56.410  1.00  0.00     0.014 A 
HETATM   24  C   UNL     1     -42.323  57.413 -55.299  1.00  0.00     0.030 A 
BRANCH  22  25
HETATM   25  C   UNL     1     -44.142  57.375 -58.619  1.00  0.00     0.010 A 
HETATM   26  C   UNL     1     -45.362  58.088 -58.737  1.00  0.00     0.152 A 
HETATM   27  N   UNL     1     -45.738  58.280 -60.005  1.00  0.00    -0.187 NA
HETATM   28  N   UNL     1     -44.764  57.688 -60.711  1.00  0.00    -0.289 N 
HETATM   29  H   UNL     1     -44.830  57.697 -61.723  1.00  0.00     0.188 HD
HETATM   30  C   UNL     1     -43.790  57.133 -59.932  1.00  0.00     0.123 A 
ENDBRANCH  22  25
ENDBRANCH   4  19
TORSDOF 7
ENDMDL
MODEL 2
REMARK VINA RESULT:      -8.0      1.950      2.792
REMARK  7 active torsions:
REMARK  status: ('A' for Active; 'I' for Inactive)
REMARK    1  A    between atoms: O_1  and  C_2 
REMARK    2  A    between atoms: C_2  and  C_3 
REMARK    3  A    between atoms: C_3  and  C_4 
REMARK    4  A    between atoms: C_4  and  N_5 
REMARK    5  A    between atoms: C_4  and  C_21 
REMARK       I    between atoms: N_5  and  C_6 
REMARK       I    between atoms: C_6  and  N_8 
REMARK    6  A    between atoms: N_8  and  C_9 
REMARK    7  A    between atoms: C_12  and  C_15 
ROOT
HETATM    1  N   UNL     1     -41.421  54.570 -54.714  1.00  0.00    -0.334 N 
HETATM    2  C   UNL     1     -42.591  54.924 -55.357  1.00  0.00     0.321 C 
HETATM    3  O   UNL     1     -43.689  54.872 -54.821  1.00  0.00    -0.247 OA
HETATM    4  N   UNL     1     -42.312  55.402 -56.621  1.00  0.00    -0.309 N 
HETATM    5  H   UNL     1     -40.722  54.157 -55.313  1.00  0.00     0.165 HD
HETATM    6  H   UNL     1     -41.361  55.708 -56.756  1.00  0.00     0.170 HD
ENDROOT
BRANCH   1   7
HETATM    7  C   UNL     1     -41.439  54.114 -53.329  1.00  0.00     0.121 C 
BRANCH   7   8
HETATM    8  C   UNL     1     -40.828  55.178 -52.405  1.00  0.00     0.056 C 
BRANCH   8   9
HETATM    9  C   UNL     1     -41.900  55.951 -51.646  1.00  0.00     0.166 C 
BRANCH   9  10
HETATM   10  O   UNL     1     -43.176  55.442 -52.013  1.00  0.00    -0.401 OA
HETATM   11  H   UNL     1     -43.195  54.504 -51.754  1.00  0.00     0.209 HD
ENDBRANCH   9  10
ENDBRANCH   8   9
ENDBRANCH   7   8
BRANCH   7  12
HETATM   12  C   UNL     1     -40.725  52.779 -53.186  1.00  0.00    -0.032 A 
HETATM   13  C   UNL     1     -40.143  52.428 -51.955  1.00  0.00     0.009 A 
HETATM   14  C   UNL     1     -39.460  51.219 -51.800  1.00  0.00     0.004 A 
HETATM   15  C   UNL     1     -39.359  50.336 -52.873  1.00  0.00     0.042 A 
HETATM   16  C   UNL     1     -39.943  50.671 -54.088  1.00  0.00     0.117 A 
HETATM   17  F   UNL     1     -39.853  49.821 -55.119  1.00  0.00    -0.206 F 
HETATM   18  C   UNL     1     -40.620  51.876 -54.256  1.00  0.00     0.051 A 
ENDBRANCH   7  12
ENDBRANCH   1   7
BRANCH   4  19
HETATM   19  C   UNL     1     -43.252  55.816 -57.583  1.00  0.00     0.036 A 
HETATM   20  C   UNL     1     -43.840  57.074 -57.421  1.00  0.00     0.030 A 
HETATM   21  C   UNL     1     -44.805  57.533 -58.328  1.00  0.00     0.014 A 
HETATM   22  C   UNL     1     -45.187  56.757 -59.431  1.00  0.00    -0.023 A 
HETATM   23  C   UNL     1     -44.560  55.515 -59.605  1.00  0.00     0.014 A 
HETATM   24  C   UNL     1     -43.606  55.047 -58.690  1.00  0.00     0.030 A 
BRANCH  22  25
HETATM   25  C   UNL     1     -46.206  57.239 -60.355  1.00  0.00     0.010 A 
HETATM   26  C   UNL     1     -46.652  58.554 -60.642  1.00  0.00     0.152 A 
HETATM   27  N   UNL     1     -47.634  58.590 -61.546  1.00  0.00    -0.187 NA
HETATM   28  N   UNL     1     -47.830  57.298 -61.844  1.00  0.00    -0.289 N 
HETATM   29  H   UNL     1     -48.547  57.063 -62.522  1.00  0.00     0.188 HD
HETATM   30  C   UNL     1     -47.005  56.452 -61.160  1.00  0.00     0.123 A 
ENDBRANCH  22  25
ENDBRANCH   4  19
TORSDOF 7
ENDMDL
MODEL 3
REMARK VINA RESULT:      -7.9      1.853      2.659
REMARK  7 active torsions:
REMARK  status: ('A' for Active; 'I' for Inactive)
REMARK    1  A    between atoms: O_1  and  C_2 
REMARK    2  A    between atoms: C_2  and  C_3 
REMARK    3  A    between atoms: C_3  and  C_4 
REMARK    4  A    between atoms: C_4  and  N_5 
REMARK    5  A    between atoms: C_4  and  C_21 
REMARK       I    between atoms: N_5  and  C_6 
REMARK       I    between atoms: C_6  and  N_8 
REMARK    6  A    between atoms: N_8  and  C_9 
REMARK    7  A    between atoms: C_12  and  C_15 
ROOT
HETATM    1  N   UNL     1     -41.224  54.421 -54.387  1.00  0.00    -0.334 N 
HETATM    2  C   UNL     1     -42.371  54.790 -55.063  1.00  0.00     0.321 C 
HETATM    3  O   UNL     1     -43.496  54.572 -54.635  1.00  0.00    -0.247 OA
HETATM    4  N   UNL     1     -42.045  55.486 -56.208  1.00  0.00    -0.309 N 
HETATM    5  H   UNL     1     -40.451  54.164 -54.983  1.00  0.00     0.165 HD
HETATM    6  H   UNL     1     -41.116  55.879 -56.213  1.00  0.00     0.170 HD
ENDROOT
BRANCH   1   7
HETATM    7  C   UNL     1     -41.301  53.745 -53.098  1.00  0.00     0.121 C 
BRANCH   7   8
HETATM    8  C   UNL     1     -40.701  54.626 -51.992  1.00  0.00     0.056 C 
BRANCH   8   9
HETATM    9  C   UNL     1     -41.772  55.432 -51.266  1.00  0.00     0.166 C 
BRANCH   9  10
HETATM   10  O   UNL     1     -43.050  55.015 -51.731  1.00  0.00    -0.401 OA
HETATM   11  H   UNL     1     -43.512  54.615 -50.974  1.00  0.00     0.209 HD
ENDBRANCH   9  10
ENDBRANCH   8   9
ENDBRANCH   7   8
BRANCH   7  12
HETATM   12  C   UNL     1     -40.623  52.386 -53.154  1.00  0.00    -0.032 A 
HETATM   13  C   UNL     1     -40.568  51.685 -54.372  1.00  0.00     0.009 A 
HETATM   14  C   UNL     1     -39.972  50.423 -54.449  1.00  0.00     0.004 A 
HETATM   15  C   UNL     1     -39.413  49.848 -53.311  1.00  0.00     0.042 A 
HETATM   16  C   UNL     1     -39.454  50.541 -52.107  1.00  0.00     0.117 A 
HETATM   17  F   UNL     1     -38.912  49.992 -51.012  1.00  0.00    -0.206 F 
HETATM   18  C   UNL     1     -40.050  51.796 -52.017  1.00  0.00     0.051 A 
ENDBRANCH   7  12
ENDBRANCH   1   7
BRANCH   4  19
HETATM   19  C   UNL     1     -42.945  55.983 -57.169  1.00  0.00     0.036 A 
HETATM   20  C   UNL     1     -43.539  57.225 -56.925  1.00  0.00     0.030 A 
HETATM   21  C   UNL     1     -44.466  57.762 -57.828  1.00  0.00     0.014 A 
HETATM   22  C   UNL     1     -44.804  57.083 -59.006  1.00  0.00    -0.023 A 
HETATM   23  C   UNL     1     -44.172  55.857 -59.259  1.00  0.00     0.014 A 
HETATM   24  C   UNL     1     -43.255  55.311 -58.349  1.00  0.00     0.030 A 
BRANCH  22  25
HETATM   25  C   UNL     1     -45.786  57.643 -59.926  1.00  0.00     0.010 A 
HETATM   26  C   UNL     1     -46.097  58.990 -60.243  1.00  0.00     0.152 A 
HETATM   27  N   UNL     1     -47.088  59.105 -61.132  1.00  0.00    -0.187 NA
HETATM   28  N   UNL     1     -47.425  57.832 -61.389  1.00  0.00    -0.289 N 
HETATM   29  H   UNL     1     -48.175  57.656 -62.047  1.00  0.00     0.188 HD
HETATM   30  C   UNL     1     -46.679  56.923 -60.695  1.00  0.00     0.123 A 
ENDBRANCH  22  25
ENDBRANCH   4  19
TORSDOF 7
ENDMDL
MODEL 4
REMARK VINA RESULT:      -7.9      3.862      9.607
REMARK  7 active torsions:
REMARK  status: ('A' for Active; 'I' for Inactive)
REMARK    1  A    between atoms: O_1  and  C_2 
REMARK    2  A    between atoms: C_2  and  C_3 
REMARK    3  A    between atoms: C_3  and  C_4 
REMARK    4  A    between atoms: C_4  and  N_5 
REMARK    5  A    between atoms: C_4  and  C_21 
REMARK       I    between atoms: N_5  and  C_6 
REMARK       I    between atoms: C_6  and  N_8 
REMARK    6  A    between atoms: N_8  and  C_9 
REMARK    7  A    between atoms: C_12  and  C_15 
ROOT
HETATM    1  N   UNL     1     -42.474  55.795 -57.858  1.00  0.00    -0.334 N 
HETATM    2  C   UNL     1     -42.649  55.798 -56.489  1.00  0.00     0.321 C 
HETATM    3  O   UNL     1     -43.654  56.236 -55.945  1.00  0.00    -0.247 OA
HETATM    4  N   UNL     1     -41.583  55.177 -55.872  1.00  0.00    -0.309 N 
HETATM    5  H   UNL     1     -41.519  55.921 -58.159  1.00  0.00     0.165 HD
HETATM    6  H   UNL     1     -41.044  54.571 -56.471  1.00  0.00     0.170 HD
ENDROOT
BRANCH   1   7
HETATM    7  C   UNL     1     -43.506  56.320 -58.744  1.00  0.00     0.121 C 
BRANCH   7   8
HETATM    8  C   UNL     1     -43.682  55.405 -59.965  1.00  0.00     0.056 C 
BRANCH   8   9
HETATM    9  C   UNL     1     -45.033  54.700 -59.955  1.00  0.00     0.166 C 
BRANCH   9  10
HETATM   10  O   UNL     1     -44.833  53.335 -59.609  1.00  0.00    -0.401 OA
HETATM   11  H   UNL     1     -44.128  52.994 -60.187  1.00  0.00     0.209 HD
ENDBRANCH   9  10
ENDBRANCH   8   9
ENDBRANCH   7   8
BRANCH   7  12
HETATM   12  C   UNL     1     -43.192  57.748 -59.161  1.00  0.00    -0.032 A 
HETATM   13  C   UNL     1     -43.684  58.820 -58.396  1.00  0.00     0.009 A 
HETATM   14  C   UNL     1     -43.433  60.144 -58.768  1.00  0.00     0.004 A 
HETATM   15  C   UNL     1     -42.675  60.414 -59.905  1.00  0.00     0.042 A 
HETATM   16  C   UNL     1     -42.176  59.359 -60.658  1.00  0.00     0.117 A 
HETATM   17  F   UNL     1     -41.442  59.615 -61.748  1.00  0.00    -0.206 F 
HETATM   18  C   UNL     1     -42.426  58.036 -60.301  1.00  0.00     0.051 A 
ENDBRANCH   7  12
ENDBRANCH   1   7
BRANCH   4  19
HETATM   19  C   UNL     1     -41.391  55.028 -54.485  1.00  0.00     0.036 A 
HETATM   20  C   UNL     1     -41.373  53.731 -53.965  1.00  0.00     0.030 A 
HETATM   21  C   UNL     1     -41.214  53.516 -52.589  1.00  0.00     0.014 A 
HETATM   22  C   UNL     1     -41.047  54.590 -51.705  1.00  0.00    -0.023 A 
HETATM   23  C   UNL     1     -41.026  55.885 -52.244  1.00  0.00     0.014 A 
HETATM   24  C   UNL     1     -41.200  56.102 -53.619  1.00  0.00     0.030 A 
BRANCH  22  25
HETATM   25  C   UNL     1     -40.904  54.353 -50.274  1.00  0.00     0.010 A 
HETATM   26  C   UNL     1     -41.167  55.193 -49.163  1.00  0.00     0.152 A 
HETATM   27  N   UNL     1     -40.887  54.617 -47.990  1.00  0.00    -0.187 NA
HETATM   28  N   UNL     1     -40.437  53.404 -48.339  1.00  0.00    -0.289 N 
HETATM   29  H   UNL     1     -40.150  52.767 -47.605  1.00  0.00     0.188 HD
HETATM   30  C   UNL     1     -40.426  53.197 -49.689  1.00  0.00     0.123 A 
ENDBRANCH  22  25
ENDBRANCH   4  19
TORSDOF 7
ENDMDL
MODEL 5
REMARK VINA RESULT:      -7.7      3.699      9.562
REMARK  7 active torsions:
REMARK  status: ('A' for Active; 'I' for Inactive)
REMARK    1  A    between atoms: O_1  and  C_2 
REMARK    2  A    between atoms: C_2  and  C_3 
REMARK    3  A    between atoms: C_3  and  C_4 
REMARK    4  A    between atoms: C_4  and  N_5 
REMARK    5  A    between atoms: C_4  and  C_21 
REMARK       I    between atoms: N_5  and  C_6 
REMARK       I    between atoms: C_6  and  N_8 
REMARK    6  A    between atoms: N_8  and  C_9 
REMARK    7  A    between atoms: C_12  and  C_15 
ROOT
HETATM    1  N   UNL     1     -42.199  57.327 -56.848  1.00  0.00    -0.334 N 
HETATM    2  C   UNL     1     -42.135  56.038 -56.357  1.00  0.00     0.321 C 
HETATM    3  O   UNL     1     -42.778  55.111 -56.828  1.00  0.00    -0.247 OA
HETATM    4  N   UNL     1     -41.203  55.962 -55.343  1.00  0.00    -0.309 N 
HETATM    5  H   UNL     1     -42.090  58.048 -56.151  1.00  0.00     0.165 HD
HETATM    6  H   UNL     1     -40.527  56.711 -55.334  1.00  0.00     0.170 HD
ENDROOT
BRANCH   1   7
HETATM    7  C   UNL     1     -43.051  57.650 -57.986  1.00  0.00     0.121 C 
BRANCH   7   8
HETATM    8  C   UNL     1     -42.223  58.279 -59.116  1.00  0.00     0.056 C 
BRANCH   8   9
HETATM    9  C   UNL     1     -41.937  57.282 -60.232  1.00  0.00     0.166 C 
BRANCH   9  10
HETATM   10  O   UNL     1     -42.190  55.969 -59.747  1.00  0.00    -0.401 OA
HETATM   11  H   UNL     1     -41.988  55.973 -58.795  1.00  0.00     0.209 HD
ENDBRANCH   9  10
ENDBRANCH   8   9
ENDBRANCH   7   8
BRANCH   7  12
HETATM   12  C   UNL     1     -44.198  58.556 -57.568  1.00  0.00    -0.032 A 
HETATM   13  C   UNL     1     -45.108  59.020 -58.534  1.00  0.00     0.009 A 
HETATM   14  C   UNL     1     -46.157  59.874 -58.184  1.00  0.00     0.004 A 
HETATM   15  C   UNL     1     -46.320  60.266 -56.858  1.00  0.00     0.042 A 
HETATM   16  C   UNL     1     -45.432  59.801 -55.896  1.00  0.00     0.117 A 
HETATM   17  F   UNL     1     -45.589  60.173 -54.619  1.00  0.00    -0.206 F 
HETATM   18  C   UNL     1     -44.378  58.956 -56.235  1.00  0.00     0.051 A 
ENDBRANCH   7  12
ENDBRANCH   1   7
BRANCH   4  19
HETATM   19  C   UNL     1     -40.894  54.823 -54.575  1.00  0.00     0.036 A 
HETATM   20  C   UNL     1     -40.205  53.782 -55.202  1.00  0.00     0.030 A 
HETATM   21  C   UNL     1     -39.892  52.609 -54.502  1.00  0.00     0.014 A 
HETATM   22  C   UNL     1     -40.241  52.459 -53.152  1.00  0.00    -0.023 A 
HETATM   23  C   UNL     1     -40.896  53.527 -52.523  1.00  0.00     0.014 A 
HETATM   24  C   UNL     1     -41.223  54.695 -53.227  1.00  0.00     0.030 A 
BRANCH  22  25
HETATM   25  C   UNL     1     -39.928  51.225 -52.442  1.00  0.00     0.010 A 
HETATM   26  C   UNL     1     -39.711  50.978 -51.063  1.00  0.00     0.152 A 
HETATM   27  N   UNL     1     -39.423  49.701 -50.797  1.00  0.00    -0.187 NA
HETATM   28  N   UNL     1     -39.449  49.118 -52.004  1.00  0.00    -0.289 N 
HETATM   29  H   UNL     1     -39.252  48.125 -52.064  1.00  0.00     0.188 HD
HETATM   30  C   UNL     1     -39.744  49.984 -53.018  1.00  0.00     0.123 A 
ENDBRANCH  22  25
ENDBRANCH   4  19
TORSDOF 7
ENDMDL
MODEL 6
REMARK VINA RESULT:      -7.6      4.508      8.901
REMARK  7 active torsions:
REMARK  status: ('A' for Active; 'I' for Inactive)
REMARK    1  A    between atoms: O_1  and  C_2 
REMARK    2  A    between atoms: C_2  and  C_3 
REMARK    3  A    between atoms: C_3  and  C_4 
REMARK    4  A    between atoms: C_4  and  N_5 
REMARK    5  A    between atoms: C_4  and  C_21 
REMARK       I    between atoms: N_5  and  C_6 
REMARK       I    between atoms: C_6  and  N_8 
REMARK    6  A    between atoms: N_8  and  C_9 
REMARK    7  A    between atoms: C_12  and  C_15 
ROOT
HETATM    1  N   UNL     1     -42.662  58.588 -53.928  1.00  0.00    -0.334 N 
HETATM    2  C   UNL     1     -42.662  57.246 -53.599  1.00  0.00     0.321 C 
HETATM    3  O   UNL     1     -43.657  56.657 -53.201  1.00  0.00    -0.247 OA
HETATM    4  N   UNL     1     -41.427  56.693 -53.863  1.00  0.00    -0.309 N 
HETATM    5  H   UNL     1     -41.795  59.067 -53.734  1.00  0.00     0.165 HD
HETATM    6  H   UNL     1     -40.858  57.218 -54.508  1.00  0.00     0.170 HD
ENDROOT
BRANCH   1   7
HETATM    7  C   UNL     1     -43.879  59.383 -53.821  1.00  0.00     0.121 C 
BRANCH   7   8
HETATM    8  C   UNL     1     -43.978  60.374 -54.989  1.00  0.00     0.056 C 
BRANCH   8   9
HETATM    9  C   UNL     1     -42.983  60.046 -56.096  1.00  0.00     0.166 C 
BRANCH   9  10
HETATM   10  O   UNL     1     -41.726  60.623 -55.766  1.00  0.00    -0.401 OA
HETATM   11  H   UNL     1     -41.908  61.441 -55.273  1.00  0.00     0.209 HD
ENDBRANCH   9  10
ENDBRANCH   8   9
ENDBRANCH   7   8
BRANCH   7  12
HETATM   12  C   UNL     1     -43.948  60.096 -52.480  1.00  0.00    -0.032 A 
HETATM   13  C   UNL     1     -43.113  61.200 -52.235  1.00  0.00     0.009 A 
HETATM   14  C   UNL     1     -43.137  61.861 -51.003  1.00  0.00     0.004 A 
HETATM   15  C   UNL     1     -44.005  61.433 -50.002  1.00  0.00     0.042 A 
HETATM   16  C   UNL     1     -44.842  60.351 -50.243  1.00  0.00     0.117 A 
HETATM   17  F   UNL     1     -45.682  59.941 -49.284  1.00  0.00    -0.206 F 
HETATM   18  C   UNL     1     -44.822  59.680 -51.464  1.00  0.00     0.051 A 
ENDBRANCH   7  12
ENDBRANCH   1   7
BRANCH   4  19
HETATM   19  C   UNL     1     -41.037  55.362 -53.616  1.00  0.00     0.036 A 
HETATM   20  C   UNL     1     -40.549  54.616 -54.692  1.00  0.00     0.030 A 
HETATM   21  C   UNL     1     -40.171  53.277 -54.519  1.00  0.00     0.014 A 
HETATM   22  C   UNL     1     -40.251  52.661 -53.263  1.00  0.00    -0.023 A 
HETATM   23  C   UNL     1     -40.704  53.432 -52.183  1.00  0.00     0.014 A 
HETATM   24  C   UNL     1     -41.096  54.767 -52.358  1.00  0.00     0.030 A 
BRANCH  22  25
HETATM   25  C   UNL     1     -39.875  51.262 -53.103  1.00  0.00     0.010 A 
HETATM   26  C   UNL     1     -39.704  50.231 -54.061  1.00  0.00     0.152 A 
HETATM   27  N   UNL     1     -39.371  49.057 -53.516  1.00  0.00    -0.187 NA
HETATM   28  N   UNL     1     -39.331  49.324 -52.203  1.00  0.00    -0.289 N 
HETATM   29  H   UNL     1     -39.098  48.571 -51.565  1.00  0.00     0.188 HD
HETATM   30  C   UNL     1     -39.624  50.624 -51.904  1.00  0.00     0.123 A 
ENDBRANCH  22  25
ENDBRANCH   4  19
TORSDOF 7
ENDMDL
MODEL 7
REMARK VINA RESULT:      -7.6      2.411      3.281
REMARK  7 active torsions:
REMARK  status: ('A' for Active; 'I' for Inactive)
REMARK    1  A    between atoms: O_1  and  C_2 
REMARK    2  A    between atoms: C_2  and  C_3 
REMARK    3  A    between atoms: C_3  and  C_4 
REMARK    4  A    between atoms: C_4  and  N_5 
REMARK    5  A    between atoms: C_4  and  C_21 
REMARK       I    between atoms: N_5  and  C_6 
REMARK       I    between atoms: C_6  and  N_8 
REMARK    6  A    between atoms: N_8  and  C_9 
REMARK    7  A    between atoms: C_12  and  C_15 
ROOT
HETATM    1  N   UNL     1     -41.352  57.071 -52.582  1.00  0.00    -0.334 N 
HETATM    2  C   UNL     1     -42.345  56.787 -53.499  1.00  0.00     0.321 C 
HETATM    3  O   UNL     1     -43.476  56.454 -53.176  1.00  0.00    -0.247 OA
HETATM    4  N   UNL     1     -41.887  57.013 -54.780  1.00  0.00    -0.309 N 
HETATM    5  H   UNL     1     -40.421  56.823 -52.881  1.00  0.00     0.165 HD
HETATM    6  H   UNL     1     -41.080  57.616 -54.840  1.00  0.00     0.170 HD
ENDROOT
BRANCH   1   7
HETATM    7  C   UNL     1     -41.614  56.992 -51.150  1.00  0.00     0.121 C 
BRANCH   7   8
HETATM    8  C   UNL     1     -40.934  58.157 -50.414  1.00  0.00     0.056 C 
BRANCH   8   9
HETATM    9  C   UNL     1     -41.660  59.476 -50.650  1.00  0.00     0.166 C 
BRANCH   9  10
HETATM   10  O   UNL     1     -43.046  59.210 -50.825  1.00  0.00    -0.401 OA
HETATM   11  H   UNL     1     -43.355  59.776 -51.553  1.00  0.00     0.209 HD
ENDBRANCH   9  10
ENDBRANCH   8   9
ENDBRANCH   7   8
BRANCH   7  12
HETATM   12  C   UNL     1     -41.175  55.649 -50.588  1.00  0.00    -0.032 A 
HETATM   13  C   UNL     1     -41.208  55.430 -49.200  1.00  0.00     0.009 A 
HETATM   14  C   UNL     1     -40.788  54.215 -48.653  1.00  0.00     0.004 A 
HETATM   15  C   UNL     1     -40.340  53.195 -49.489  1.00  0.00     0.042 A 
HETATM   16  C   UNL     1     -40.317  53.401 -50.862  1.00  0.00     0.117 A 
HETATM   17  F   UNL     1     -39.892  52.420 -51.669  1.00  0.00    -0.206 F 
HETATM   18  C   UNL     1     -40.727  54.610 -51.418  1.00  0.00     0.051 A 
ENDBRANCH   7  12
ENDBRANCH   1   7
BRANCH   4  19
HETATM   19  C   UNL     1     -42.600  56.793 -55.974  1.00  0.00     0.036 A 
HETATM   20  C   UNL     1     -42.540  55.518 -56.543  1.00  0.00     0.030 A 
HETATM   21  C   UNL     1     -43.203  55.242 -57.746  1.00  0.00     0.014 A 
HETATM   22  C   UNL     1     -43.960  56.227 -58.396  1.00  0.00    -0.023 A 
HETATM   23  C   UNL     1     -44.045  57.490 -57.795  1.00  0.00     0.014 A 
HETATM   24  C   UNL     1     -43.369  57.772 -56.598  1.00  0.00     0.030 A 
BRANCH  22  25
HETATM   25  C   UNL     1     -44.627  55.931 -59.658  1.00  0.00     0.010 A 
HETATM   26  C   UNL     1     -44.386  54.918 -60.621  1.00  0.00     0.152 A 
HETATM   27  N   UNL     1     -45.207  54.987 -61.672  1.00  0.00    -0.187 NA
HETATM   28  N   UNL     1     -45.980  56.048 -61.396  1.00  0.00    -0.289 N 
HETATM   29  H   UNL     1     -46.695  56.310 -62.064  1.00  0.00     0.188 HD
HETATM   30  C   UNL     1     -45.673  56.646 -60.207  1.00  0.00     0.123 A 
ENDBRANCH  22  25
ENDBRANCH   4  19
TORSDOF 7
ENDMDL
MODEL 8
REMARK VINA RESULT:      -7.4      3.873      9.894
REMARK  7 active torsions:
REMARK  status: ('A' for Active; 'I' for Inactive)
REMARK    1  A    between atoms: O_1  and  C_2 
REMARK    2  A    between atoms: C_2  and  C_3 
REMARK    3  A    between atoms: C_3  and  C_4 
REMARK    4  A    between atoms: C_4  and  N_5 
REMARK    5  A    between atoms: C_4  and  C_21 
REMARK       I    between atoms: N_5  and  C_6 
REMARK       I    between atoms: C_6  and  N_8 
REMARK    6  A    between atoms: N_8  and  C_9 
REMARK    7  A    between atoms: C_12  and  C_15 
ROOT
HETATM    1  N   UNL     1     -42.123  57.434 -57.177  1.00  0.00    -0.334 N 
HETATM    2  C   UNL     1     -42.294  56.353 -56.335  1.00  0.00     0.321 C 
HETATM    3  O   UNL     1     -43.374  55.805 -56.163  1.00  0.00    -0.247 OA
HETATM    4  N   UNL     1     -41.080  55.963 -55.809  1.00  0.00    -0.309 N 
HETATM    5  H   UNL     1     -41.420  58.092 -56.876  1.00  0.00     0.165 HD
HETATM    6  H   UNL     1     -40.275  56.280 -56.326  1.00  0.00     0.170 HD
ENDROOT
BRANCH   1   7
HETATM    7  C   UNL     1     -43.247  57.983 -57.925  1.00  0.00     0.121 C 
BRANCH   7   8
HETATM    8  C   UNL     1     -43.443  57.215 -59.240  1.00  0.00     0.056 C 
BRANCH   8   9
HETATM    9  C   UNL     1     -42.309  57.476 -60.224  1.00  0.00     0.166 C 
BRANCH   9  10
HETATM   10  O   UNL     1     -41.423  56.364 -60.203  1.00  0.00    -0.401 OA
HETATM   11  H   UNL     1     -41.265  56.141 -59.269  1.00  0.00     0.209 HD
ENDBRANCH   9  10
ENDBRANCH   8   9
ENDBRANCH   7   8
BRANCH   7  12
HETATM   12  C   UNL     1     -43.061  59.472 -58.173  1.00  0.00    -0.032 A 
HETATM   13  C   UNL     1     -44.138  60.237 -58.653  1.00  0.00     0.009 A 
HETATM   14  C   UNL     1     -43.991  61.602 -58.914  1.00  0.00     0.004 A 
HETATM   15  C   UNL     1     -42.766  62.225 -58.687  1.00  0.00     0.042 A 
HETATM   16  C   UNL     1     -41.701  61.476 -58.200  1.00  0.00     0.117 A 
HETATM   17  F   UNL     1     -40.524  62.073 -57.975  1.00  0.00    -0.206 F 
HETATM   18  C   UNL     1     -41.835  60.114 -57.944  1.00  0.00     0.051 A 
ENDBRANCH   7  12
ENDBRANCH   1   7
BRANCH   4  19
HETATM   19  C   UNL     1     -40.865  54.927 -54.880  1.00  0.00     0.036 A 
HETATM   20  C   UNL     1     -41.013  55.227 -53.523  1.00  0.00     0.030 A 
HETATM   21  C   UNL     1     -40.784  54.248 -52.547  1.00  0.00     0.014 A 
HETATM   22  C   UNL     1     -40.426  52.941 -52.904  1.00  0.00    -0.023 A 
HETATM   23  C   UNL     1     -40.320  52.642 -54.270  1.00  0.00     0.014 A 
HETATM   24  C   UNL     1     -40.534  53.625 -55.248  1.00  0.00     0.030 A 
BRANCH  22  25
HETATM   25  C   UNL     1     -40.171  51.939 -51.877  1.00  0.00     0.010 A 
HETATM   26  C   UNL     1     -39.572  50.656 -51.961  1.00  0.00     0.152 A 
HETATM   27  N   UNL     1     -39.535  50.016 -50.788  1.00  0.00    -0.187 NA
HETATM   28  N   UNL     1     -40.114  50.882 -49.943  1.00  0.00    -0.289 N 
HETATM   29  H   UNL     1     -40.209  50.614 -48.970  1.00  0.00     0.188 HD
HETATM   30  C   UNL     1     -40.511  52.042 -50.543  1.00  0.00     0.123 A 
ENDBRANCH  22  25
ENDBRANCH   4  19
TORSDOF 7
ENDMDL
MODEL 9
REMARK VINA RESULT:      -7.3      4.762      5.599
REMARK  7 active torsions:
REMARK  status: ('A' for Active; 'I' for Inactive)
REMARK    1  A    between atoms: O_1  and  C_2 
REMARK    2  A    between atoms: C_2  and  C_3 
REMARK    3  A    between atoms: C_3  and  C_4 
REMARK    4  A    between atoms: C_4  and  N_5 
REMARK    5  A    between atoms: C_4  and  C_21 
REMARK       I    between atoms: N_5  and  C_6 
REMARK       I    between atoms: C_6  and  N_8 
REMARK    6  A    between atoms: N_8  and  C_9 
REMARK    7  A    between atoms: C_12  and  C_15 
ROOT
HETATM    1  N   UNL     1     -41.301  56.015 -51.427  1.00  0.00    -0.334 N 
HETATM    2  C   UNL     1     -42.525  56.638 -51.287  1.00  0.00     0.321 C 
HETATM    3  O   UNL     1     -43.493  56.097 -50.769  1.00  0.00    -0.247 OA
HETATM    4  N   UNL     1     -42.450  57.940 -51.734  1.00  0.00    -0.309 N 
HETATM    5  H   UNL     1     -40.788  56.281 -52.255  1.00  0.00     0.165 HD
HETATM    6  H   UNL     1     -41.516  58.317 -51.783  1.00  0.00     0.170 HD
ENDROOT
BRANCH   1   7
HETATM    7  C   UNL     1     -41.095  54.654 -50.947  1.00  0.00     0.121 C 
BRANCH   7   8
HETATM    8  C   UNL     1     -40.108  54.642 -49.771  1.00  0.00     0.056 C 
BRANCH   8   9
HETATM    9  C   UNL     1     -40.635  53.825 -48.597  1.00  0.00     0.166 C 
BRANCH   9  10
HETATM   10  O   UNL     1     -40.704  54.664 -47.451  1.00  0.00    -0.401 OA
HETATM   11  H   UNL     1     -39.945  54.439 -46.886  1.00  0.00     0.209 HD
ENDBRANCH   9  10
ENDBRANCH   8   9
ENDBRANCH   7   8
BRANCH   7  12
HETATM   12  C   UNL     1     -40.629  53.744 -52.073  1.00  0.00    -0.032 A 
HETATM   13  C   UNL     1     -40.158  52.453 -51.775  1.00  0.00     0.009 A 
HETATM   14  C   UNL     1     -39.700  51.604 -52.785  1.00  0.00     0.004 A 
HETATM   15  C   UNL     1     -39.717  52.029 -54.111  1.00  0.00     0.042 A 
HETATM   16  C   UNL     1     -40.193  53.298 -54.413  1.00  0.00     0.117 A 
HETATM   17  F   UNL     1     -40.216  53.708 -55.688  1.00  0.00    -0.206 F 
HETATM   18  C   UNL     1     -40.645  54.156 -53.414  1.00  0.00     0.051 A 
ENDBRANCH   7  12
ENDBRANCH   1   7
BRANCH   4  19
HETATM   19  C   UNL     1     -43.508  58.868 -51.787  1.00  0.00     0.036 A 
HETATM   20  C   UNL     1     -43.543  59.873 -50.816  1.00  0.00     0.030 A 
HETATM   21  C   UNL     1     -44.585  60.810 -50.796  1.00  0.00     0.014 A 
HETATM   22  C   UNL     1     -45.603  60.778 -51.759  1.00  0.00    -0.023 A 
HETATM   23  C   UNL     1     -45.535  59.790 -52.752  1.00  0.00     0.014 A 
HETATM   24  C   UNL     1     -44.501  58.843 -52.764  1.00  0.00     0.030 A 
BRANCH  22  25
HETATM   25  C   UNL     1     -46.692  61.746 -51.714  1.00  0.00     0.010 A 
HETATM   26  C   UNL     1     -47.770  61.973 -52.607  1.00  0.00     0.152 A 
HETATM   27  N   UNL     1     -48.562  62.980 -52.229  1.00  0.00    -0.187 NA
HETATM   28  N   UNL     1     -47.996  63.412 -51.093  1.00  0.00    -0.289 N 
HETATM   29  H   UNL     1     -48.424  64.193 -50.608  1.00  0.00     0.188 HD
HETATM   30  C   UNL     1     -46.879  62.710 -50.743  1.00  0.00     0.123 A 
ENDBRANCH  22  25
ENDBRANCH   4  19
TORSDOF 7
ENDMDL
MODEL 10
REMARK VINA RESULT:      -7.3      3.937      9.368
REMARK  7 active torsions:
REMARK  status: ('A' for Active; 'I' for Inactive)
REMARK    1  A    between atoms: O_1  and  C_2 
REMARK    2  A    between atoms: C_2  and  C_3 
REMARK    3  A    between atoms: C_3  and  C_4 
REMARK    4  A    between atoms: C_4  and  N_5 
REMARK    5  A    between atoms: C_4  and  C_21 
REMARK       I    between atoms: N_5  and  C_6 
REMARK       I    between atoms: C_6  and  N_8 
REMARK    6  A    between atoms: N_8  and  C_9 
REMARK    7  A    between atoms: C_12  and  C_15 
ROOT
HETATM    1  N   UNL     1     -44.687  57.443 -56.586  1.00  0.00    -0.334 N 
HETATM    2  C   UNL     1     -43.686  57.018 -55.734  1.00  0.00     0.321 C 
HETATM    3  O   UNL     1     -42.503  57.017 -56.043  1.00  0.00    -0.247 OA
HETATM    4  N   UNL     1     -44.217  56.689 -54.505  1.00  0.00    -0.309 N 
HETATM    5  H   UNL     1     -45.563  56.953 -56.482  1.00  0.00     0.165 HD
HETATM    6  H   UNL     1     -45.125  57.086 -54.317  1.00  0.00     0.170 HD
ENDROOT
BRANCH   1   7
HETATM    7  C   UNL     1     -44.372  57.930 -57.924  1.00  0.00     0.121 C 
BRANCH   7   8
HETATM    8  C   UNL     1     -45.113  59.245 -58.205  1.00  0.00     0.056 C 
BRANCH   8   9
HETATM    9  C   UNL     1     -46.020  59.644 -57.047  1.00  0.00     0.166 C 
BRANCH   9  10
HETATM   10  O   UNL     1     -47.242  58.924 -57.156  1.00  0.00    -0.401 OA
HETATM   11  H   UNL     1     -47.458  58.870 -58.103  1.00  0.00     0.209 HD
ENDBRANCH   9  10
ENDBRANCH   8   9
ENDBRANCH   7   8
BRANCH   7  12
HETATM   12  C   UNL     1     -44.689  56.877 -58.975  1.00  0.00    -0.032 A 
HETATM   13  C   UNL     1     -43.787  55.822 -59.198  1.00  0.00     0.009 A 
HETATM   14  C   UNL     1     -44.040  54.854 -60.174  1.00  0.00     0.004 A 
HETATM   15  C   UNL     1     -45.205  54.921 -60.933  1.00  0.00     0.042 A 
HETATM   16  C   UNL     1     -46.106  55.954 -60.708  1.00  0.00     0.117 A 
HETATM   17  F   UNL     1     -47.231  56.017 -61.433  1.00  0.00    -0.206 F 
HETATM   18  C   UNL     1     -45.862  56.928 -59.744  1.00  0.00     0.051 A 
ENDBRANCH   7  12
ENDBRANCH   1   7
BRANCH   4  19
HETATM   19  C   UNL     1     -43.511  56.176 -53.399  1.00  0.00     0.036 A 
HETATM   20  C   UNL     1     -43.347  54.791 -53.317  1.00  0.00     0.030 A 
HETATM   21  C   UNL     1     -42.679  54.215 -52.227  1.00  0.00     0.014 A 
HETATM   22  C   UNL     1     -42.141  55.011 -51.207  1.00  0.00    -0.023 A 
HETATM   23  C   UNL     1     -42.278  56.402 -51.322  1.00  0.00     0.014 A 
HETATM   24  C   UNL     1     -42.959  56.979 -52.404  1.00  0.00     0.030 A 
BRANCH  22  25
HETATM   25  C   UNL     1     -41.468  54.398 -50.069  1.00  0.00     0.010 A 
HETATM   26  C   UNL     1     -41.184  54.904 -48.776  1.00  0.00     0.152 A 
HETATM   27  N   UNL     1     -40.522  54.036 -48.005  1.00  0.00    -0.187 NA
HETATM   28  N   UNL     1     -40.371  52.967 -48.800  1.00  0.00    -0.289 N 
HETATM   29  H   UNL     1     -39.883  52.158 -48.432  1.00  0.00     0.188 HD
HETATM   30  C   UNL     1     -40.917  53.132 -50.041  1.00  0.00     0.123 A 
ENDBRANCH  22  25
ENDBRANCH   4  19
TORSDOF 7
ENDMDL
