MODEL 1
REMARK VINA RESULT:      -8.3      0.000      0.000
REMARK  2 active torsions:
REMARK  status: ('A' for Active; 'I' for Inactive)
REMARK    1  A    between atoms: C_11  and  N_12 
REMARK    2  A    between atoms: N_12  and  C_13 
ROOT
HETATM    1  C   UNL     1     -42.390  58.092 -57.996  1.00  0.00     0.010 C 
HETATM    2  C   UNL     1     -43.531  57.092 -57.775  1.00  0.00    -0.014 C 
HETATM    3  C   UNL     1     -44.474  57.545 -56.641  1.00  0.00     0.051 C 
HETATM    4  C   UNL     1     -43.903  57.207 -55.296  1.00  0.00    -0.008 A 
HETATM    5  C   UNL     1     -42.883  56.305 -55.046  1.00  0.00    -0.028 A 
HETATM    6  C   UNL     1     -42.543  56.254 -53.630  1.00  0.00     0.053 A 
HETATM    7  C   UNL     1     -43.397  57.083 -52.907  1.00  0.00     0.114 A 
HETATM    8  N   UNL     1     -43.403  57.276 -51.580  1.00  0.00    -0.234 NA
HETATM    9  C   UNL     1     -42.459  56.573 -50.962  1.00  0.00     0.236 A 
HETATM   10  N   UNL     1     -41.557  55.760 -51.522  1.00  0.00    -0.223 NA
HETATM   11  C   UNL     1     -41.553  55.576 -52.867  1.00  0.00     0.143 A 
HETATM   12  S   UNL     1     -44.516  57.916 -53.882  1.00  0.00    -0.073 SA
HETATM   13  C   UNL     1     -42.229  55.554 -56.173  1.00  0.00     0.041 C 
HETATM   14  C   UNL     1     -43.001  55.672 -57.497  1.00  0.00     0.009 C 
ENDROOT
BRANCH  11  15
HETATM   15  N   UNL     1     -40.601  54.730 -53.456  1.00  0.00    -0.340 N 
HETATM   16  H   UNL     1     -39.859  55.219 -53.926  1.00  0.00     0.167 HD
BRANCH  15  17
HETATM   17  C   UNL     1     -40.383  53.340 -53.379  1.00  0.00     0.036 A 
HETATM   18  C   UNL     1     -40.121  52.781 -52.114  1.00  0.00     0.069 A 
HETATM   19  C   UNL     1     -39.888  51.424 -52.017  1.00  0.00     0.107 A 
HETATM   20  C   UNL     1     -39.893  50.610 -53.120  1.00  0.00     0.105 A 
HETATM   21  O   UNL     1     -39.635  50.742 -50.867  1.00  0.00    -0.323 OA
HETATM   22  O   UNL     1     -39.646  49.310 -52.809  1.00  0.00    -0.323 OA
HETATM   23  C   UNL     1     -40.125  51.110 -54.379  1.00  0.00     0.042 A 
HETATM   24  C   UNL     1     -39.485  49.401 -51.379  1.00  0.00     0.352 A 
HETATM   25  C   UNL     1     -40.364  52.486 -54.502  1.00  0.00     0.032 A 
ENDBRANCH  15  17
ENDBRANCH  11  15
TORSDOF 2
ENDMDL
MODEL 2
REMARK VINA RESULT:      -8.3      3.546      6.625
REMARK  2 active torsions:
REMARK  status: ('A' for Active; 'I' for Inactive)
REMARK    1  A    between atoms: C_11  and  N_12 
REMARK    2  A    between atoms: N_12  and  C_13 
ROOT
HETATM    1  C   UNL     1     -40.452  49.944 -53.852  1.00  0.00     0.010 C 
HETATM    2  C   UNL     1     -39.398  51.055 -53.801  1.00  0.00    -0.014 C 
HETATM    3  C   UNL     1     -39.155  51.546 -52.359  1.00  0.00     0.051 C 
HETATM    4  C   UNL     1     -40.216  52.518 -51.933  1.00  0.00    -0.008 A 
HETATM    5  C   UNL     1     -41.085  53.195 -52.771  1.00  0.00    -0.028 A 
HETATM    6  C   UNL     1     -42.019  54.025 -52.021  1.00  0.00     0.053 A 
HETATM    7  C   UNL     1     -41.726  53.960 -50.662  1.00  0.00     0.114 A 
HETATM    8  N   UNL     1     -42.353  54.606 -49.668  1.00  0.00    -0.234 NA
HETATM    9  C   UNL     1     -43.354  55.362 -50.109  1.00  0.00     0.236 A 
HETATM   10  N   UNL     1     -43.766  55.504 -51.374  1.00  0.00    -0.223 NA
HETATM   11  C   UNL     1     -43.130  54.841 -52.372  1.00  0.00     0.143 A 
HETATM   12  S   UNL     1     -40.429  52.919 -50.299  1.00  0.00    -0.073 SA
HETATM   13  C   UNL     1     -41.032  52.992 -54.260  1.00  0.00     0.041 C 
HETATM   14  C   UNL     1     -39.771  52.239 -54.715  1.00  0.00     0.009 C 
ENDROOT
BRANCH  11  15
HETATM   15  N   UNL     1     -43.567  54.983 -53.698  1.00  0.00    -0.340 N 
HETATM   16  H   UNL     1     -44.362  54.411 -53.927  1.00  0.00     0.167 HD
BRANCH  15  17
HETATM   17  C   UNL     1     -43.225  55.887 -54.723  1.00  0.00     0.036 A 
HETATM   18  C   UNL     1     -43.246  55.419 -56.050  1.00  0.00     0.069 A 
HETATM   19  C   UNL     1     -42.898  56.283 -57.070  1.00  0.00     0.107 A 
HETATM   20  C   UNL     1     -42.523  57.579 -56.822  1.00  0.00     0.105 A 
HETATM   21  O   UNL     1     -42.883  55.980 -58.396  1.00  0.00    -0.323 OA
HETATM   22  O   UNL     1     -42.226  58.261 -57.960  1.00  0.00    -0.323 OA
HETATM   23  C   UNL     1     -42.471  58.077 -55.543  1.00  0.00     0.042 A 
HETATM   24  C   UNL     1     -42.457  57.242 -58.953  1.00  0.00     0.352 A 
HETATM   25  C   UNL     1     -42.819  57.218 -54.491  1.00  0.00     0.032 A 
ENDBRANCH  15  17
ENDBRANCH  11  15
TORSDOF 2
ENDMDL
MODEL 3
REMARK VINA RESULT:      -8.2      4.397      6.771
REMARK  2 active torsions:
REMARK  status: ('A' for Active; 'I' for Inactive)
REMARK    1  A    between atoms: C_11  and  N_12 
REMARK    2  A    between atoms: N_12  and  C_13 
ROOT
HETATM    1  C   UNL     1     -42.623  53.889 -55.161  1.00  0.00     0.010 C 
HETATM    2  C   UNL     1     -41.095  54.000 -55.134  1.00  0.00    -0.014 C 
HETATM    3  C   UNL     1     -40.462  52.937 -54.211  1.00  0.00     0.051 C 
HETATM    4  C   UNL     1     -40.530  53.361 -52.773  1.00  0.00    -0.008 A 
HETATM    5  C   UNL     1     -40.766  54.645 -52.312  1.00  0.00    -0.028 A 
HETATM    6  C   UNL     1     -40.812  54.694 -50.857  1.00  0.00     0.053 A 
HETATM    7  C   UNL     1     -40.531  53.437 -50.330  1.00  0.00     0.114 A 
HETATM    8  N   UNL     1     -40.459  53.101 -49.033  1.00  0.00    -0.234 NA
HETATM    9  C   UNL     1     -40.703  54.132 -48.230  1.00  0.00     0.236 A 
HETATM   10  N   UNL     1     -41.010  55.383 -48.588  1.00  0.00    -0.223 NA
HETATM   11  C   UNL     1     -41.087  55.712 -49.902  1.00  0.00     0.143 A 
HETATM   12  S   UNL     1     -40.273  52.247 -51.520  1.00  0.00    -0.073 SA
HETATM   13  C   UNL     1     -40.991  55.778 -53.275  1.00  0.00     0.041 C 
HETATM   14  C   UNL     1     -40.631  55.411 -54.724  1.00  0.00     0.009 C 
ENDROOT
BRANCH  11  15
HETATM   15  N   UNL     1     -41.417  57.023 -50.279  1.00  0.00    -0.340 N 
HETATM   16  H   UNL     1     -40.680  57.689 -50.120  1.00  0.00     0.167 HD
BRANCH  15  17
HETATM   17  C   UNL     1     -42.506  57.566 -50.989  1.00  0.00     0.036 A 
HETATM   18  C   UNL     1     -42.334  58.821 -51.605  1.00  0.00     0.069 A 
HETATM   19  C   UNL     1     -43.392  59.380 -52.292  1.00  0.00     0.107 A 
HETATM   20  C   UNL     1     -44.609  58.752 -52.381  1.00  0.00     0.105 A 
HETATM   21  O   UNL     1     -43.374  60.573 -52.945  1.00  0.00    -0.323 OA
HETATM   22  O   UNL     1     -45.512  59.466 -53.103  1.00  0.00    -0.323 OA
HETATM   23  C   UNL     1     -44.832  57.535 -51.782  1.00  0.00     0.042 A 
HETATM   24  C   UNL     1     -44.722  60.619 -53.459  1.00  0.00     0.352 A 
HETATM   25  C   UNL     1     -43.771  56.948 -51.078  1.00  0.00     0.032 A 
ENDBRANCH  15  17
ENDBRANCH  11  15
TORSDOF 2
ENDMDL
MODEL 4
REMARK VINA RESULT:      -8.0      0.980      1.587
REMARK  2 active torsions:
REMARK  status: ('A' for Active; 'I' for Inactive)
REMARK    1  A    between atoms: C_11  and  N_12 
REMARK    2  A    between atoms: N_12  and  C_13 
ROOT
HETATM    1  C   UNL     1     -42.238  58.369 -58.104  1.00  0.00     0.010 C 
HETATM    2  C   UNL     1     -43.258  57.226 -58.065  1.00  0.00    -0.014 C 
HETATM    3  C   UNL     1     -44.473  57.575 -57.180  1.00  0.00     0.051 C 
HETATM    4  C   UNL     1     -44.162  57.361 -55.728  1.00  0.00    -0.008 A 
HETATM    5  C   UNL     1     -43.109  56.619 -55.220  1.00  0.00    -0.028 A 
HETATM    6  C   UNL     1     -43.075  56.660 -53.764  1.00  0.00     0.053 A 
HETATM    7  C   UNL     1     -44.164  57.381 -53.283  1.00  0.00     0.114 A 
HETATM    8  N   UNL     1     -44.479  57.611 -52.000  1.00  0.00    -0.234 NA
HETATM    9  C   UNL     1     -43.604  57.067 -51.160  1.00  0.00     0.236 A 
HETATM   10  N   UNL     1     -42.504  56.373 -51.472  1.00  0.00    -0.223 NA
HETATM   11  C   UNL     1     -42.190  56.151 -52.773  1.00  0.00     0.143 A 
HETATM   12  S   UNL     1     -45.150  58.019 -54.516  1.00  0.00    -0.073 SA
HETATM   13  C   UNL     1     -42.137  55.935 -56.141  1.00  0.00     0.041 C 
HETATM   14  C   UNL     1     -42.618  55.903 -57.601  1.00  0.00     0.009 C 
ENDROOT
BRANCH  11  15
HETATM   15  N   UNL     1     -41.032  55.429 -53.102  1.00  0.00    -0.340 N 
HETATM   16  H   UNL     1     -40.297  55.997 -53.487  1.00  0.00     0.167 HD
BRANCH  15  17
HETATM   17  C   UNL     1     -40.630  54.104 -52.847  1.00  0.00     0.036 A 
HETATM   18  C   UNL     1     -40.566  53.211 -53.934  1.00  0.00     0.069 A 
HETATM   19  C   UNL     1     -40.190  51.903 -53.704  1.00  0.00     0.107 A 
HETATM   20  C   UNL     1     -39.888  51.448 -52.445  1.00  0.00     0.105 A 
HETATM   21  O   UNL     1     -40.072  50.933 -54.650  1.00  0.00    -0.323 OA
HETATM   22  O   UNL     1     -39.538  50.135 -52.436  1.00  0.00    -0.323 OA
HETATM   23  C   UNL     1     -39.953  52.276 -51.350  1.00  0.00     0.042 A 
HETATM   24  C   UNL     1     -39.656  49.815 -53.838  1.00  0.00     0.352 A 
HETATM   25  C   UNL     1     -40.333  53.609 -51.559  1.00  0.00     0.032 A 
ENDBRANCH  15  17
ENDBRANCH  11  15
TORSDOF 2
ENDMDL
MODEL 5
REMARK VINA RESULT:      -7.9      3.963      6.887
REMARK  2 active torsions:
REMARK  status: ('A' for Active; 'I' for Inactive)
REMARK    1  A    between atoms: C_11  and  N_12 
REMARK    2  A    between atoms: N_12  and  C_13 
ROOT
HETATM    1  C   UNL     1     -41.170  51.498 -54.276  1.00  0.00     0.010 C 
HETATM    2  C   UNL     1     -40.101  52.579 -54.076  1.00  0.00    -0.014 C 
HETATM    3  C   UNL     1     -40.160  53.183 -52.657  1.00  0.00     0.051 C 
HETATM    4  C   UNL     1     -41.241  54.218 -52.555  1.00  0.00    -0.008 A 
HETATM    5  C   UNL     1     -41.871  54.846 -53.616  1.00  0.00    -0.028 A 
HETATM    6  C   UNL     1     -42.907  55.764 -53.159  1.00  0.00     0.053 A 
HETATM    7  C   UNL     1     -42.925  55.806 -51.768  1.00  0.00     0.114 A 
HETATM    8  N   UNL     1     -43.725  56.552 -50.992  1.00  0.00    -0.234 NA
HETATM    9  C   UNL     1     -44.567  57.297 -51.702  1.00  0.00     0.236 A 
HETATM   10  N   UNL     1     -44.682  57.343 -53.034  1.00  0.00    -0.223 NA
HETATM   11  C   UNL     1     -43.874  56.579 -53.811  1.00  0.00     0.143 A 
HETATM   12  S   UNL     1     -41.791  54.762 -51.045  1.00  0.00    -0.073 SA
HETATM   13  C   UNL     1     -41.500  54.516 -55.035  1.00  0.00     0.041 C 
HETATM   14  C   UNL     1     -40.206  53.691 -55.137  1.00  0.00     0.009 C 
ENDROOT
BRANCH  11  15
HETATM   15  N   UNL     1     -44.000  56.621 -55.208  1.00  0.00    -0.340 N 
HETATM   16  H   UNL     1     -44.785  56.101 -55.560  1.00  0.00     0.167 HD
BRANCH  15  17
HETATM   17  C   UNL     1     -43.350  57.379 -56.202  1.00  0.00     0.036 A 
HETATM   18  C   UNL     1     -42.912  58.673 -55.865  1.00  0.00     0.069 A 
HETATM   19  C   UNL     1     -42.288  59.440 -56.828  1.00  0.00     0.107 A 
HETATM   20  C   UNL     1     -42.095  58.980 -58.106  1.00  0.00     0.105 A 
HETATM   21  O   UNL     1     -41.801  60.698 -56.649  1.00  0.00    -0.323 OA
HETATM   22  O   UNL     1     -41.460  59.886 -58.896  1.00  0.00    -0.323 OA
HETATM   23  C   UNL     1     -42.522  57.731 -58.489  1.00  0.00     0.042 A 
HETATM   24  C   UNL     1     -41.276  60.972 -57.965  1.00  0.00     0.352 A 
HETATM   25  C   UNL     1     -43.158  56.933 -57.528  1.00  0.00     0.032 A 
ENDBRANCH  15  17
ENDBRANCH  11  15
TORSDOF 2
ENDMDL
MODEL 6
REMARK VINA RESULT:      -7.9      2.089      2.609
REMARK  2 active torsions:
REMARK  status: ('A' for Active; 'I' for Inactive)
REMARK    1  A    between atoms: C_11  and  N_12 
REMARK    2  A    between atoms: N_12  and  C_13 
ROOT
HETATM    1  C   UNL     1     -41.796  56.738 -59.980  1.00  0.00     0.010 C 
HETATM    2  C   UNL     1     -43.166  57.337 -59.644  1.00  0.00    -0.014 C 
HETATM    3  C   UNL     1     -43.041  58.770 -59.085  1.00  0.00     0.051 C 
HETATM    4  C   UNL     1     -42.680  58.752 -57.629  1.00  0.00    -0.008 A 
HETATM    5  C   UNL     1     -42.794  57.669 -56.774  1.00  0.00    -0.028 A 
HETATM    6  C   UNL     1     -42.311  57.985 -55.436  1.00  0.00     0.053 A 
HETATM    7  C   UNL     1     -41.932  59.323 -55.373  1.00  0.00     0.114 A 
HETATM    8  N   UNL     1     -41.462  59.981 -54.302  1.00  0.00    -0.234 NA
HETATM    9  C   UNL     1     -41.368  59.199 -53.231  1.00  0.00     0.236 A 
HETATM   10  N   UNL     1     -41.668  57.898 -53.148  1.00  0.00    -0.223 NA
HETATM   11  C   UNL     1     -42.137  57.240 -54.237  1.00  0.00     0.143 A 
HETATM   12  S   UNL     1     -42.102  60.146 -56.854  1.00  0.00    -0.073 SA
HETATM   13  C   UNL     1     -43.315  56.349 -57.272  1.00  0.00     0.041 C 
HETATM   14  C   UNL     1     -43.956  56.447 -58.666  1.00  0.00     0.009 C 
ENDROOT
BRANCH  11  15
HETATM   15  N   UNL     1     -42.444  55.873 -54.153  1.00  0.00    -0.340 N 
HETATM   16  H   UNL     1     -43.383  55.651 -54.436  1.00  0.00     0.167 HD
BRANCH  15  17
HETATM   17  C   UNL     1     -41.655  54.731 -53.915  1.00  0.00     0.036 A 
HETATM   18  C   UNL     1     -41.536  54.275 -52.589  1.00  0.00     0.069 A 
HETATM   19  C   UNL     1     -40.754  53.167 -52.330  1.00  0.00     0.107 A 
HETATM   20  C   UNL     1     -40.082  52.507 -53.328  1.00  0.00     0.105 A 
HETATM   21  O   UNL     1     -40.555  52.604 -51.108  1.00  0.00    -0.323 OA
HETATM   22  O   UNL     1     -39.375  51.443 -52.864  1.00  0.00    -0.323 OA
HETATM   23  C   UNL     1     -40.152  52.925 -54.635  1.00  0.00     0.042 A 
HETATM   24  C   UNL     1     -39.680  51.510 -51.456  1.00  0.00     0.352 A 
HETATM   25  C   UNL     1     -40.940  54.048 -54.922  1.00  0.00     0.032 A 
ENDBRANCH  15  17
ENDBRANCH  11  15
TORSDOF 2
ENDMDL
MODEL 7
REMARK VINA RESULT:      -7.8     14.553     17.128
REMARK  2 active torsions:
REMARK  status: ('A' for Active; 'I' for Inactive)
REMARK    1  A    between atoms: C_11  and  N_12 
REMARK    2  A    between atoms: N_12  and  C_13 
ROOT
HETATM    1  C   UNL     1     -31.720  37.428 -56.295  1.00  0.00     0.010 C 
HETATM    2  C   UNL     1     -30.914  38.607 -55.739  1.00  0.00    -0.014 C 
HETATM    3  C   UNL     1     -31.263  38.891 -54.263  1.00  0.00     0.051 C 
HETATM    4  C   UNL     1     -32.528  39.690 -54.151  1.00  0.00    -0.008 A 
HETATM    5  C   UNL     1     -33.132  40.408 -55.169  1.00  0.00    -0.028 A 
HETATM    6  C   UNL     1     -34.374  41.028 -54.727  1.00  0.00     0.053 A 
HETATM    7  C   UNL     1     -34.572  40.782 -53.372  1.00  0.00     0.114 A 
HETATM    8  N   UNL     1     -35.590  41.212 -52.612  1.00  0.00    -0.234 NA
HETATM    9  C   UNL     1     -36.466  41.935 -53.303  1.00  0.00     0.236 A 
HETATM   10  N   UNL     1     -36.423  42.232 -54.607  1.00  0.00    -0.223 NA
HETATM   11  C   UNL     1     -35.392  41.787 -55.369  1.00  0.00     0.143 A 
HETATM   12  S   UNL     1     -33.355  39.816 -52.675  1.00  0.00    -0.073 SA
HETATM   13  C   UNL     1     -32.531  40.440 -56.547  1.00  0.00     0.041 C 
HETATM   14  C   UNL     1     -31.100  39.879 -56.589  1.00  0.00     0.009 C 
ENDROOT
BRANCH  11  15
HETATM   15  N   UNL     1     -35.350  42.091 -56.738  1.00  0.00    -0.340 N 
HETATM   16  H   UNL     1     -34.623  42.740 -56.987  1.00  0.00     0.167 HD
BRANCH  15  17
HETATM   17  C   UNL     1     -36.008  41.544 -57.857  1.00  0.00     0.036 A 
HETATM   18  C   UNL     1     -35.811  40.179 -58.137  1.00  0.00     0.069 A 
HETATM   19  C   UNL     1     -36.433  39.625 -59.239  1.00  0.00     0.107 A 
HETATM   20  C   UNL     1     -37.226  40.372 -60.072  1.00  0.00     0.105 A 
HETATM   21  O   UNL     1     -36.348  38.325 -59.628  1.00  0.00    -0.323 OA
HETATM   22  O   UNL     1     -37.746  39.639 -61.092  1.00  0.00    -0.323 OA
HETATM   23  C   UNL     1     -37.434  41.712 -59.851  1.00  0.00     0.042 A 
HETATM   24  C   UNL     1     -37.186  38.342 -60.804  1.00  0.00     0.352 A 
HETATM   25  C   UNL     1     -36.813  42.297 -58.739  1.00  0.00     0.032 A 
ENDBRANCH  15  17
ENDBRANCH  11  15
TORSDOF 2
ENDMDL
MODEL 8
REMARK VINA RESULT:      -7.8      4.174      7.633
REMARK  2 active torsions:
REMARK  status: ('A' for Active; 'I' for Inactive)
REMARK    1  A    between atoms: C_11  and  N_12 
REMARK    2  A    between atoms: N_12  and  C_13 
ROOT
HETATM    1  C   UNL     1     -39.534  54.570 -49.874  1.00  0.00     0.010 C 
HETATM    2  C   UNL     1     -40.317  53.290 -50.182  1.00  0.00    -0.014 C 
HETATM    3  C   UNL     1     -40.004  52.755 -51.596  1.00  0.00     0.051 C 
HETATM    4  C   UNL     1     -40.785  53.497 -52.639  1.00  0.00    -0.008 A 
HETATM    5  C   UNL     1     -41.900  54.287 -52.415  1.00  0.00    -0.028 A 
HETATM    6  C   UNL     1     -42.383  54.898 -53.647  1.00  0.00     0.053 A 
HETATM    7  C   UNL     1     -41.624  54.456 -54.726  1.00  0.00     0.114 A 
HETATM    8  N   UNL     1     -41.787  54.782 -56.017  1.00  0.00    -0.234 NA
HETATM    9  C   UNL     1     -42.795  55.629 -56.201  1.00  0.00     0.236 A 
HETATM   10  N   UNL     1     -43.591  56.157 -55.264  1.00  0.00    -0.223 NA
HETATM   11  C   UNL     1     -43.415  55.826 -53.960  1.00  0.00     0.143 A 
HETATM   12  S   UNL     1     -40.366  53.400 -54.280  1.00  0.00    -0.073 SA
HETATM   13  C   UNL     1     -42.442  54.475 -51.025  1.00  0.00     0.041 C 
HETATM   14  C   UNL     1     -41.835  53.492 -50.010  1.00  0.00     0.009 C 
ENDROOT
BRANCH  11  15
HETATM   15  N   UNL     1     -44.245  56.385 -52.976  1.00  0.00    -0.340 N 
HETATM   16  H   UNL     1     -44.944  55.752 -52.628  1.00  0.00     0.167 HD
BRANCH  15  17
HETATM   17  C   UNL     1     -44.190  57.595 -52.258  1.00  0.00     0.036 A 
HETATM   18  C   UNL     1     -45.174  57.827 -51.278  1.00  0.00     0.069 A 
HETATM   19  C   UNL     1     -45.150  59.014 -50.573  1.00  0.00     0.107 A 
HETATM   20  C   UNL     1     -44.202  59.976 -50.810  1.00  0.00     0.105 A 
HETATM   21  O   UNL     1     -46.023  59.373 -49.593  1.00  0.00    -0.323 OA
HETATM   22  O   UNL     1     -44.352  61.064 -50.009  1.00  0.00    -0.323 OA
HETATM   23  C   UNL     1     -43.232  59.805 -51.768  1.00  0.00     0.042 A 
HETATM   24  C   UNL     1     -45.507  60.674 -49.239  1.00  0.00     0.352 A 
HETATM   25  C   UNL     1     -43.236  58.607 -52.498  1.00  0.00     0.032 A 
ENDBRANCH  15  17
ENDBRANCH  11  15
TORSDOF 2
ENDMDL
MODEL 9
REMARK VINA RESULT:      -7.5      3.173      4.850
REMARK  2 active torsions:
REMARK  status: ('A' for Active; 'I' for Inactive)
REMARK    1  A    between atoms: C_11  and  N_12 
REMARK    2  A    between atoms: N_12  and  C_13 
ROOT
HETATM    1  C   UNL     1     -43.997  60.855 -55.000  1.00  0.00     0.010 C 
HETATM    2  C   UNL     1     -42.489  60.640 -55.170  1.00  0.00    -0.014 C 
HETATM    3  C   UNL     1     -42.068  60.692 -56.653  1.00  0.00     0.051 C 
HETATM    4  C   UNL     1     -42.343  59.386 -57.339  1.00  0.00    -0.008 A 
HETATM    5  C   UNL     1     -42.582  58.173 -56.716  1.00  0.00    -0.028 A 
HETATM    6  C   UNL     1     -42.857  57.117 -57.682  1.00  0.00     0.053 A 
HETATM    7  C   UNL     1     -42.730  57.613 -58.977  1.00  0.00     0.114 A 
HETATM    8  N   UNL     1     -42.884  56.932 -60.122  1.00  0.00    -0.234 NA
HETATM    9  C   UNL     1     -43.200  55.658 -59.913  1.00  0.00     0.236 A 
HETATM   10  N   UNL     1     -43.380  55.049 -58.736  1.00  0.00    -0.223 NA
HETATM   11  C   UNL     1     -43.229  55.748 -57.583  1.00  0.00     0.143 A 
HETATM   12  S   UNL     1     -42.348  59.271 -59.031  1.00  0.00    -0.073 SA
HETATM   13  C   UNL     1     -42.591  58.068 -55.217  1.00  0.00     0.041 C 
HETATM   14  C   UNL     1     -42.024  59.319 -54.526  1.00  0.00     0.009 C 
ENDROOT
BRANCH  11  15
HETATM   15  N   UNL     1     -43.425  55.112 -56.347  1.00  0.00    -0.340 N 
HETATM   16  H   UNL     1     -44.368  54.795 -56.200  1.00  0.00     0.167 HD
BRANCH  15  17
HETATM   17  C   UNL     1     -42.535  54.679 -55.345  1.00  0.00     0.036 A 
HETATM   18  C   UNL     1     -43.047  54.475 -54.049  1.00  0.00     0.069 A 
HETATM   19  C   UNL     1     -42.190  54.066 -53.048  1.00  0.00     0.107 A 
HETATM   20  C   UNL     1     -40.852  53.866 -53.279  1.00  0.00     0.105 A 
HETATM   21  O   UNL     1     -42.538  53.817 -51.757  1.00  0.00    -0.323 OA
HETATM   22  O   UNL     1     -40.186  53.462 -52.165  1.00  0.00    -0.323 OA
HETATM   23  C   UNL     1     -40.302  54.069 -54.521  1.00  0.00     0.042 A 
HETATM   24  C   UNL     1     -41.261  53.432 -51.204  1.00  0.00     0.352 A 
HETATM   25  C   UNL     1     -41.153  54.485 -55.554  1.00  0.00     0.032 A 
ENDBRANCH  15  17
ENDBRANCH  11  15
TORSDOF 2
ENDMDL
MODEL 10
REMARK VINA RESULT:      -7.5      2.327      4.142
REMARK  2 active torsions:
REMARK  status: ('A' for Active; 'I' for Inactive)
REMARK    1  A    between atoms: C_11  and  N_12 
REMARK    2  A    between atoms: N_12  and  C_13 
ROOT
HETATM    1  C   UNL     1     -44.058  59.733 -51.069  1.00  0.00     0.010 C 
HETATM    2  C   UNL     1     -42.540  59.771 -51.274  1.00  0.00    -0.014 C 
HETATM    3  C   UNL     1     -42.164  60.360 -52.650  1.00  0.00     0.051 C 
HETATM    4  C   UNL     1     -42.297  59.330 -53.733  1.00  0.00    -0.008 A 
HETATM    5  C   UNL     1     -42.374  57.960 -53.550  1.00  0.00    -0.028 A 
HETATM    6  C   UNL     1     -42.544  57.257 -54.815  1.00  0.00     0.053 A 
HETATM    7  C   UNL     1     -42.508  58.163 -55.871  1.00  0.00     0.114 A 
HETATM    8  N   UNL     1     -42.607  57.885 -57.179  1.00  0.00    -0.234 NA
HETATM    9  C   UNL     1     -42.763  56.584 -57.408  1.00  0.00     0.236 A 
HETATM   10  N   UNL     1     -42.840  55.605 -56.501  1.00  0.00    -0.223 NA
HETATM   11  C   UNL     1     -42.746  55.897 -55.179  1.00  0.00     0.143 A 
HETATM   12  S   UNL     1     -42.329  59.780 -55.368  1.00  0.00    -0.073 SA
HETATM   13  C   UNL     1     -42.334  57.366 -52.170  1.00  0.00     0.041 C 
HETATM   14  C   UNL     1     -41.904  58.378 -51.095  1.00  0.00     0.009 C 
ENDROOT
BRANCH  11  15
HETATM   15  N   UNL     1     -42.835  54.870 -54.226  1.00  0.00    -0.340 N 
HETATM   16  H   UNL     1     -43.777  54.661 -53.943  1.00  0.00     0.167 HD
BRANCH  15  17
HETATM   17  C   UNL     1     -41.890  53.961 -53.712  1.00  0.00     0.036 A 
HETATM   18  C   UNL     1     -41.609  52.805 -54.464  1.00  0.00     0.069 A 
HETATM   19  C   UNL     1     -40.698  51.892 -53.971  1.00  0.00     0.107 A 
HETATM   20  C   UNL     1     -40.070  52.076 -52.766  1.00  0.00     0.105 A 
HETATM   21  O   UNL     1     -40.317  50.740 -54.586  1.00  0.00    -0.323 OA
HETATM   22  O   UNL     1     -39.210  51.066 -52.467  1.00  0.00    -0.323 OA
HETATM   23  C   UNL     1     -40.324  53.179 -51.987  1.00  0.00     0.042 A 
HETATM   24  C   UNL     1     -39.371  50.223 -53.626  1.00  0.00     0.352 A 
HETATM   25  C   UNL     1     -41.246  54.120 -52.467  1.00  0.00     0.032 A 
ENDBRANCH  15  17
ENDBRANCH  11  15
TORSDOF 2
ENDMDL
