MODEL 1
REMARK VINA RESULT:      -8.2      0.000      0.000
REMARK  6 active torsions:
REMARK  status: ('A' for Active; 'I' for Inactive)
REMARK    1  A    between atoms: C_2  and  N_3 
REMARK    2  A    between atoms: C_5  and  C_6 
REMARK    3  A    between atoms: C_6  and  N_7 
REMARK       I    between atoms: N_7  and  C_8 
REMARK    4  A    between atoms: C_8  and  C_9 
REMARK    5  A    between atoms: C_9  and  C_10 
REMARK    6  A    between atoms: C_11  and  C_12 
ROOT
HETATM    1  C   UNL     1     -41.567  56.178 -52.502  1.00  0.00     0.005 C 
HETATM    2  C   UNL     1     -41.078  54.986 -51.962  1.00  0.00     0.069 C 
HETATM    3  N   UNL     1     -40.938  55.235 -50.619  1.00  0.00    -0.277 N 
HETATM    4  H   UNL     1     -40.522  54.638 -49.911  1.00  0.00     0.189 HD
HETATM    5  N   UNL     1     -41.467  56.398 -50.231  1.00  0.00    -0.179 NA
HETATM    6  C   UNL     1     -41.703  57.047 -51.374  1.00  0.00     0.059 C 
HETATM    7  C   UNL     1     -42.076  58.486 -51.320  1.00  0.00     0.073 C 
ENDROOT
BRANCH   1   8
HETATM    8  C   UNL     1     -41.844  56.494 -53.944  1.00  0.00     0.146 C 
BRANCH   8   9
HETATM    9  C   UNL     1     -43.297  56.313 -54.337  1.00  0.00     0.222 C 
HETATM   10  N   UNL     1     -43.646  55.667 -55.489  1.00  0.00    -0.359 N 
HETATM   11  H   UNL     1     -44.651  55.751 -55.623  1.00  0.00     0.162 HD
HETATM   12  O   UNL     1     -44.216  56.707 -53.620  1.00  0.00    -0.273 OA
BRANCH  10  13
HETATM   13  C   UNL     1     -42.846  55.349 -56.663  1.00  0.00     0.155 C 
BRANCH  13  14
HETATM   14  C   UNL     1     -42.957  56.360 -57.807  1.00  0.00     0.206 C 
HETATM   15  N   UNL     1     -43.157  55.785 -59.202  1.00  0.00    -0.066 N 
HETATM   16  H   UNL     1     -42.265  55.363 -59.511  1.00  0.00     0.280 HD
HETATM   17  C   UNL     1     -43.387  57.051 -60.010  1.00  0.00     0.235 C 
HETATM   18  C   UNL     1     -44.243  57.930 -59.103  1.00  0.00     0.030 C 
HETATM   19  C   UNL     1     -44.072  57.386 -57.686  1.00  0.00     0.036 C 
BRANCH  15  20
HETATM   20  C   UNL     1     -44.270  54.781 -59.426  1.00  0.00     0.231 C 
HETATM   21  C   UNL     1     -44.818  54.843 -60.838  1.00  0.00     0.034 C 
ENDBRANCH  15  20
ENDBRANCH  13  14
ENDBRANCH  10  13
ENDBRANCH   8   9
ENDBRANCH   1   8
BRANCH   2  22
HETATM   22  C   UNL     1     -40.694  53.700 -52.548  1.00  0.00    -0.007 A 
HETATM   23  C   UNL     1     -39.976  52.752 -51.809  1.00  0.00     0.015 A 
HETATM   24  C   UNL     1     -39.582  51.543 -52.392  1.00  0.00     0.024 A 
HETATM   25  C   UNL     1     -39.914  51.270 -53.716  1.00  0.00     0.034 A 
HETATM   26 CL   UNL     1     -39.419  49.790 -54.436  1.00  0.00    -0.084 Cl
HETATM   27  C   UNL     1     -40.646  52.190 -54.460  1.00  0.00     0.024 A 
HETATM   28  C   UNL     1     -41.035  53.400 -53.878  1.00  0.00     0.015 A 
ENDBRANCH   2  22
TORSDOF 6
ENDMDL
MODEL 2
REMARK VINA RESULT:      -8.0      0.895      1.139
REMARK  6 active torsions:
REMARK  status: ('A' for Active; 'I' for Inactive)
REMARK    1  A    between atoms: C_2  and  N_3 
REMARK    2  A    between atoms: C_5  and  C_6 
REMARK    3  A    between atoms: C_6  and  N_7 
REMARK       I    between atoms: N_7  and  C_8 
REMARK    4  A    between atoms: C_8  and  C_9 
REMARK    5  A    between atoms: C_9  and  C_10 
REMARK    6  A    between atoms: C_11  and  C_12 
ROOT
HETATM    1  C   UNL     1     -41.566  56.085 -52.448  1.00  0.00     0.005 C 
HETATM    2  C   UNL     1     -41.008  54.932 -51.892  1.00  0.00     0.069 C 
HETATM    3  N   UNL     1     -40.807  55.237 -50.569  1.00  0.00    -0.277 N 
HETATM    4  H   UNL     1     -40.333  54.681 -49.863  1.00  0.00     0.189 HD
HETATM    5  N   UNL     1     -41.356  56.395 -50.195  1.00  0.00    -0.179 NA
HETATM    6  C   UNL     1     -41.674  56.991 -51.346  1.00  0.00     0.059 C 
HETATM    7  C   UNL     1     -42.095  58.418 -51.325  1.00  0.00     0.073 C 
ENDROOT
BRANCH   1   8
HETATM    8  C   UNL     1     -41.929  56.336 -53.884  1.00  0.00     0.146 C 
BRANCH   8   9
HETATM    9  C   UNL     1     -43.330  55.882 -54.244  1.00  0.00     0.222 C 
HETATM   10  N   UNL     1     -43.894  56.204 -55.446  1.00  0.00    -0.359 N 
HETATM   11  H   UNL     1     -44.867  55.905 -55.445  1.00  0.00     0.162 HD
HETATM   12  O   UNL     1     -43.999  55.178 -53.487  1.00  0.00    -0.273 OA
BRANCH  10  13
HETATM   13  C   UNL     1     -43.516  57.225 -56.414  1.00  0.00     0.155 C 
BRANCH  13  14
HETATM   14  C   UNL     1     -43.108  56.686 -57.786  1.00  0.00     0.206 C 
HETATM   15  N   UNL     1     -44.236  56.208 -58.690  1.00  0.00    -0.066 N 
HETATM   16  H   UNL     1     -44.592  55.311 -58.317  1.00  0.00     0.280 HD
HETATM   17  C   UNL     1     -43.480  55.920 -59.976  1.00  0.00     0.235 C 
HETATM   18  C   UNL     1     -42.459  57.050 -60.077  1.00  0.00     0.030 C 
HETATM   19  C   UNL     1     -42.326  57.641 -58.675  1.00  0.00     0.036 C 
BRANCH  15  20
HETATM   20  C   UNL     1     -45.412  57.131 -58.939  1.00  0.00     0.231 C 
HETATM   21  C   UNL     1     -46.328  56.605 -60.026  1.00  0.00     0.034 C 
ENDBRANCH  15  20
ENDBRANCH  13  14
ENDBRANCH  10  13
ENDBRANCH   8   9
ENDBRANCH   1   8
BRANCH   2  22
HETATM   22  C   UNL     1     -40.609  53.638 -52.450  1.00  0.00    -0.007 A 
HETATM   23  C   UNL     1     -39.890  52.709 -51.688  1.00  0.00     0.015 A 
HETATM   24  C   UNL     1     -39.482  51.492 -52.246  1.00  0.00     0.024 A 
HETATM   25  C   UNL     1     -39.801  51.192 -53.566  1.00  0.00     0.034 A 
HETATM   26 CL   UNL     1     -39.289  49.703 -54.255  1.00  0.00    -0.084 Cl
HETATM   27  C   UNL     1     -40.534  52.093 -54.333  1.00  0.00     0.024 A 
HETATM   28  C   UNL     1     -40.937  53.311 -53.777  1.00  0.00     0.015 A 
ENDBRANCH   2  22
TORSDOF 6
ENDMDL
MODEL 3
REMARK VINA RESULT:      -7.9      2.523      6.377
REMARK  6 active torsions:
REMARK  status: ('A' for Active; 'I' for Inactive)
REMARK    1  A    between atoms: C_2  and  N_3 
REMARK    2  A    between atoms: C_5  and  C_6 
REMARK    3  A    between atoms: C_6  and  N_7 
REMARK       I    between atoms: N_7  and  C_8 
REMARK    4  A    between atoms: C_8  and  C_9 
REMARK    5  A    between atoms: C_9  and  C_10 
REMARK    6  A    between atoms: C_11  and  C_12 
ROOT
HETATM    1  C   UNL     1     -42.525  57.674 -55.223  1.00  0.00     0.005 C 
HETATM    2  C   UNL     1     -42.147  56.483 -55.848  1.00  0.00     0.069 C 
HETATM    3  N   UNL     1     -42.350  56.706 -57.188  1.00  0.00    -0.277 N 
HETATM    4  H   UNL     1     -42.276  56.041 -57.951  1.00  0.00     0.189 HD
HETATM    5  N   UNL     1     -42.637  57.976 -57.484  1.00  0.00    -0.179 NA
HETATM    6  C   UNL     1     -42.904  58.534 -56.301  1.00  0.00     0.059 C 
HETATM    7  C   UNL     1     -43.500  59.897 -56.267  1.00  0.00     0.073 C 
ENDROOT
BRANCH   1   8
HETATM    8  C   UNL     1     -42.568  57.971 -53.751  1.00  0.00     0.146 C 
BRANCH   8   9
HETATM    9  C   UNL     1     -41.268  58.529 -53.206  1.00  0.00     0.222 C 
HETATM   10  N   UNL     1     -40.715  58.046 -52.054  1.00  0.00    -0.359 N 
HETATM   11  H   UNL     1     -39.916  58.623 -51.803  1.00  0.00     0.162 HD
HETATM   12  O   UNL     1     -40.642  59.409 -53.796  1.00  0.00    -0.273 OA
BRANCH  10  13
HETATM   13  C   UNL     1     -41.312  57.247 -50.993  1.00  0.00     0.155 C 
BRANCH  13  14
HETATM   14  C   UNL     1     -41.398  55.748 -51.291  1.00  0.00     0.206 C 
HETATM   15  N   UNL     1     -40.723  54.819 -50.291  1.00  0.00    -0.066 N 
HETATM   16  H   UNL     1     -39.700  54.900 -50.412  1.00  0.00     0.280 HD
HETATM   17  C   UNL     1     -41.157  53.460 -50.816  1.00  0.00     0.235 C 
HETATM   18  C   UNL     1     -42.606  53.665 -51.248  1.00  0.00     0.030 C 
HETATM   19  C   UNL     1     -42.799  55.171 -51.418  1.00  0.00     0.036 C 
BRANCH  15  20
HETATM   20  C   UNL     1     -41.051  54.969 -48.819  1.00  0.00     0.231 C 
HETATM   21  C   UNL     1     -40.334  53.938 -47.969  1.00  0.00     0.034 C 
ENDBRANCH  15  20
ENDBRANCH  13  14
ENDBRANCH  10  13
ENDBRANCH   8   9
ENDBRANCH   1   8
BRANCH   2  22
HETATM   22  C   UNL     1     -41.679  55.189 -55.347  1.00  0.00    -0.007 A 
HETATM   23  C   UNL     1     -42.562  54.117 -55.173  1.00  0.00     0.015 A 
HETATM   24  C   UNL     1     -42.110  52.897 -54.657  1.00  0.00     0.024 A 
HETATM   25  C   UNL     1     -40.769  52.739 -54.323  1.00  0.00     0.034 A 
HETATM   26 CL   UNL     1     -40.216  51.246 -53.677  1.00  0.00    -0.084 Cl
HETATM   27  C   UNL     1     -39.872  53.786 -54.510  1.00  0.00     0.024 A 
HETATM   28  C   UNL     1     -40.325  55.006 -55.020  1.00  0.00     0.015 A 
ENDBRANCH   2  22
TORSDOF 6
ENDMDL
MODEL 4
REMARK VINA RESULT:      -7.6      1.944      2.867
REMARK  6 active torsions:
REMARK  status: ('A' for Active; 'I' for Inactive)
REMARK    1  A    between atoms: C_2  and  N_3 
REMARK    2  A    between atoms: C_5  and  C_6 
REMARK    3  A    between atoms: C_6  and  N_7 
REMARK       I    between atoms: N_7  and  C_8 
REMARK    4  A    between atoms: C_8  and  C_9 
REMARK    5  A    between atoms: C_9  and  C_10 
REMARK    6  A    between atoms: C_11  and  C_12 
ROOT
HETATM    1  C   UNL     1     -42.420  57.712 -53.369  1.00  0.00     0.005 C 
HETATM    2  C   UNL     1     -41.214  57.013 -53.457  1.00  0.00     0.069 C 
HETATM    3  N   UNL     1     -40.240  57.979 -53.414  1.00  0.00    -0.277 N 
HETATM    4  H   UNL     1     -39.239  57.866 -53.545  1.00  0.00     0.189 HD
HETATM    5  N   UNL     1     -40.703  59.196 -53.118  1.00  0.00    -0.179 NA
HETATM    6  C   UNL     1     -42.026  59.081 -53.248  1.00  0.00     0.059 C 
HETATM    7  C   UNL     1     -42.860  60.314 -53.226  1.00  0.00     0.073 C 
ENDROOT
BRANCH   1   8
HETATM    8  C   UNL     1     -43.815  57.158 -53.433  1.00  0.00     0.146 C 
BRANCH   8   9
HETATM    9  C   UNL     1     -43.973  56.023 -54.425  1.00  0.00     0.222 C 
HETATM   10  N   UNL     1     -43.888  56.240 -55.772  1.00  0.00    -0.359 N 
HETATM   11  H   UNL     1     -44.131  55.382 -56.261  1.00  0.00     0.162 HD
HETATM   12  O   UNL     1     -44.146  54.861 -54.060  1.00  0.00    -0.273 OA
BRANCH  10  13
HETATM   13  C   UNL     1     -43.981  57.482 -56.527  1.00  0.00     0.155 C 
BRANCH  13  14
HETATM   14  C   UNL     1     -43.943  57.311 -58.048  1.00  0.00     0.206 C 
HETATM   15  N   UNL     1     -43.218  58.394 -58.833  1.00  0.00    -0.066 N 
HETATM   16  H   UNL     1     -43.804  59.245 -58.830  1.00  0.00     0.280 HD
HETATM   17  C   UNL     1     -43.242  57.806 -60.234  1.00  0.00     0.235 C 
HETATM   18  C   UNL     1     -42.993  56.315 -60.024  1.00  0.00     0.030 C 
HETATM   19  C   UNL     1     -43.315  56.024 -58.560  1.00  0.00     0.036 C 
BRANCH  15  20
HETATM   20  C   UNL     1     -41.809  58.775 -58.422  1.00  0.00     0.231 C 
HETATM   21  C   UNL     1     -41.737  60.189 -57.881  1.00  0.00     0.034 C 
ENDBRANCH  15  20
ENDBRANCH  13  14
ENDBRANCH  10  13
ENDBRANCH   8   9
ENDBRANCH   1   8
BRANCH   2  22
HETATM   22  C   UNL     1     -40.883  55.596 -53.620  1.00  0.00    -0.007 A 
HETATM   23  C   UNL     1     -40.429  55.093 -54.846  1.00  0.00     0.015 A 
HETATM   24  C   UNL     1     -40.153  53.730 -54.999  1.00  0.00     0.024 A 
HETATM   25  C   UNL     1     -40.318  52.863 -53.924  1.00  0.00     0.034 A 
HETATM   26 CL   UNL     1     -39.992  51.187 -54.116  1.00  0.00    -0.084 Cl
HETATM   27  C   UNL     1     -40.748  53.347 -52.692  1.00  0.00     0.024 A 
HETATM   28  C   UNL     1     -41.028  54.708 -52.540  1.00  0.00     0.015 A 
ENDBRANCH   2  22
TORSDOF 6
ENDMDL
MODEL 5
REMARK VINA RESULT:      -7.3      3.023      5.792
REMARK  6 active torsions:
REMARK  status: ('A' for Active; 'I' for Inactive)
REMARK    1  A    between atoms: C_2  and  N_3 
REMARK    2  A    between atoms: C_5  and  C_6 
REMARK    3  A    between atoms: C_6  and  N_7 
REMARK       I    between atoms: N_7  and  C_8 
REMARK    4  A    between atoms: C_8  and  C_9 
REMARK    5  A    between atoms: C_9  and  C_10 
REMARK    6  A    between atoms: C_11  and  C_12 
ROOT
HETATM    1  C   UNL     1     -41.711  56.026 -53.592  1.00  0.00     0.005 C 
HETATM    2  C   UNL     1     -41.153  54.822 -54.028  1.00  0.00     0.069 C 
HETATM    3  N   UNL     1     -41.209  54.880 -55.399  1.00  0.00    -0.277 N 
HETATM    4  H   UNL     1     -40.982  54.150 -56.067  1.00  0.00     0.189 HD
HETATM    5  N   UNL     1     -41.570  56.075 -55.871  1.00  0.00    -0.179 NA
HETATM    6  C   UNL     1     -42.031  56.724 -54.799  1.00  0.00     0.059 C 
HETATM    7  C   UNL     1     -42.746  58.014 -54.992  1.00  0.00     0.073 C 
ENDROOT
BRANCH   1   8
HETATM    8  C   UNL     1     -41.961  56.470 -52.179  1.00  0.00     0.146 C 
BRANCH   8   9
HETATM    9  C   UNL     1     -43.268  55.960 -51.605  1.00  0.00     0.222 C 
HETATM   10  N   UNL     1     -44.448  56.605 -51.847  1.00  0.00    -0.359 N 
HETATM   11  H   UNL     1     -45.181  56.174 -51.287  1.00  0.00     0.162 HD
HETATM   12  O   UNL     1     -43.325  54.931 -50.933  1.00  0.00    -0.273 OA
BRANCH  10  13
HETATM   13  C   UNL     1     -44.695  57.955 -52.333  1.00  0.00     0.155 C 
BRANCH  13  14
HETATM   14  C   UNL     1     -45.225  58.929 -51.278  1.00  0.00     0.206 C 
HETATM   15  N   UNL     1     -44.184  59.611 -50.401  1.00  0.00    -0.066 N 
HETATM   16  H   UNL     1     -43.812  58.914 -49.735  1.00  0.00     0.280 HD
HETATM   17  C   UNL     1     -45.049  60.592 -49.628  1.00  0.00     0.235 C 
HETATM   18  C   UNL     1     -46.057  61.102 -50.656  1.00  0.00     0.030 C 
HETATM   19  C   UNL     1     -46.062  60.087 -51.797  1.00  0.00     0.036 C 
BRANCH  15  20
HETATM   20  C   UNL     1     -43.018  60.315 -51.067  1.00  0.00     0.231 C 
HETATM   21  C   UNL     1     -41.710  60.058 -50.344  1.00  0.00     0.034 C 
ENDBRANCH  15  20
ENDBRANCH  13  14
ENDBRANCH  10  13
ENDBRANCH   8   9
ENDBRANCH   1   8
BRANCH   2  22
HETATM   22  C   UNL     1     -40.635  53.643 -53.331  1.00  0.00    -0.007 A 
HETATM   23  C   UNL     1     -40.387  52.446 -54.014  1.00  0.00     0.015 A 
HETATM   24  C   UNL     1     -39.929  51.315 -53.330  1.00  0.00     0.024 A 
HETATM   25  C   UNL     1     -39.705  51.378 -51.958  1.00  0.00     0.034 A 
HETATM   26 CL   UNL     1     -39.156  49.985 -51.114  1.00  0.00    -0.084 Cl
HETATM   27  C   UNL     1     -39.926  52.564 -51.264  1.00  0.00     0.024 A 
HETATM   28  C   UNL     1     -40.388  53.692 -51.948  1.00  0.00     0.015 A 
ENDBRANCH   2  22
TORSDOF 6
ENDMDL
MODEL 6
REMARK VINA RESULT:      -7.3      3.709      6.477
REMARK  6 active torsions:
REMARK  status: ('A' for Active; 'I' for Inactive)
REMARK    1  A    between atoms: C_2  and  N_3 
REMARK    2  A    between atoms: C_5  and  C_6 
REMARK    3  A    between atoms: C_6  and  N_7 
REMARK       I    between atoms: N_7  and  C_8 
REMARK    4  A    between atoms: C_8  and  C_9 
REMARK    5  A    between atoms: C_9  and  C_10 
REMARK    6  A    between atoms: C_11  and  C_12 
ROOT
HETATM    1  C   UNL     1     -42.490  57.791 -53.306  1.00  0.00     0.005 C 
HETATM    2  C   UNL     1     -41.317  57.061 -53.515  1.00  0.00     0.069 C 
HETATM    3  N   UNL     1     -40.361  58.001 -53.811  1.00  0.00    -0.277 N 
HETATM    4  H   UNL     1     -39.404  57.848 -54.113  1.00  0.00     0.189 HD
HETATM    5  N   UNL     1     -40.769  59.259 -53.622  1.00  0.00    -0.179 NA
HETATM    6  C   UNL     1     -42.092  59.154 -53.476  1.00  0.00     0.059 C 
HETATM    7  C   UNL     1     -42.916  60.393 -53.485  1.00  0.00     0.073 C 
ENDROOT
BRANCH   1   8
HETATM    8  C   UNL     1     -43.866  57.264 -53.015  1.00  0.00     0.146 C 
BRANCH   8   9
HETATM    9  C   UNL     1     -44.139  57.067 -51.536  1.00  0.00     0.222 C 
HETATM   10  N   UNL     1     -44.917  57.945 -50.836  1.00  0.00    -0.359 N 
HETATM   11  H   UNL     1     -44.884  57.700 -49.848  1.00  0.00     0.162 HD
HETATM   12  O   UNL     1     -43.705  56.095 -50.920  1.00  0.00    -0.273 OA
BRANCH  10  13
HETATM   13  C   UNL     1     -45.328  59.302 -51.168  1.00  0.00     0.155 C 
BRANCH  13  14
HETATM   14  C   UNL     1     -45.463  60.242 -49.967  1.00  0.00     0.206 C 
HETATM   15  N   UNL     1     -44.174  60.607 -49.244  1.00  0.00    -0.066 N 
HETATM   16  H   UNL     1     -43.858  59.782 -48.707  1.00  0.00     0.280 HD
HETATM   17  C   UNL     1     -44.675  61.651 -48.260  1.00  0.00     0.235 C 
HETATM   18  C   UNL     1     -45.700  62.457 -49.052  1.00  0.00     0.030 C 
HETATM   19  C   UNL     1     -46.105  61.592 -50.244  1.00  0.00     0.036 C 
BRANCH  15  20
HETATM   20  C   UNL     1     -43.006  61.133 -50.055  1.00  0.00     0.231 C 
HETATM   21  C   UNL     1     -41.838  60.166 -50.064  1.00  0.00     0.034 C 
ENDBRANCH  15  20
ENDBRANCH  13  14
ENDBRANCH  10  13
ENDBRANCH   8   9
ENDBRANCH   1   8
BRANCH   2  22
HETATM   22  C   UNL     1     -41.011  55.629 -53.518  1.00  0.00    -0.007 A 
HETATM   23  C   UNL     1     -41.057  54.876 -52.338  1.00  0.00     0.015 A 
HETATM   24  C   UNL     1     -40.725  53.516 -52.347  1.00  0.00     0.024 A 
HETATM   25  C   UNL     1     -40.357  52.899 -53.538  1.00  0.00     0.034 A 
HETATM   26 CL   UNL     1     -39.936  51.233 -53.546  1.00  0.00    -0.084 Cl
HETATM   27  C   UNL     1     -40.326  53.626 -54.724  1.00  0.00     0.024 A 
HETATM   28  C   UNL     1     -40.653  54.985 -54.714  1.00  0.00     0.015 A 
ENDBRANCH   2  22
TORSDOF 6
ENDMDL
MODEL 7
REMARK VINA RESULT:      -7.3      1.994      2.321
REMARK  6 active torsions:
REMARK  status: ('A' for Active; 'I' for Inactive)
REMARK    1  A    between atoms: C_2  and  N_3 
REMARK    2  A    between atoms: C_5  and  C_6 
REMARK    3  A    between atoms: C_6  and  N_7 
REMARK       I    between atoms: N_7  and  C_8 
REMARK    4  A    between atoms: C_8  and  C_9 
REMARK    5  A    between atoms: C_9  and  C_10 
REMARK    6  A    between atoms: C_11  and  C_12 
ROOT
HETATM    1  C   UNL     1     -43.300  56.605 -53.096  1.00  0.00     0.005 C 
HETATM    2  C   UNL     1     -42.868  55.491 -52.373  1.00  0.00     0.069 C 
HETATM    3  N   UNL     1     -43.392  55.658 -51.115  1.00  0.00    -0.277 N 
HETATM    4  H   UNL     1     -43.220  55.099 -50.285  1.00  0.00     0.189 HD
HETATM    5  N   UNL     1     -44.265  56.665 -51.027  1.00  0.00    -0.179 NA
HETATM    6  C   UNL     1     -44.097  57.342 -52.165  1.00  0.00     0.059 C 
HETATM    7  C   UNL     1     -44.742  58.675 -52.310  1.00  0.00     0.073 C 
ENDROOT
BRANCH   1   8
HETATM    8  C   UNL     1     -42.967  56.971 -54.515  1.00  0.00     0.146 C 
BRANCH   8   9
HETATM    9  C   UNL     1     -41.956  58.095 -54.629  1.00  0.00     0.222 C 
HETATM   10  N   UNL     1     -42.103  59.091 -55.553  1.00  0.00    -0.359 N 
HETATM   11  H   UNL     1     -41.270  59.676 -55.544  1.00  0.00     0.162 HD
HETATM   12  O   UNL     1     -40.986  58.174 -53.876  1.00  0.00    -0.273 OA
BRANCH  10  13
HETATM   13  C   UNL     1     -42.937  59.146 -56.746  1.00  0.00     0.155 C 
BRANCH  13  14
HETATM   14  C   UNL     1     -42.213  58.799 -58.049  1.00  0.00     0.206 C 
HETATM   15  N   UNL     1     -42.306  57.351 -58.511  1.00  0.00    -0.066 N 
HETATM   16  H   UNL     1     -41.710  56.775 -57.894  1.00  0.00     0.280 HD
HETATM   17  C   UNL     1     -41.637  57.435 -59.873  1.00  0.00     0.235 C 
HETATM   18  C   UNL     1     -42.127  58.758 -60.456  1.00  0.00     0.030 C 
HETATM   19  C   UNL     1     -42.634  59.588 -59.278  1.00  0.00     0.036 C 
BRANCH  15  20
HETATM   20  C   UNL     1     -43.672  56.703 -58.609  1.00  0.00     0.231 C 
HETATM   21  C   UNL     1     -43.632  55.405 -59.394  1.00  0.00     0.034 C 
ENDBRANCH  15  20
ENDBRANCH  13  14
ENDBRANCH  10  13
ENDBRANCH   8   9
ENDBRANCH   1   8
BRANCH   2  22
HETATM   22  C   UNL     1     -42.009  54.351 -52.701  1.00  0.00    -0.007 A 
HETATM   23  C   UNL     1     -41.033  53.896 -51.805  1.00  0.00     0.015 A 
HETATM   24  C   UNL     1     -40.193  52.831 -52.146  1.00  0.00     0.024 A 
HETATM   25  C   UNL     1     -40.331  52.206 -53.381  1.00  0.00     0.034 A 
HETATM   26 CL   UNL     1     -39.290  50.905 -53.805  1.00  0.00    -0.084 Cl
HETATM   27  C   UNL     1     -41.308  52.629 -54.276  1.00  0.00     0.024 A 
HETATM   28  C   UNL     1     -42.145  53.697 -53.937  1.00  0.00     0.015 A 
ENDBRANCH   2  22
TORSDOF 6
ENDMDL
MODEL 8
REMARK VINA RESULT:      -7.2      3.001      4.854
REMARK  6 active torsions:
REMARK  status: ('A' for Active; 'I' for Inactive)
REMARK    1  A    between atoms: C_2  and  N_3 
REMARK    2  A    between atoms: C_5  and  C_6 
REMARK    3  A    between atoms: C_6  and  N_7 
REMARK       I    between atoms: N_7  and  C_8 
REMARK    4  A    between atoms: C_8  and  C_9 
REMARK    5  A    between atoms: C_9  and  C_10 
REMARK    6  A    between atoms: C_11  and  C_12 
ROOT
HETATM    1  C   UNL     1     -41.153  53.827 -52.520  1.00  0.00     0.005 C 
HETATM    2  C   UNL     1     -41.384  54.780 -51.525  1.00  0.00     0.069 C 
HETATM    3  N   UNL     1     -40.615  54.376 -50.462  1.00  0.00    -0.277 N 
HETATM    4  H   UNL     1     -40.590  54.765 -49.524  1.00  0.00     0.189 HD
HETATM    5  N   UNL     1     -39.780  53.376 -50.752  1.00  0.00    -0.179 NA
HETATM    6  C   UNL     1     -40.206  52.928 -51.935  1.00  0.00     0.059 C 
HETATM    7  C   UNL     1     -39.654  51.651 -52.462  1.00  0.00     0.073 C 
ENDROOT
BRANCH   1   8
HETATM    8  C   UNL     1     -41.788  53.738 -53.879  1.00  0.00     0.146 C 
BRANCH   8   9
HETATM    9  C   UNL     1     -40.944  54.343 -54.983  1.00  0.00     0.222 C 
HETATM   10  N   UNL     1     -41.172  55.612 -55.436  1.00  0.00    -0.359 N 
HETATM   11  H   UNL     1     -40.581  55.786 -56.245  1.00  0.00     0.162 HD
HETATM   12  O   UNL     1     -40.003  53.734 -55.489  1.00  0.00    -0.273 OA
BRANCH  10  13
HETATM   13  C   UNL     1     -42.339  56.469 -55.273  1.00  0.00     0.155 C 
BRANCH  13  14
HETATM   14  C   UNL     1     -43.282  56.501 -56.478  1.00  0.00     0.206 C 
HETATM   15  N   UNL     1     -43.431  57.840 -57.187  1.00  0.00    -0.066 N 
HETATM   16  H   UNL     1     -43.995  58.465 -56.585  1.00  0.00     0.280 HD
HETATM   17  C   UNL     1     -44.278  57.445 -58.385  1.00  0.00     0.235 C 
HETATM   18  C   UNL     1     -43.725  56.087 -58.809  1.00  0.00     0.030 C 
HETATM   19  C   UNL     1     -42.956  55.539 -57.609  1.00  0.00     0.036 C 
BRANCH  15  20
HETATM   20  C   UNL     1     -42.181  58.580 -57.618  1.00  0.00     0.231 C 
HETATM   21  C   UNL     1     -42.481  59.654 -58.646  1.00  0.00     0.034 C 
ENDBRANCH  15  20
ENDBRANCH  13  14
ENDBRANCH  10  13
ENDBRANCH   8   9
ENDBRANCH   1   8
BRANCH   2  22
HETATM   22  C   UNL     1     -42.250  55.957 -51.443  1.00  0.00    -0.007 A 
HETATM   23  C   UNL     1     -43.592  55.845 -51.058  1.00  0.00     0.015 A 
HETATM   24  C   UNL     1     -44.420  56.973 -51.020  1.00  0.00     0.024 A 
HETATM   25  C   UNL     1     -43.907  58.222 -51.357  1.00  0.00     0.034 A 
HETATM   26 CL   UNL     1     -44.927  59.604 -51.324  1.00  0.00    -0.084 Cl
HETATM   27  C   UNL     1     -42.571  58.357 -51.721  1.00  0.00     0.024 A 
HETATM   28  C   UNL     1     -41.746  57.229 -51.764  1.00  0.00     0.015 A 
ENDBRANCH   2  22
TORSDOF 6
ENDMDL
MODEL 9
REMARK VINA RESULT:      -7.2      2.630      6.213
REMARK  6 active torsions:
REMARK  status: ('A' for Active; 'I' for Inactive)
REMARK    1  A    between atoms: C_2  and  N_3 
REMARK    2  A    between atoms: C_5  and  C_6 
REMARK    3  A    between atoms: C_6  and  N_7 
REMARK       I    between atoms: N_7  and  C_8 
REMARK    4  A    between atoms: C_8  and  C_9 
REMARK    5  A    between atoms: C_9  and  C_10 
REMARK    6  A    between atoms: C_11  and  C_12 
ROOT
HETATM    1  C   UNL     1     -42.328  57.438 -54.622  1.00  0.00     0.005 C 
HETATM    2  C   UNL     1     -42.030  56.365 -55.465  1.00  0.00     0.069 C 
HETATM    3  N   UNL     1     -42.198  56.853 -56.737  1.00  0.00    -0.277 N 
HETATM    4  H   UNL     1     -42.162  56.343 -57.614  1.00  0.00     0.189 HD
HETATM    5  N   UNL     1     -42.387  58.174 -56.784  1.00  0.00    -0.179 NA
HETATM    6  C   UNL     1     -42.629  58.514 -55.515  1.00  0.00     0.059 C 
HETATM    7  C   UNL     1     -43.124  59.886 -55.221  1.00  0.00     0.073 C 
ENDROOT
BRANCH   1   8
HETATM    8  C   UNL     1     -42.369  57.450 -53.121  1.00  0.00     0.146 C 
BRANCH   8   9
HETATM    9  C   UNL     1     -43.680  56.952 -52.545  1.00  0.00     0.222 C 
HETATM   10  N   UNL     1     -43.748  55.783 -51.842  1.00  0.00    -0.359 N 
HETATM   11  H   UNL     1     -44.723  55.574 -51.643  1.00  0.00     0.162 HD
HETATM   12  O   UNL     1     -44.723  57.595 -52.657  1.00  0.00    -0.273 OA
BRANCH  10  13
HETATM   13  C   UNL     1     -42.806  54.674 -51.775  1.00  0.00     0.155 C 
BRANCH  13  14
HETATM   14  C   UNL     1     -42.260  54.380 -50.376  1.00  0.00     0.206 C 
HETATM   15  N   UNL     1     -41.223  53.271 -50.272  1.00  0.00    -0.066 N 
HETATM   16  H   UNL     1     -41.703  52.364 -50.400  1.00  0.00     0.280 HD
HETATM   17  C   UNL     1     -40.811  53.390 -48.814  1.00  0.00     0.235 C 
HETATM   18  C   UNL     1     -40.774  54.893 -48.552  1.00  0.00     0.030 C 
HETATM   19  C   UNL     1     -41.603  55.546 -49.656  1.00  0.00     0.036 C 
BRANCH  15  20
HETATM   20  C   UNL     1     -40.016  53.314 -51.188  1.00  0.00     0.231 C 
HETATM   21  C   UNL     1     -39.390  51.944 -51.368  1.00  0.00     0.034 C 
ENDBRANCH  15  20
ENDBRANCH  13  14
ENDBRANCH  10  13
ENDBRANCH   8   9
ENDBRANCH   1   8
BRANCH   2  22
HETATM   22  C   UNL     1     -41.664  54.968 -55.222  1.00  0.00    -0.007 A 
HETATM   23  C   UNL     1     -42.641  53.970 -55.120  1.00  0.00     0.015 A 
HETATM   24  C   UNL     1     -42.282  52.645 -54.849  1.00  0.00     0.024 A 
HETATM   25  C   UNL     1     -40.941  52.308 -54.689  1.00  0.00     0.034 A 
HETATM   26 CL   UNL     1     -40.501  50.683 -54.344  1.00  0.00    -0.084 Cl
HETATM   27  C   UNL     1     -39.954  53.282 -54.808  1.00  0.00     0.024 A 
HETATM   28  C   UNL     1     -40.314  54.606 -55.074  1.00  0.00     0.015 A 
ENDBRANCH   2  22
TORSDOF 6
ENDMDL
MODEL 10
REMARK VINA RESULT:      -7.2      2.858      4.798
REMARK  6 active torsions:
REMARK  status: ('A' for Active; 'I' for Inactive)
REMARK    1  A    between atoms: C_2  and  N_3 
REMARK    2  A    between atoms: C_5  and  C_6 
REMARK    3  A    between atoms: C_6  and  N_7 
REMARK       I    between atoms: N_7  and  C_8 
REMARK    4  A    between atoms: C_8  and  C_9 
REMARK    5  A    between atoms: C_9  and  C_10 
REMARK    6  A    between atoms: C_11  and  C_12 
ROOT
HETATM    1  C   UNL     1     -41.121  54.474 -53.719  1.00  0.00     0.005 C 
HETATM    2  C   UNL     1     -41.292  55.095 -52.480  1.00  0.00     0.069 C 
HETATM    3  N   UNL     1     -40.844  54.180 -51.559  1.00  0.00    -0.277 N 
HETATM    4  H   UNL     1     -40.894  54.235 -50.546  1.00  0.00     0.189 HD
HETATM    5  N   UNL     1     -40.234  53.125 -52.104  1.00  0.00    -0.179 NA
HETATM    6  C   UNL     1     -40.536  53.208 -53.401  1.00  0.00     0.059 C 
HETATM    7  C   UNL     1     -40.221  52.055 -54.288  1.00  0.00     0.073 C 
ENDROOT
BRANCH   1   8
HETATM    8  C   UNL     1     -41.506  54.995 -55.074  1.00  0.00     0.146 C 
BRANCH   8   9
HETATM    9  C   UNL     1     -42.940  54.687 -55.458  1.00  0.00     0.222 C 
HETATM   10  N   UNL     1     -43.415  54.964 -56.709  1.00  0.00    -0.359 N 
HETATM   11  H   UNL     1     -44.417  54.789 -56.728  1.00  0.00     0.162 HD
HETATM   12  O   UNL     1     -43.719  54.144 -54.675  1.00  0.00    -0.273 OA
BRANCH  10  13
HETATM   13  C   UNL     1     -42.876  55.836 -57.743  1.00  0.00     0.155 C 
BRANCH  13  14
HETATM   14  C   UNL     1     -43.925  56.459 -58.667  1.00  0.00     0.206 C 
HETATM   15  N   UNL     1     -45.039  57.248 -57.992  1.00  0.00    -0.066 N 
HETATM   16  H   UNL     1     -45.678  56.578 -57.530  1.00  0.00     0.280 HD
HETATM   17  C   UNL     1     -45.756  57.833 -59.197  1.00  0.00     0.235 C 
HETATM   18  C   UNL     1     -44.633  58.212 -60.159  1.00  0.00     0.030 C 
HETATM   19  C   UNL     1     -43.402  57.421 -59.721  1.00  0.00     0.036 C 
BRANCH  15  20
HETATM   20  C   UNL     1     -44.668  58.328 -56.996  1.00  0.00     0.231 C 
HETATM   21  C   UNL     1     -45.122  57.987 -55.590  1.00  0.00     0.034 C 
ENDBRANCH  15  20
ENDBRANCH  13  14
ENDBRANCH  10  13
ENDBRANCH   8   9
ENDBRANCH   1   8
BRANCH   2  22
HETATM   22  C   UNL     1     -41.852  56.384 -52.070  1.00  0.00    -0.007 A 
HETATM   23  C   UNL     1     -43.215  56.665 -52.226  1.00  0.00     0.015 A 
HETATM   24  C   UNL     1     -43.732  57.915 -51.867  1.00  0.00     0.024 A 
HETATM   25  C   UNL     1     -42.889  58.888 -51.339  1.00  0.00     0.034 A 
HETATM   26 CL   UNL     1     -43.521  60.428 -50.910  1.00  0.00    -0.084 Cl
HETATM   27  C   UNL     1     -41.536  58.621 -51.157  1.00  0.00     0.024 A 
HETATM   28  C   UNL     1     -41.019  57.374 -51.521  1.00  0.00     0.015 A 
ENDBRANCH   2  22
TORSDOF 6
ENDMDL
