MODEL 1
REMARK VINA RESULT:      -8.6      0.000      0.000
REMARK  7 active torsions:
REMARK  status: ('A' for Active; 'I' for Inactive)
REMARK    1  A    between atoms: N_1  and  C_5 
REMARK    2  A    between atoms: C_11  and  N_12 
REMARK       I    between atoms: N_12  and  C_13 
REMARK    3  A    between atoms: C_13  and  C_15 
REMARK    4  A    between atoms: C_19  and  C_20 
REMARK    5  A    between atoms: C_20  and  N_21 
REMARK       I    between atoms: N_21  and  C_22 
REMARK    6  A    between atoms: C_22  and  C_24 
REMARK    7  A    between atoms: C_27  and  C_30 
ROOT
HETATM    1  C   UNL     1     -42.980  60.092 -53.087  1.00  0.00     0.033 A 
HETATM    2  C   UNL     1     -43.527  61.289 -52.609  1.00  0.00     0.017 A 
HETATM    3  C   UNL     1     -43.254  61.708 -51.307  1.00  0.00     0.002 A 
HETATM    4  C   UNL     1     -42.435  60.939 -50.479  1.00  0.00     0.009 A 
HETATM    5  C   UNL     1     -41.861  59.754 -50.953  1.00  0.00    -0.040 A 
HETATM    6  C   UNL     1     -42.132  59.341 -52.266  1.00  0.00     0.026 A 
ENDROOT
BRANCH   1   7
HETATM    7  C   UNL     1     -43.287  59.668 -54.474  1.00  0.00     0.257 C 
HETATM    8  N   UNL     1     -43.488  58.272 -54.702  1.00  0.00    -0.303 N 
HETATM    9  H   UNL     1     -43.591  57.639 -53.923  1.00  0.00     0.171 HD
HETATM   10  O   UNL     1     -43.369  60.460 -55.393  1.00  0.00    -0.267 OA
BRANCH   8  11
HETATM   11  C   UNL     1     -43.569  57.724 -55.909  1.00  0.00     0.152 A 
HETATM   12  N   UNL     1     -44.575  58.043 -56.753  1.00  0.00    -0.339 N 
HETATM   13  C   UNL     1     -44.539  57.345 -57.942  1.00  0.00     0.024 A 
HETATM   14  H   UNL     1     -45.264  58.747 -56.494  1.00  0.00     0.168 HD
HETATM   15  C   UNL     1     -45.589  57.525 -58.975  1.00  0.00     0.060 C 
HETATM   16  C   UNL     1     -43.487  56.478 -58.046  1.00  0.00     0.011 A 
HETATM   17  C   UNL     1     -45.136  56.925 -60.327  1.00  0.00     0.039 C 
HETATM   18  C   UNL     1     -44.362  55.588 -60.228  1.00  0.00     0.188 C 
HETATM   19  C   UNL     1     -43.161  55.649 -59.248  1.00  0.00     0.081 C 
HETATM   20  S   UNL     1     -42.541  56.508 -56.632  1.00  0.00    -0.056 SA
BRANCH  18  21
HETATM   21  N   UNL     1     -45.297  54.486 -59.832  1.00  0.00    -0.075 N 
HETATM   22  H   UNL     1     -45.814  54.116 -60.646  1.00  0.00     0.274 HD
HETATM   23  H   UNL     1     -44.774  53.676 -59.458  1.00  0.00     0.274 HD
HETATM   24  H   UNL     1     -45.989  54.742 -59.116  1.00  0.00     0.274 HD
ENDBRANCH  18  21
ENDBRANCH   8  11
ENDBRANCH   1   7
BRANCH   5  25
HETATM   25  C   UNL     1     -41.019  58.885 -50.053  1.00  0.00     0.161 C 
BRANCH  25  26
HETATM   26  N   UNL     1     -40.752  57.603 -50.664  1.00  0.00    -0.353 N 
HETATM   27  C   UNL     1     -40.924  56.406 -50.000  1.00  0.00     0.251 C 
HETATM   28  O   UNL     1     -41.271  56.319 -48.824  1.00  0.00    -0.268 OA
HETATM   29  H   UNL     1     -40.626  57.594 -51.667  1.00  0.00     0.163 HD
BRANCH  27  30
HETATM   30  C   UNL     1     -40.682  55.184 -50.821  1.00  0.00     0.032 A 
HETATM   31  C   UNL     1     -41.042  55.123 -52.173  1.00  0.00     0.018 A 
HETATM   32  C   UNL     1     -40.837  53.947 -52.909  1.00  0.00     0.015 A 
HETATM   33  C   UNL     1     -40.264  52.817 -52.308  1.00  0.00    -0.005 A 
HETATM   34  C   UNL     1     -39.879  52.902 -50.960  1.00  0.00     0.015 A 
HETATM   35  C   UNL     1     -40.082  54.075 -50.222  1.00  0.00     0.018 A 
BRANCH  33  36
HETATM   36  C   UNL     1     -40.051  51.570 -53.039  1.00  0.00     0.091 A 
HETATM   37  C   UNL     1     -40.302  51.383 -54.389  1.00  0.00     0.099 A 
HETATM   38  S   UNL     1     -39.916  49.752 -54.766  1.00  0.00    -0.008 SA
HETATM   39  N   UNL     1     -39.462  49.400 -53.197  1.00  0.00    -0.037 NA
HETATM   40  N   UNL     1     -39.581  50.434 -52.382  1.00  0.00    -0.169 NA
ENDBRANCH  33  36
ENDBRANCH  27  30
ENDBRANCH  25  26
ENDBRANCH   5  25
TORSDOF 7
ENDMDL
MODEL 2
REMARK VINA RESULT:      -8.4      2.958      7.141
REMARK  7 active torsions:
REMARK  status: ('A' for Active; 'I' for Inactive)
REMARK    1  A    between atoms: N_1  and  C_5 
REMARK    2  A    between atoms: C_11  and  N_12 
REMARK       I    between atoms: N_12  and  C_13 
REMARK    3  A    between atoms: C_13  and  C_15 
REMARK    4  A    between atoms: C_19  and  C_20 
REMARK    5  A    between atoms: C_20  and  N_21 
REMARK       I    between atoms: N_21  and  C_22 
REMARK    6  A    between atoms: C_22  and  C_24 
REMARK    7  A    between atoms: C_27  and  C_30 
ROOT
HETATM    1  C   UNL     1     -41.296  54.037 -53.241  1.00  0.00     0.033 A 
HETATM    2  C   UNL     1     -40.596  52.832 -53.102  1.00  0.00     0.017 A 
HETATM    3  C   UNL     1     -39.950  52.537 -51.902  1.00  0.00     0.002 A 
HETATM    4  C   UNL     1     -40.000  53.438 -50.837  1.00  0.00     0.009 A 
HETATM    5  C   UNL     1     -40.717  54.634 -50.954  1.00  0.00    -0.040 A 
HETATM    6  C   UNL     1     -41.372  54.922 -52.161  1.00  0.00     0.026 A 
ENDROOT
BRANCH   1   7
HETATM    7  C   UNL     1     -41.973  54.328 -54.527  1.00  0.00     0.257 C 
HETATM    8  N   UNL     1     -41.849  55.653 -55.047  1.00  0.00    -0.303 N 
HETATM    9  H   UNL     1     -41.187  56.298 -54.643  1.00  0.00     0.171 HD
HETATM   10  O   UNL     1     -42.611  53.486 -55.131  1.00  0.00    -0.267 OA
BRANCH   8  11
HETATM   11  C   UNL     1     -42.557  56.115 -56.072  1.00  0.00     0.152 A 
HETATM   12  N   UNL     1     -42.418  55.588 -57.308  1.00  0.00    -0.339 N 
HETATM   13  C   UNL     1     -43.186  56.217 -58.265  1.00  0.00     0.024 A 
HETATM   14  H   UNL     1     -41.800  54.794 -57.465  1.00  0.00     0.168 HD
HETATM   15  C   UNL     1     -43.130  55.810 -59.691  1.00  0.00     0.060 C 
HETATM   16  C   UNL     1     -43.951  57.241 -57.778  1.00  0.00     0.011 A 
HETATM   17  C   UNL     1     -44.323  56.404 -60.477  1.00  0.00     0.039 C 
HETATM   18  C   UNL     1     -44.707  57.854 -60.096  1.00  0.00     0.188 C 
HETATM   19  C   UNL     1     -44.930  58.047 -58.573  1.00  0.00     0.081 C 
HETATM   20  S   UNL     1     -43.692  57.445 -56.109  1.00  0.00    -0.056 SA
BRANCH  18  21
HETATM   21  N   UNL     1     -43.658  58.805 -60.589  1.00  0.00    -0.075 N 
HETATM   22  H   UNL     1     -43.330  59.431 -59.836  1.00  0.00     0.274 HD
HETATM   23  H   UNL     1     -42.813  58.294 -60.897  1.00  0.00     0.274 HD
HETATM   24  H   UNL     1     -43.946  59.395 -61.380  1.00  0.00     0.274 HD
ENDBRANCH  18  21
ENDBRANCH   8  11
ENDBRANCH   1   7
BRANCH   5  25
HETATM   25  C   UNL     1     -40.735  55.643 -49.833  1.00  0.00     0.161 C 
BRANCH  25  26
HETATM   26  N   UNL     1     -41.676  56.706 -50.099  1.00  0.00    -0.353 N 
HETATM   27  C   UNL     1     -41.298  57.933 -50.603  1.00  0.00     0.251 C 
HETATM   28  O   UNL     1     -40.132  58.251 -50.826  1.00  0.00    -0.268 OA
HETATM   29  H   UNL     1     -42.656  56.457 -50.097  1.00  0.00     0.163 HD
BRANCH  27  30
HETATM   30  C   UNL     1     -42.420  58.872 -50.896  1.00  0.00     0.032 A 
HETATM   31  C   UNL     1     -42.316  60.245 -50.639  1.00  0.00     0.018 A 
HETATM   32  C   UNL     1     -43.401  61.096 -50.890  1.00  0.00     0.015 A 
HETATM   33  C   UNL     1     -44.603  60.593 -51.406  1.00  0.00    -0.005 A 
HETATM   34  C   UNL     1     -44.683  59.219 -51.689  1.00  0.00     0.015 A 
HETATM   35  C   UNL     1     -43.601  58.365 -51.440  1.00  0.00     0.018 A 
BRANCH  33  36
HETATM   36  C   UNL     1     -45.760  61.448 -51.664  1.00  0.00     0.091 A 
HETATM   37  C   UNL     1     -45.961  62.705 -51.116  1.00  0.00     0.099 A 
HETATM   38  S   UNL     1     -47.465  63.290 -51.703  1.00  0.00    -0.008 SA
HETATM   39  N   UNL     1     -47.755  61.912 -52.604  1.00  0.00    -0.037 NA
HETATM   40  N   UNL     1     -46.789  61.016 -52.498  1.00  0.00    -0.169 NA
ENDBRANCH  33  36
ENDBRANCH  27  30
ENDBRANCH  25  26
ENDBRANCH   5  25
TORSDOF 7
ENDMDL
MODEL 3
REMARK VINA RESULT:      -8.3      2.022      2.463
REMARK  7 active torsions:
REMARK  status: ('A' for Active; 'I' for Inactive)
REMARK    1  A    between atoms: N_1  and  C_5 
REMARK    2  A    between atoms: C_11  and  N_12 
REMARK       I    between atoms: N_12  and  C_13 
REMARK    3  A    between atoms: C_13  and  C_15 
REMARK    4  A    between atoms: C_19  and  C_20 
REMARK    5  A    between atoms: C_20  and  N_21 
REMARK       I    between atoms: N_21  and  C_22 
REMARK    6  A    between atoms: C_22  and  C_24 
REMARK    7  A    between atoms: C_27  and  C_30 
ROOT
HETATM    1  C   UNL     1     -45.180  60.741 -54.343  1.00  0.00     0.033 A 
HETATM    2  C   UNL     1     -45.351  62.130 -54.320  1.00  0.00     0.017 A 
HETATM    3  C   UNL     1     -45.228  62.827 -53.118  1.00  0.00     0.002 A 
HETATM    4  C   UNL     1     -44.932  62.144 -51.937  1.00  0.00     0.009 A 
HETATM    5  C   UNL     1     -44.732  60.759 -51.951  1.00  0.00    -0.040 A 
HETATM    6  C   UNL     1     -44.849  60.064 -53.163  1.00  0.00     0.026 A 
ENDROOT
BRANCH   1   7
HETATM    7  C   UNL     1     -45.317  60.023 -55.632  1.00  0.00     0.257 C 
HETATM    8  N   UNL     1     -44.818  58.685 -55.694  1.00  0.00    -0.303 N 
HETATM    9  H   UNL     1     -44.550  58.204 -54.849  1.00  0.00     0.171 HD
HETATM   10  O   UNL     1     -45.833  60.534 -56.608  1.00  0.00    -0.267 OA
BRANCH   8  11
HETATM   11  C   UNL     1     -44.689  57.995 -56.821  1.00  0.00     0.152 A 
HETATM   12  N   UNL     1     -45.758  57.734 -57.604  1.00  0.00    -0.339 N 
HETATM   13  C   UNL     1     -45.459  56.963 -58.707  1.00  0.00     0.024 A 
HETATM   14  H   UNL     1     -46.677  58.103 -57.365  1.00  0.00     0.168 HD
HETATM   15  C   UNL     1     -46.513  56.531 -59.658  1.00  0.00     0.060 C 
HETATM   16  C   UNL     1     -44.137  56.624 -58.806  1.00  0.00     0.011 A 
HETATM   17  C   UNL     1     -45.885  56.004 -60.970  1.00  0.00     0.039 C 
HETATM   18  C   UNL     1     -44.603  55.156 -60.792  1.00  0.00     0.188 C 
HETATM   19  C   UNL     1     -43.519  55.859 -59.934  1.00  0.00     0.081 C 
HETATM   20  S   UNL     1     -43.256  57.251 -57.492  1.00  0.00    -0.056 SA
BRANCH  18  21
HETATM   21  N   UNL     1     -44.951  53.825 -60.197  1.00  0.00    -0.075 N 
HETATM   22  H   UNL     1     -45.945  53.590 -60.349  1.00  0.00     0.274 HD
HETATM   23  H   UNL     1     -44.424  53.065 -60.660  1.00  0.00     0.274 HD
HETATM   24  H   UNL     1     -44.763  53.739 -59.190  1.00  0.00     0.274 HD
ENDBRANCH  18  21
ENDBRANCH   8  11
ENDBRANCH   1   7
BRANCH   5  25
HETATM   25  C   UNL     1     -44.466  59.999 -50.675  1.00  0.00     0.161 C 
BRANCH  25  26
HETATM   26  N   UNL     1     -43.693  58.806 -50.928  1.00  0.00    -0.353 N 
HETATM   27  C   UNL     1     -44.250  57.544 -50.954  1.00  0.00     0.251 C 
HETATM   28  O   UNL     1     -45.434  57.313 -50.720  1.00  0.00    -0.268 OA
HETATM   29  H   UNL     1     -42.758  58.937 -51.289  1.00  0.00     0.163 HD
BRANCH  27  30
HETATM   30  C   UNL     1     -43.311  56.443 -51.318  1.00  0.00     0.032 A 
HETATM   31  C   UNL     1     -42.098  56.696 -51.970  1.00  0.00     0.018 A 
HETATM   32  C   UNL     1     -41.254  55.636 -52.334  1.00  0.00     0.015 A 
HETATM   33  C   UNL     1     -41.605  54.310 -52.046  1.00  0.00    -0.005 A 
HETATM   34  C   UNL     1     -42.810  54.072 -51.363  1.00  0.00     0.015 A 
HETATM   35  C   UNL     1     -43.655  55.128 -50.998  1.00  0.00     0.018 A 
BRANCH  33  36
HETATM   36  C   UNL     1     -40.759  53.180 -52.424  1.00  0.00     0.091 A 
HETATM   37  C   UNL     1     -40.722  52.596 -53.680  1.00  0.00     0.099 A 
HETATM   38  S   UNL     1     -39.596  51.301 -53.616  1.00  0.00    -0.008 SA
HETATM   39  N   UNL     1     -39.238  51.570 -52.006  1.00  0.00    -0.037 NA
HETATM   40  N   UNL     1     -39.916  52.581 -51.491  1.00  0.00    -0.169 NA
ENDBRANCH  33  36
ENDBRANCH  27  30
ENDBRANCH  25  26
ENDBRANCH   5  25
TORSDOF 7
ENDMDL
MODEL 4
REMARK VINA RESULT:      -8.1      6.292     10.510
REMARK  7 active torsions:
REMARK  status: ('A' for Active; 'I' for Inactive)
REMARK    1  A    between atoms: N_1  and  C_5 
REMARK    2  A    between atoms: C_11  and  N_12 
REMARK       I    between atoms: N_12  and  C_13 
REMARK    3  A    between atoms: C_13  and  C_15 
REMARK    4  A    between atoms: C_19  and  C_20 
REMARK    5  A    between atoms: C_20  and  N_21 
REMARK       I    between atoms: N_21  and  C_22 
REMARK    6  A    between atoms: C_22  and  C_24 
REMARK    7  A    between atoms: C_27  and  C_30 
ROOT
HETATM    1  C   UNL     1     -45.609  61.092 -49.565  1.00  0.00     0.033 A 
HETATM    2  C   UNL     1     -44.978  61.390 -48.351  1.00  0.00     0.017 A 
HETATM    3  C   UNL     1     -45.107  62.661 -47.792  1.00  0.00     0.002 A 
HETATM    4  C   UNL     1     -45.865  63.638 -48.439  1.00  0.00     0.009 A 
HETATM    5  C   UNL     1     -46.522  63.347 -49.639  1.00  0.00    -0.040 A 
HETATM    6  C   UNL     1     -46.395  62.064 -50.193  1.00  0.00     0.026 A 
ENDROOT
BRANCH   1   7
HETATM    7  C   UNL     1     -45.455  59.734 -50.139  1.00  0.00     0.257 C 
HETATM    8  N   UNL     1     -44.174  59.389 -50.671  1.00  0.00    -0.303 N 
HETATM    9  H   UNL     1     -43.376  59.982 -50.499  1.00  0.00     0.171 HD
HETATM   10  O   UNL     1     -46.369  58.932 -50.164  1.00  0.00    -0.267 OA
BRANCH   8  11
HETATM   11  C   UNL     1     -43.942  58.298 -51.391  1.00  0.00     0.152 A 
HETATM   12  N   UNL     1     -43.248  57.259 -50.877  1.00  0.00    -0.339 N 
HETATM   13  C   UNL     1     -43.052  56.230 -51.773  1.00  0.00     0.024 A 
HETATM   14  H   UNL     1     -42.930  57.277 -49.909  1.00  0.00     0.168 HD
HETATM   15  C   UNL     1     -42.269  55.023 -51.406  1.00  0.00     0.060 C 
HETATM   16  C   UNL     1     -43.609  56.449 -53.003  1.00  0.00     0.011 A 
HETATM   17  C   UNL     1     -42.500  53.887 -52.430  1.00  0.00     0.039 C 
HETATM   18  C   UNL     1     -42.586  54.339 -53.907  1.00  0.00     0.188 C 
HETATM   19  C   UNL     1     -43.615  55.477 -54.140  1.00  0.00     0.081 C 
HETATM   20  S   UNL     1     -44.366  57.972 -53.056  1.00  0.00    -0.056 SA
BRANCH  18  21
HETATM   21  N   UNL     1     -41.231  54.761 -54.390  1.00  0.00    -0.075 N 
HETATM   22  H   UNL     1     -40.819  54.058 -55.025  1.00  0.00     0.274 HD
HETATM   23  H   UNL     1     -41.293  55.625 -54.955  1.00  0.00     0.274 HD
HETATM   24  H   UNL     1     -40.545  54.946 -53.647  1.00  0.00     0.274 HD
ENDBRANCH  18  21
ENDBRANCH   8  11
ENDBRANCH   1   7
BRANCH   5  25
HETATM   25  C   UNL     1     -47.300  64.407 -50.378  1.00  0.00     0.161 C 
BRANCH  25  26
HETATM   26  N   UNL     1     -48.293  63.819 -51.247  1.00  0.00    -0.353 N 
HETATM   27  C   UNL     1     -49.613  63.663 -50.879  1.00  0.00     0.251 C 
HETATM   28  O   UNL     1     -50.055  63.962 -49.771  1.00  0.00    -0.268 OA
HETATM   29  H   UNL     1     -48.038  63.708 -52.219  1.00  0.00     0.163 HD
BRANCH  27  30
HETATM   30  C   UNL     1     -50.508  63.118 -51.940  1.00  0.00     0.032 A 
HETATM   31  C   UNL     1     -51.898  63.281 -51.886  1.00  0.00     0.018 A 
HETATM   32  C   UNL     1     -52.716  62.725 -52.880  1.00  0.00     0.015 A 
HETATM   33  C   UNL     1     -52.160  62.003 -53.945  1.00  0.00    -0.005 A 
HETATM   34  C   UNL     1     -50.762  61.875 -54.005  1.00  0.00     0.015 A 
HETATM   35  C   UNL     1     -49.941  62.429 -53.014  1.00  0.00     0.018 A 
BRANCH  33  36
HETATM   36  C   UNL     1     -52.982  61.396 -54.989  1.00  0.00     0.091 A 
HETATM   37  C   UNL     1     -53.905  62.070 -55.772  1.00  0.00     0.099 A 
HETATM   38  S   UNL     1     -54.625  60.923 -56.828  1.00  0.00    -0.008 SA
HETATM   39  N   UNL     1     -53.721  59.656 -56.218  1.00  0.00    -0.037 NA
HETATM   40  N   UNL     1     -52.898  60.030 -55.254  1.00  0.00    -0.169 NA
ENDBRANCH  33  36
ENDBRANCH  27  30
ENDBRANCH  25  26
ENDBRANCH   5  25
TORSDOF 7
ENDMDL
MODEL 5
REMARK VINA RESULT:      -8.1      4.598      6.233
REMARK  7 active torsions:
REMARK  status: ('A' for Active; 'I' for Inactive)
REMARK    1  A    between atoms: N_1  and  C_5 
REMARK    2  A    between atoms: C_11  and  N_12 
REMARK       I    between atoms: N_12  and  C_13 
REMARK    3  A    between atoms: C_13  and  C_15 
REMARK    4  A    between atoms: C_19  and  C_20 
REMARK    5  A    between atoms: C_20  and  N_21 
REMARK       I    between atoms: N_21  and  C_22 
REMARK    6  A    between atoms: C_22  and  C_24 
REMARK    7  A    between atoms: C_27  and  C_30 
ROOT
HETATM    1  C   UNL     1     -44.395  60.688 -51.680  1.00  0.00     0.033 A 
HETATM    2  C   UNL     1     -43.824  60.910 -50.422  1.00  0.00     0.017 A 
HETATM    3  C   UNL     1     -42.471  60.645 -50.214  1.00  0.00     0.002 A 
HETATM    4  C   UNL     1     -41.682  60.159 -51.258  1.00  0.00     0.009 A 
HETATM    5  C   UNL     1     -42.234  59.956 -52.528  1.00  0.00    -0.040 A 
HETATM    6  C   UNL     1     -43.594  60.233 -52.733  1.00  0.00     0.026 A 
ENDROOT
BRANCH   1   7
HETATM    7  C   UNL     1     -45.836  60.976 -51.875  1.00  0.00     0.257 C 
HETATM    8  N   UNL     1     -46.181  61.958 -52.853  1.00  0.00    -0.303 N 
HETATM    9  H   UNL     1     -45.484  62.301 -53.497  1.00  0.00     0.171 HD
HETATM   10  O   UNL     1     -46.704  60.409 -51.238  1.00  0.00    -0.267 OA
BRANCH   8  11
HETATM   11  C   UNL     1     -47.401  62.463 -52.997  1.00  0.00     0.152 A 
HETATM   12  N   UNL     1     -48.495  61.674 -52.923  1.00  0.00    -0.339 N 
HETATM   13  C   UNL     1     -49.677  62.348 -53.147  1.00  0.00     0.024 A 
HETATM   14  H   UNL     1     -48.404  60.682 -52.709  1.00  0.00     0.168 HD
HETATM   15  C   UNL     1     -50.981  61.639 -53.155  1.00  0.00     0.060 C 
HETATM   16  C   UNL     1     -49.518  63.685 -53.383  1.00  0.00     0.011 A 
HETATM   17  C   UNL     1     -52.152  62.645 -53.062  1.00  0.00     0.039 C 
HETATM   18  C   UNL     1     -51.968  63.947 -53.879  1.00  0.00     0.188 C 
HETATM   19  C   UNL     1     -50.628  64.669 -53.585  1.00  0.00     0.081 C 
HETATM   20  S   UNL     1     -47.870  64.109 -53.356  1.00  0.00    -0.056 SA
BRANCH  18  21
HETATM   21  N   UNL     1     -52.085  63.650 -55.344  1.00  0.00    -0.075 N 
HETATM   22  H   UNL     1     -51.289  64.039 -55.874  1.00  0.00     0.274 HD
HETATM   23  H   UNL     1     -52.048  62.631 -55.517  1.00  0.00     0.274 HD
HETATM   24  H   UNL     1     -52.948  63.990 -55.787  1.00  0.00     0.274 HD
ENDBRANCH  18  21
ENDBRANCH   8  11
ENDBRANCH   1   7
BRANCH   5  25
HETATM   25  C   UNL     1     -41.409  59.381 -53.652  1.00  0.00     0.161 C 
BRANCH  25  26
HETATM   26  N   UNL     1     -41.218  57.959 -53.487  1.00  0.00    -0.353 N 
HETATM   27  C   UNL     1     -41.581  57.037 -54.446  1.00  0.00     0.251 C 
HETATM   28  O   UNL     1     -42.139  57.331 -55.501  1.00  0.00    -0.268 OA
HETATM   29  H   UNL     1     -40.619  57.666 -52.727  1.00  0.00     0.163 HD
BRANCH  27  30
HETATM   30  C   UNL     1     -41.223  55.622 -54.135  1.00  0.00     0.032 A 
HETATM   31  C   UNL     1     -41.298  55.114 -52.833  1.00  0.00     0.018 A 
HETATM   32  C   UNL     1     -40.919  53.790 -52.566  1.00  0.00     0.015 A 
HETATM   33  C   UNL     1     -40.467  52.953 -53.595  1.00  0.00    -0.005 A 
HETATM   34  C   UNL     1     -40.427  53.466 -54.902  1.00  0.00     0.015 A 
HETATM   35  C   UNL     1     -40.804  54.788 -55.173  1.00  0.00     0.018 A 
BRANCH  33  36
HETATM   36  C   UNL     1     -40.048  51.574 -53.351  1.00  0.00     0.091 A 
HETATM   37  C   UNL     1     -39.678  51.059 -52.120  1.00  0.00     0.099 A 
HETATM   38  S   UNL     1     -39.253  49.412 -52.355  1.00  0.00    -0.008 SA
HETATM   39  N   UNL     1     -39.563  49.470 -53.996  1.00  0.00    -0.037 NA
HETATM   40  N   UNL     1     -39.971  50.660 -54.400  1.00  0.00    -0.169 NA
ENDBRANCH  33  36
ENDBRANCH  27  30
ENDBRANCH  25  26
ENDBRANCH   5  25
TORSDOF 7
ENDMDL
MODEL 6
REMARK VINA RESULT:      -7.9      3.411      8.763
REMARK  7 active torsions:
REMARK  status: ('A' for Active; 'I' for Inactive)
REMARK    1  A    between atoms: N_1  and  C_5 
REMARK    2  A    between atoms: C_11  and  N_12 
REMARK       I    between atoms: N_12  and  C_13 
REMARK    3  A    between atoms: C_13  and  C_15 
REMARK    4  A    between atoms: C_19  and  C_20 
REMARK    5  A    between atoms: C_20  and  N_21 
REMARK       I    between atoms: N_21  and  C_22 
REMARK    6  A    between atoms: C_22  and  C_24 
REMARK    7  A    between atoms: C_27  and  C_30 
ROOT
HETATM    1  C   UNL     1     -41.176  54.908 -51.445  1.00  0.00     0.033 A 
HETATM    2  C   UNL     1     -40.654  53.944 -50.573  1.00  0.00     0.017 A 
HETATM    3  C   UNL     1     -40.083  52.779 -51.085  1.00  0.00     0.002 A 
HETATM    4  C   UNL     1     -40.027  52.571 -52.464  1.00  0.00     0.009 A 
HETATM    5  C   UNL     1     -40.521  53.538 -53.347  1.00  0.00    -0.040 A 
HETATM    6  C   UNL     1     -41.087  54.712 -52.827  1.00  0.00     0.026 A 
ENDROOT
BRANCH   1   7
HETATM    7  C   UNL     1     -41.779  56.137 -50.876  1.00  0.00     0.257 C 
HETATM    8  N   UNL     1     -42.902  56.693 -51.563  1.00  0.00    -0.303 N 
HETATM    9  H   UNL     1     -43.361  56.170 -52.293  1.00  0.00     0.171 HD
HETATM   10  O   UNL     1     -41.351  56.663 -49.867  1.00  0.00    -0.267 OA
BRANCH   8  11
HETATM   11  C   UNL     1     -43.416  57.887 -51.293  1.00  0.00     0.152 A 
HETATM   12  N   UNL     1     -42.620  58.950 -51.050  1.00  0.00    -0.339 N 
HETATM   13  C   UNL     1     -43.314  60.099 -50.736  1.00  0.00     0.024 A 
HETATM   14  H   UNL     1     -41.607  58.864 -51.116  1.00  0.00     0.168 HD
HETATM   15  C   UNL     1     -42.609  61.358 -50.390  1.00  0.00     0.060 C 
HETATM   16  C   UNL     1     -44.673  59.948 -50.746  1.00  0.00     0.011 A 
HETATM   17  C   UNL     1     -43.580  62.561 -50.437  1.00  0.00     0.039 C 
HETATM   18  C   UNL     1     -44.998  62.285 -49.882  1.00  0.00     0.188 C 
HETATM   19  C   UNL     1     -45.671  61.039 -50.514  1.00  0.00     0.081 C 
HETATM   20  S   UNL     1     -45.096  58.343 -51.124  1.00  0.00    -0.056 SA
BRANCH  18  21
HETATM   21  N   UNL     1     -44.942  62.142 -48.391  1.00  0.00    -0.075 N 
HETATM   22  H   UNL     1     -45.365  61.253 -48.079  1.00  0.00     0.274 HD
HETATM   23  H   UNL     1     -43.963  62.100 -48.061  1.00  0.00     0.274 HD
HETATM   24  H   UNL     1     -45.395  62.901 -47.866  1.00  0.00     0.274 HD
ENDBRANCH  18  21
ENDBRANCH   8  11
ENDBRANCH   1   7
BRANCH   5  25
HETATM   25  C   UNL     1     -40.517  53.305 -54.837  1.00  0.00     0.161 C 
BRANCH  25  26
HETATM   26  N   UNL     1     -40.977  54.472 -55.552  1.00  0.00    -0.353 N 
HETATM   27  C   UNL     1     -42.304  54.688 -55.861  1.00  0.00     0.251 C 
HETATM   28  O   UNL     1     -43.205  53.893 -55.602  1.00  0.00    -0.268 OA
HETATM   29  H   UNL     1     -40.321  55.236 -55.645  1.00  0.00     0.163 HD
BRANCH  27  30
HETATM   30  C   UNL     1     -42.598  55.992 -56.524  1.00  0.00     0.032 A 
HETATM   31  C   UNL     1     -42.405  57.213 -55.865  1.00  0.00     0.018 A 
HETATM   32  C   UNL     1     -42.726  58.420 -56.502  1.00  0.00     0.015 A 
HETATM   33  C   UNL     1     -43.238  58.428 -57.807  1.00  0.00    -0.005 A 
HETATM   34  C   UNL     1     -43.397  57.199 -58.467  1.00  0.00     0.015 A 
HETATM   35  C   UNL     1     -43.077  55.990 -57.835  1.00  0.00     0.018 A 
BRANCH  33  36
HETATM   36  C   UNL     1     -43.600  59.665 -58.494  1.00  0.00     0.091 A 
HETATM   37  C   UNL     1     -44.796  60.346 -58.336  1.00  0.00     0.099 A 
HETATM   38  S   UNL     1     -44.751  61.718 -59.369  1.00  0.00    -0.008 SA
HETATM   39  N   UNL     1     -43.226  61.351 -59.943  1.00  0.00    -0.037 NA
HETATM   40  N   UNL     1     -42.728  60.248 -59.412  1.00  0.00    -0.169 NA
ENDBRANCH  33  36
ENDBRANCH  27  30
ENDBRANCH  25  26
ENDBRANCH   5  25
TORSDOF 7
ENDMDL
MODEL 7
REMARK VINA RESULT:      -7.9      4.559      6.994
REMARK  7 active torsions:
REMARK  status: ('A' for Active; 'I' for Inactive)
REMARK    1  A    between atoms: N_1  and  C_5 
REMARK    2  A    between atoms: C_11  and  N_12 
REMARK       I    between atoms: N_12  and  C_13 
REMARK    3  A    between atoms: C_13  and  C_15 
REMARK    4  A    between atoms: C_19  and  C_20 
REMARK    5  A    between atoms: C_20  and  N_21 
REMARK       I    between atoms: N_21  and  C_22 
REMARK    6  A    between atoms: C_22  and  C_24 
REMARK    7  A    between atoms: C_27  and  C_30 
ROOT
HETATM    1  C   UNL     1     -45.693  57.066 -59.766  1.00  0.00     0.033 A 
HETATM    2  C   UNL     1     -45.595  55.772 -60.289  1.00  0.00     0.017 A 
HETATM    3  C   UNL     1     -44.538  54.945 -59.910  1.00  0.00     0.002 A 
HETATM    4  C   UNL     1     -43.577  55.404 -59.008  1.00  0.00     0.009 A 
HETATM    5  C   UNL     1     -43.676  56.687 -58.458  1.00  0.00    -0.040 A 
HETATM    6  C   UNL     1     -44.747  57.511 -58.836  1.00  0.00     0.026 A 
ENDROOT
BRANCH   1   7
HETATM    7  C   UNL     1     -46.825  57.926 -60.186  1.00  0.00     0.257 C 
HETATM    8  N   UNL     1     -47.335  57.737 -61.508  1.00  0.00    -0.303 N 
HETATM    9  H   UNL     1     -47.050  56.938 -62.053  1.00  0.00     0.171 HD
HETATM   10  O   UNL     1     -47.315  58.762 -59.450  1.00  0.00    -0.267 OA
BRANCH   8  11
HETATM   11  C   UNL     1     -48.202  58.558 -62.090  1.00  0.00     0.152 A 
HETATM   12  N   UNL     1     -47.931  59.874 -62.229  1.00  0.00    -0.339 N 
HETATM   13  C   UNL     1     -48.958  60.590 -62.806  1.00  0.00     0.024 A 
HETATM   14  H   UNL     1     -47.033  60.251 -61.931  1.00  0.00     0.168 HD
HETATM   15  C   UNL     1     -48.863  62.059 -62.997  1.00  0.00     0.060 C 
HETATM   16  C   UNL     1     -50.045  59.832 -63.141  1.00  0.00     0.011 A 
HETATM   17  C   UNL     1     -49.956  62.557 -63.971  1.00  0.00     0.039 C 
HETATM   18  C   UNL     1     -51.339  61.880 -63.811  1.00  0.00     0.188 C 
HETATM   19  C   UNL     1     -51.269  60.331 -63.844  1.00  0.00     0.081 C 
HETATM   20  S   UNL     1     -49.801  58.205 -62.706  1.00  0.00    -0.056 SA
BRANCH  18  21
HETATM   21  N   UNL     1     -51.988  62.342 -62.541  1.00  0.00    -0.075 N 
HETATM   22  H   UNL     1     -52.396  61.552 -62.015  1.00  0.00     0.274 HD
HETATM   23  H   UNL     1     -51.290  62.756 -61.901  1.00  0.00     0.274 HD
HETATM   24  H   UNL     1     -52.726  63.046 -62.664  1.00  0.00     0.274 HD
ENDBRANCH  18  21
ENDBRANCH   8  11
ENDBRANCH   1   7
BRANCH   5  25
HETATM   25  C   UNL     1     -42.617  57.217 -57.524  1.00  0.00     0.161 C 
BRANCH  25  26
HETATM   26  N   UNL     1     -42.049  56.160 -56.720  1.00  0.00    -0.353 N 
HETATM   27  C   UNL     1     -41.970  56.225 -55.345  1.00  0.00     0.251 C 
HETATM   28  O   UNL     1     -42.327  57.197 -54.684  1.00  0.00    -0.268 OA
HETATM   29  H   UNL     1     -41.893  55.273 -57.180  1.00  0.00     0.163 HD
BRANCH  27  30
HETATM   30  C   UNL     1     -41.434  55.001 -54.681  1.00  0.00     0.032 A 
HETATM   31  C   UNL     1     -40.621  54.088 -55.366  1.00  0.00     0.018 A 
HETATM   32  C   UNL     1     -40.164  52.927 -54.726  1.00  0.00     0.015 A 
HETATM   33  C   UNL     1     -40.505  52.663 -53.392  1.00  0.00    -0.005 A 
HETATM   34  C   UNL     1     -41.294  53.602 -52.707  1.00  0.00     0.015 A 
HETATM   35  C   UNL     1     -41.753  54.763 -53.343  1.00  0.00     0.018 A 
BRANCH  33  36
HETATM   36  C   UNL     1     -40.060  51.456 -52.699  1.00  0.00     0.091 A 
HETATM   37  C   UNL     1     -39.794  51.368 -51.342  1.00  0.00     0.099 A 
HETATM   38  S   UNL     1     -39.285  49.759 -51.018  1.00  0.00    -0.008 SA
HETATM   39  N   UNL     1     -39.437  49.292 -52.616  1.00  0.00    -0.037 NA
HETATM   40  N   UNL     1     -39.847  50.272 -53.402  1.00  0.00    -0.169 NA
ENDBRANCH  33  36
ENDBRANCH  27  30
ENDBRANCH  25  26
ENDBRANCH   5  25
TORSDOF 7
ENDMDL
MODEL 8
REMARK VINA RESULT:      -7.9      4.316      6.737
REMARK  7 active torsions:
REMARK  status: ('A' for Active; 'I' for Inactive)
REMARK    1  A    between atoms: N_1  and  C_5 
REMARK    2  A    between atoms: C_11  and  N_12 
REMARK       I    between atoms: N_12  and  C_13 
REMARK    3  A    between atoms: C_13  and  C_15 
REMARK    4  A    between atoms: C_19  and  C_20 
REMARK    5  A    between atoms: C_20  and  N_21 
REMARK       I    between atoms: N_21  and  C_22 
REMARK    6  A    between atoms: C_22  and  C_24 
REMARK    7  A    between atoms: C_27  and  C_30 
ROOT
HETATM    1  C   UNL     1     -45.597  57.408 -59.453  1.00  0.00     0.033 A 
HETATM    2  C   UNL     1     -45.483  56.226 -60.194  1.00  0.00     0.017 A 
HETATM    3  C   UNL     1     -44.364  55.409 -60.035  1.00  0.00     0.002 A 
HETATM    4  C   UNL     1     -43.356  55.766 -59.138  1.00  0.00     0.009 A 
HETATM    5  C   UNL     1     -43.469  56.931 -58.373  1.00  0.00    -0.040 A 
HETATM    6  C   UNL     1     -44.601  57.745 -58.530  1.00  0.00     0.026 A 
ENDROOT
BRANCH   1   7
HETATM    7  C   UNL     1     -46.795  58.260 -59.641  1.00  0.00     0.257 C 
HETATM    8  N   UNL     1     -47.040  59.271 -58.661  1.00  0.00    -0.303 N 
HETATM    9  H   UNL     1     -46.333  59.501 -57.980  1.00  0.00     0.171 HD
HETATM   10  O   UNL     1     -47.550  58.121 -60.585  1.00  0.00    -0.267 OA
BRANCH   8  11
HETATM   11  C   UNL     1     -48.167  59.969 -58.586  1.00  0.00     0.152 A 
HETATM   12  N   UNL     1     -48.998  59.839 -57.529  1.00  0.00    -0.339 N 
HETATM   13  C   UNL     1     -50.147  60.595 -57.633  1.00  0.00     0.024 A 
HETATM   14  H   UNL     1     -48.750  59.235 -56.747  1.00  0.00     0.168 HD
HETATM   15  C   UNL     1     -51.202  60.545 -56.591  1.00  0.00     0.060 C 
HETATM   16  C   UNL     1     -50.218  61.342 -58.776  1.00  0.00     0.011 A 
HETATM   17  C   UNL     1     -52.188  61.726 -56.754  1.00  0.00     0.039 C 
HETATM   18  C   UNL     1     -52.552  62.084 -58.214  1.00  0.00     0.188 C 
HETATM   19  C   UNL     1     -51.311  62.306 -59.117  1.00  0.00     0.081 C 
HETATM   20  S   UNL     1     -48.848  61.081 -59.752  1.00  0.00    -0.056 SA
BRANCH  18  21
HETATM   21  N   UNL     1     -53.431  61.019 -58.796  1.00  0.00    -0.075 N 
HETATM   22  H   UNL     1     -52.961  60.099 -58.799  1.00  0.00     0.274 HD
HETATM   23  H   UNL     1     -54.278  60.883 -58.218  1.00  0.00     0.274 HD
HETATM   24  H   UNL     1     -53.759  61.202 -59.753  1.00  0.00     0.274 HD
ENDBRANCH  18  21
ENDBRANCH   8  11
ENDBRANCH   1   7
BRANCH   5  25
HETATM   25  C   UNL     1     -42.364  57.358 -57.439  1.00  0.00     0.161 C 
BRANCH  25  26
HETATM   26  N   UNL     1     -41.911  56.256 -56.624  1.00  0.00    -0.353 N 
HETATM   27  C   UNL     1     -41.835  56.322 -55.248  1.00  0.00     0.251 C 
HETATM   28  O   UNL     1     -42.097  57.330 -54.596  1.00  0.00    -0.268 OA
HETATM   29  H   UNL     1     -41.841  55.354 -57.076  1.00  0.00     0.163 HD
BRANCH  27  30
HETATM   30  C   UNL     1     -41.428  55.055 -54.572  1.00  0.00     0.032 A 
HETATM   31  C   UNL     1     -41.800  54.773 -53.252  1.00  0.00     0.018 A 
HETATM   32  C   UNL     1     -41.370  53.591 -52.632  1.00  0.00     0.015 A 
HETATM   33  C   UNL     1     -40.570  52.670 -53.322  1.00  0.00    -0.005 A 
HETATM   34  C   UNL     1     -40.231  52.950 -54.656  1.00  0.00     0.015 A 
HETATM   35  C   UNL     1     -40.658  54.129 -55.279  1.00  0.00     0.018 A 
BRANCH  33  36
HETATM   36  C   UNL     1     -40.091  51.436 -52.702  1.00  0.00     0.091 A 
HETATM   37  C   UNL     1     -39.760  51.292 -51.364  1.00  0.00     0.099 A 
HETATM   38  S   UNL     1     -39.233  49.673 -51.134  1.00  0.00    -0.008 SA
HETATM   39  N   UNL     1     -39.458  49.273 -52.741  1.00  0.00    -0.037 NA
HETATM   40  N   UNL     1     -39.908  50.284 -53.464  1.00  0.00    -0.169 NA
ENDBRANCH  33  36
ENDBRANCH  27  30
ENDBRANCH  25  26
ENDBRANCH   5  25
TORSDOF 7
ENDMDL
MODEL 9
REMARK VINA RESULT:      -7.9      5.617      6.781
REMARK  7 active torsions:
REMARK  status: ('A' for Active; 'I' for Inactive)
REMARK    1  A    between atoms: N_1  and  C_5 
REMARK    2  A    between atoms: C_11  and  N_12 
REMARK       I    between atoms: N_12  and  C_13 
REMARK    3  A    between atoms: C_13  and  C_15 
REMARK    4  A    between atoms: C_19  and  C_20 
REMARK    5  A    between atoms: C_20  and  N_21 
REMARK       I    between atoms: N_21  and  C_22 
REMARK    6  A    between atoms: C_22  and  C_24 
REMARK    7  A    between atoms: C_27  and  C_30 
ROOT
HETATM    1  C   UNL     1     -46.311  61.031 -53.011  1.00  0.00     0.033 A 
HETATM    2  C   UNL     1     -46.298  60.503 -51.714  1.00  0.00     0.017 A 
HETATM    3  C   UNL     1     -45.225  59.717 -51.293  1.00  0.00     0.002 A 
HETATM    4  C   UNL     1     -44.164  59.455 -52.160  1.00  0.00     0.009 A 
HETATM    5  C   UNL     1     -44.152  59.997 -53.450  1.00  0.00    -0.040 A 
HETATM    6  C   UNL     1     -45.229  60.794 -53.866  1.00  0.00     0.026 A 
ENDROOT
BRANCH   1   7
HETATM    7  C   UNL     1     -47.463  61.862 -53.435  1.00  0.00     0.257 C 
HETATM    8  N   UNL     1     -48.709  61.640 -52.774  1.00  0.00    -0.303 N 
HETATM    9  H   UNL     1     -48.749  61.071 -51.942  1.00  0.00     0.171 HD
HETATM   10  O   UNL     1     -47.369  62.704 -54.308  1.00  0.00    -0.267 OA
BRANCH   8  11
HETATM   11  C   UNL     1     -49.863  62.158 -53.177  1.00  0.00     0.152 A 
HETATM   12  N   UNL     1     -50.758  61.416 -53.866  1.00  0.00    -0.339 N 
HETATM   13  C   UNL     1     -51.877  62.121 -54.254  1.00  0.00     0.024 A 
HETATM   14  H   UNL     1     -50.581  60.429 -54.046  1.00  0.00     0.168 HD
HETATM   15  C   UNL     1     -52.949  61.487 -55.061  1.00  0.00     0.060 C 
HETATM   16  C   UNL     1     -51.876  63.429 -53.855  1.00  0.00     0.011 A 
HETATM   17  C   UNL     1     -54.229  62.356 -55.051  1.00  0.00     0.039 C 
HETATM   18  C   UNL     1     -53.990  63.883 -55.136  1.00  0.00     0.188 C 
HETATM   19  C   UNL     1     -52.990  64.405 -54.072  1.00  0.00     0.081 C 
HETATM   20  S   UNL     1     -50.447  63.798 -53.008  1.00  0.00    -0.056 SA
BRANCH  18  21
HETATM   21  N   UNL     1     -53.520  64.248 -56.512  1.00  0.00    -0.075 N 
HETATM   22  H   UNL     1     -53.879  65.172 -56.802  1.00  0.00     0.274 HD
HETATM   23  H   UNL     1     -52.490  64.344 -56.536  1.00  0.00     0.274 HD
HETATM   24  H   UNL     1     -53.767  63.575 -57.247  1.00  0.00     0.274 HD
ENDBRANCH  18  21
ENDBRANCH   8  11
ENDBRANCH   1   7
BRANCH   5  25
HETATM   25  C   UNL     1     -43.039  59.679 -54.417  1.00  0.00     0.161 C 
BRANCH  25  26
HETATM   26  N   UNL     1     -42.585  58.316 -54.265  1.00  0.00    -0.353 N 
HETATM   27  C   UNL     1     -41.325  57.991 -53.809  1.00  0.00     0.251 C 
HETATM   28  O   UNL     1     -40.461  58.822 -53.537  1.00  0.00    -0.268 OA
HETATM   29  H   UNL     1     -43.292  57.594 -54.310  1.00  0.00     0.163 HD
BRANCH  27  30
HETATM   30  C   UNL     1     -41.069  56.532 -53.635  1.00  0.00     0.032 A 
HETATM   31  C   UNL     1     -41.302  55.884 -52.415  1.00  0.00     0.018 A 
HETATM   32  C   UNL     1     -41.015  54.519 -52.271  1.00  0.00     0.015 A 
HETATM   33  C   UNL     1     -40.498  53.779 -53.344  1.00  0.00    -0.005 A 
HETATM   34  C   UNL     1     -40.299  54.433 -54.571  1.00  0.00     0.015 A 
HETATM   35  C   UNL     1     -40.584  55.797 -54.718  1.00  0.00     0.018 A 
BRANCH  33  36
HETATM   36  C   UNL     1     -40.172  52.359 -53.225  1.00  0.00     0.091 A 
HETATM   37  C   UNL     1     -40.349  51.414 -54.223  1.00  0.00     0.099 A 
HETATM   38  S   UNL     1     -39.842  49.898 -53.595  1.00  0.00    -0.008 SA
HETATM   39  N   UNL     1     -39.439  50.545 -52.108  1.00  0.00    -0.037 NA
HETATM   40  N   UNL     1     -39.661  51.846 -52.035  1.00  0.00    -0.169 NA
ENDBRANCH  33  36
ENDBRANCH  27  30
ENDBRANCH  25  26
ENDBRANCH   5  25
TORSDOF 7
ENDMDL
MODEL 10
REMARK VINA RESULT:      -7.9      4.065      9.537
REMARK  7 active torsions:
REMARK  status: ('A' for Active; 'I' for Inactive)
REMARK    1  A    between atoms: N_1  and  C_5 
REMARK    2  A    between atoms: C_11  and  N_12 
REMARK       I    between atoms: N_12  and  C_13 
REMARK    3  A    between atoms: C_13  and  C_15 
REMARK    4  A    between atoms: C_19  and  C_20 
REMARK    5  A    between atoms: C_20  and  N_21 
REMARK       I    between atoms: N_21  and  C_22 
REMARK    6  A    between atoms: C_22  and  C_24 
REMARK    7  A    between atoms: C_27  and  C_30 
ROOT
HETATM    1  C   UNL     1     -43.113  56.691 -51.982  1.00  0.00     0.033 A 
HETATM    2  C   UNL     1     -43.409  55.526 -51.264  1.00  0.00     0.017 A 
HETATM    3  C   UNL     1     -43.153  54.276 -51.827  1.00  0.00     0.002 A 
HETATM    4  C   UNL     1     -42.601  54.183 -53.106  1.00  0.00     0.009 A 
HETATM    5  C   UNL     1     -42.276  55.338 -53.824  1.00  0.00    -0.040 A 
HETATM    6  C   UNL     1     -42.527  56.593 -53.249  1.00  0.00     0.026 A 
ENDROOT
BRANCH   1   7
HETATM    7  C   UNL     1     -43.395  58.007 -51.361  1.00  0.00     0.257 C 
HETATM    8  N   UNL     1     -44.748  58.280 -50.991  1.00  0.00    -0.303 N 
HETATM    9  H   UNL     1     -45.434  57.540 -50.993  1.00  0.00     0.171 HD
HETATM   10  O   UNL     1     -42.524  58.833 -51.165  1.00  0.00    -0.267 OA
BRANCH   8  11
HETATM   11  C   UNL     1     -45.185  59.476 -50.616  1.00  0.00     0.152 A 
HETATM   12  N   UNL     1     -44.833  60.004 -49.423  1.00  0.00    -0.339 N 
HETATM   13  C   UNL     1     -45.416  61.227 -49.168  1.00  0.00     0.024 A 
HETATM   14  H   UNL     1     -44.186  59.510 -48.810  1.00  0.00     0.168 HD
HETATM   15  C   UNL     1     -45.187  61.940 -47.886  1.00  0.00     0.060 C 
HETATM   16  C   UNL     1     -46.224  61.679 -50.174  1.00  0.00     0.011 A 
HETATM   17  C   UNL     1     -45.640  63.415 -47.991  1.00  0.00     0.039 C 
HETATM   18  C   UNL     1     -46.945  63.648 -48.790  1.00  0.00     0.188 C 
HETATM   19  C   UNL     1     -46.923  63.001 -50.199  1.00  0.00     0.081 C 
HETATM   20  S   UNL     1     -46.284  60.552 -51.448  1.00  0.00    -0.056 SA
BRANCH  18  21
HETATM   21  N   UNL     1     -48.118  63.142 -48.006  1.00  0.00    -0.075 N 
HETATM   22  H   UNL     1     -48.635  62.414 -48.525  1.00  0.00     0.274 HD
HETATM   23  H   UNL     1     -47.807  62.679 -47.135  1.00  0.00     0.274 HD
HETATM   24  H   UNL     1     -48.796  63.864 -47.727  1.00  0.00     0.274 HD
ENDBRANCH  18  21
ENDBRANCH   8  11
ENDBRANCH   1   7
BRANCH   5  25
HETATM   25  C   UNL     1     -41.729  55.254 -55.227  1.00  0.00     0.161 C 
BRANCH  25  26
HETATM   26  N   UNL     1     -42.752  55.538 -56.206  1.00  0.00    -0.353 N 
HETATM   27  C   UNL     1     -42.834  56.740 -56.879  1.00  0.00     0.251 C 
HETATM   28  O   UNL     1     -42.081  57.690 -56.676  1.00  0.00    -0.268 OA
HETATM   29  H   UNL     1     -43.294  54.752 -56.539  1.00  0.00     0.163 HD
BRANCH  27  30
HETATM   30  C   UNL     1     -43.903  56.816 -57.916  1.00  0.00     0.032 A 
HETATM   31  C   UNL     1     -43.934  55.939 -59.008  1.00  0.00     0.018 A 
HETATM   32  C   UNL     1     -44.930  56.061 -59.987  1.00  0.00     0.015 A 
HETATM   33  C   UNL     1     -45.915  57.053 -59.888  1.00  0.00    -0.005 A 
HETATM   34  C   UNL     1     -45.892  57.905 -58.771  1.00  0.00     0.015 A 
HETATM   35  C   UNL     1     -44.898  57.788 -57.791  1.00  0.00     0.018 A 
BRANCH  33  36
HETATM   36  C   UNL     1     -46.958  57.220 -60.897  1.00  0.00     0.091 A 
HETATM   37  C   UNL     1     -47.638  58.399 -61.156  1.00  0.00     0.099 A 
HETATM   38  S   UNL     1     -48.772  58.080 -62.406  1.00  0.00    -0.008 SA
HETATM   39  N   UNL     1     -48.325  56.474 -62.527  1.00  0.00    -0.037 NA
HETATM   40  N   UNL     1     -47.366  56.142 -61.680  1.00  0.00    -0.169 NA
ENDBRANCH  33  36
ENDBRANCH  27  30
ENDBRANCH  25  26
ENDBRANCH   5  25
TORSDOF 7
ENDMDL
