MODEL 1
REMARK VINA RESULT:      -8.3      0.000      0.000
REMARK  12 active torsions:
REMARK  status: ('A' for Active; 'I' for Inactive)
REMARK    1  A    between atoms: C_7  and  N_8 
REMARK    2  A    between atoms: C_12  and  N_13 
REMARK       I    between atoms: N_13  and  C_14 
REMARK    3  A    between atoms: C_14  and  C_15 
REMARK    4  A    between atoms: C_15  and  C_16 
REMARK    5  A    between atoms: C_16  and  C_17 
REMARK    6  A    between atoms: C_17  and  C_18 
REMARK    7  A    between atoms: C_18  and  C_19 
REMARK    8  A    between atoms: C_19  and  C_20 
REMARK    9  A    between atoms: C_20  and  C_21 
REMARK   10  A    between atoms: C_21  and  C_22 
REMARK       I    between atoms: C_22  and  N_23 
REMARK   11  A    between atoms: N_23  and  C_24 
REMARK   12  A    between atoms: C_33  and  N_34 
ROOT
HETATM    1  C   UNL     1     -40.773  53.227 -52.926  1.00  0.00     0.000 C 
ENDROOT
BRANCH   1   2
HETATM    2  C   UNL     1     -40.086  52.184 -52.039  1.00  0.00     0.000 C 
BRANCH   2   3
HETATM    3  C   UNL     1     -40.252  52.447 -50.538  1.00  0.00     0.009 C 
BRANCH   3   4
HETATM    4  C   UNL     1     -39.614  53.739 -50.019  1.00  0.00     0.103 C 
BRANCH   4   5
HETATM    5  C   UNL     1     -40.381  54.391 -48.891  1.00  0.00     0.222 C 
HETATM    6  N   UNL     1     -41.325  55.351 -49.125  1.00  0.00    -0.327 N 
HETATM    7  H   UNL     1     -41.695  55.656 -48.229  1.00  0.00     0.169 HD
HETATM    8  O   UNL     1     -40.182  54.089 -47.712  1.00  0.00    -0.273 OA
BRANCH   6   9
HETATM    9  C   UNL     1     -41.869  55.967 -50.265  1.00  0.00     0.035 A 
HETATM   10  C   UNL     1     -43.091  55.664 -50.854  1.00  0.00     0.032 A 
HETATM   11  C   UNL     1     -43.542  56.378 -51.973  1.00  0.00     0.033 A 
HETATM   12  C   UNL     1     -42.769  57.405 -52.527  1.00  0.00     0.044 A 
HETATM   13  N   UNL     1     -43.242  58.109 -53.573  1.00  0.00    -0.359 N 
HETATM   14  C   UNL     1     -41.508  57.724 -51.982  1.00  0.00     0.014 A 
HETATM   15  C   UNL     1     -42.585  59.139 -54.129  1.00  0.00     0.007 A 
HETATM   16  H   UNL     1     -44.158  57.862 -53.944  1.00  0.00     0.166 HD
HETATM   17  C   UNL     1     -43.226  59.888 -55.252  1.00  0.00     0.068 C 
HETATM   18  C   UNL     1     -41.328  59.483 -53.639  1.00  0.00     0.048 A 
HETATM   19  C   UNL     1     -40.749  58.749 -52.600  1.00  0.00     0.020 A 
HETATM   20  C   UNL     1     -41.091  56.990 -50.842  1.00  0.00     0.045 A 
BRANCH  19  21
HETATM   21  N   UNL     1     -39.540  59.207 -52.065  1.00  0.00    -0.302 NA
HETATM   22  H   UNL     1     -38.782  58.532 -52.011  1.00  0.00     0.124 HD
HETATM   23  H   UNL     1     -39.195  60.093 -52.432  1.00  0.00     0.124 HD
ENDBRANCH  19  21
ENDBRANCH   6   9
ENDBRANCH   4   5
ENDBRANCH   3   4
ENDBRANCH   2   3
ENDBRANCH   1   2
BRANCH   1  24
HETATM   24  C   UNL     1     -40.106  53.306 -54.302  1.00  0.00     0.000 C 
BRANCH  24  25
HETATM   25  C   UNL     1     -40.795  54.265 -55.278  1.00  0.00     0.009 C 
BRANCH  25  26
HETATM   26  C   UNL     1     -42.311  54.368 -55.139  1.00  0.00     0.103 C 
BRANCH  26  27
HETATM   27  C   UNL     1     -42.948  55.494 -55.937  1.00  0.00     0.222 C 
HETATM   28  N   UNL     1     -42.325  55.733 -57.150  1.00  0.00    -0.327 N 
HETATM   29  H   UNL     1     -41.457  55.235 -57.315  1.00  0.00     0.169 HD
HETATM   30  O   UNL     1     -43.932  56.086 -55.503  1.00  0.00    -0.273 OA
BRANCH  28  31
HETATM   31  C   UNL     1     -42.747  56.618 -58.165  1.00  0.00     0.035 A 
HETATM   32  C   UNL     1     -42.306  57.942 -58.277  1.00  0.00     0.045 A 
HETATM   33  C   UNL     1     -42.765  58.809 -59.300  1.00  0.00     0.014 A 
HETATM   34  C   UNL     1     -43.708  58.293 -60.216  1.00  0.00     0.044 A 
HETATM   35  C   UNL     1     -42.340  60.152 -59.455  1.00  0.00     0.020 A 
HETATM   36  N   UNL     1     -44.199  59.090 -61.184  1.00  0.00    -0.359 N 
HETATM   37  C   UNL     1     -44.154  56.969 -60.111  1.00  0.00     0.033 A 
HETATM   38  H   UNL     1     -44.881  58.696 -61.831  1.00  0.00     0.166 HD
HETATM   39  C   UNL     1     -43.861  60.382 -61.323  1.00  0.00     0.007 A 
HETATM   40  C   UNL     1     -44.507  61.191 -62.401  1.00  0.00     0.068 C 
HETATM   41  C   UNL     1     -42.938  60.939 -60.443  1.00  0.00     0.048 A 
HETATM   42  C   UNL     1     -43.678  56.141 -59.090  1.00  0.00     0.032 A 
BRANCH  35  43
HETATM   43  N   UNL     1     -41.521  60.791 -58.515  1.00  0.00    -0.302 NA
HETATM   44  H   UNL     1     -41.943  60.989 -57.611  1.00  0.00     0.124 HD
HETATM   45  H   UNL     1     -40.994  61.596 -58.848  1.00  0.00     0.124 HD
ENDBRANCH  35  43
ENDBRANCH  28  31
ENDBRANCH  26  27
ENDBRANCH  25  26
ENDBRANCH  24  25
ENDBRANCH   1  24
TORSDOF 12
ENDMDL
MODEL 2
REMARK VINA RESULT:      -8.3      2.698     10.142
REMARK  12 active torsions:
REMARK  status: ('A' for Active; 'I' for Inactive)
REMARK    1  A    between atoms: C_7  and  N_8 
REMARK    2  A    between atoms: C_12  and  N_13 
REMARK       I    between atoms: N_13  and  C_14 
REMARK    3  A    between atoms: C_14  and  C_15 
REMARK    4  A    between atoms: C_15  and  C_16 
REMARK    5  A    between atoms: C_16  and  C_17 
REMARK    6  A    between atoms: C_17  and  C_18 
REMARK    7  A    between atoms: C_18  and  C_19 
REMARK    8  A    between atoms: C_19  and  C_20 
REMARK    9  A    between atoms: C_20  and  C_21 
REMARK   10  A    between atoms: C_21  and  C_22 
REMARK       I    between atoms: C_22  and  N_23 
REMARK   11  A    between atoms: N_23  and  C_24 
REMARK   12  A    between atoms: C_33  and  N_34 
ROOT
HETATM    1  C   UNL     1     -41.753  60.532 -57.526  1.00  0.00     0.000 C 
ENDROOT
BRANCH   1   2
HETATM    2  C   UNL     1     -41.685  61.963 -58.073  1.00  0.00     0.000 C 
BRANCH   2   3
HETATM    3  C   UNL     1     -40.390  62.270 -58.833  1.00  0.00     0.009 C 
BRANCH   3   4
HETATM    4  C   UNL     1     -40.523  63.264 -59.990  1.00  0.00     0.103 C 
BRANCH   4   5
HETATM    5  C   UNL     1     -40.168  62.683 -61.341  1.00  0.00     0.222 C 
HETATM    6  N   UNL     1     -40.892  61.668 -61.899  1.00  0.00    -0.327 N 
HETATM    7  H   UNL     1     -40.468  61.429 -62.790  1.00  0.00     0.169 HD
HETATM    8  O   UNL     1     -39.207  63.097 -61.992  1.00  0.00    -0.273 OA
BRANCH   6   9
HETATM    9  C   UNL     1     -42.032  60.930 -61.534  1.00  0.00     0.035 A 
HETATM   10  C   UNL     1     -43.345  61.386 -61.563  1.00  0.00     0.032 A 
HETATM   11  C   UNL     1     -44.404  60.539 -61.209  1.00  0.00     0.033 A 
HETATM   12  C   UNL     1     -44.163  59.218 -60.810  1.00  0.00     0.044 A 
HETATM   13  N   UNL     1     -45.198  58.407 -60.518  1.00  0.00    -0.359 N 
HETATM   14  C   UNL     1     -42.845  58.724 -60.734  1.00  0.00     0.014 A 
HETATM   15  C   UNL     1     -45.053  57.117 -60.177  1.00  0.00     0.007 A 
HETATM   16  H   UNL     1     -46.140  58.788 -60.586  1.00  0.00     0.166 HD
HETATM   17  C   UNL     1     -46.273  56.291 -59.928  1.00  0.00     0.068 C 
HETATM   18  C   UNL     1     -43.771  56.586 -60.071  1.00  0.00     0.048 A 
HETATM   19  C   UNL     1     -42.651  57.392 -60.293  1.00  0.00     0.020 A 
HETATM   20  C   UNL     1     -41.799  59.605 -61.115  1.00  0.00     0.045 A 
BRANCH  19  21
HETATM   21  N   UNL     1     -41.391  56.782 -60.291  1.00  0.00    -0.302 NA
HETATM   22  H   UNL     1     -40.735  57.096 -59.582  1.00  0.00     0.124 HD
HETATM   23  H   UNL     1     -41.386  55.764 -60.349  1.00  0.00     0.124 HD
ENDBRANCH  19  21
ENDBRANCH   6   9
ENDBRANCH   4   5
ENDBRANCH   3   4
ENDBRANCH   2   3
ENDBRANCH   1   2
BRANCH   1  24
HETATM   24  C   UNL     1     -43.204  60.063 -57.392  1.00  0.00     0.000 C 
BRANCH  24  25
HETATM   25  C   UNL     1     -43.353  58.641 -56.841  1.00  0.00     0.009 C 
BRANCH  25  26
HETATM   26  C   UNL     1     -42.548  58.335 -55.581  1.00  0.00     0.103 C 
BRANCH  26  27
HETATM   27  C   UNL     1     -42.491  56.864 -55.203  1.00  0.00     0.222 C 
HETATM   28  N   UNL     1     -41.276  56.480 -54.660  1.00  0.00    -0.327 N 
HETATM   29  H   UNL     1     -40.532  57.168 -54.693  1.00  0.00     0.169 HD
HETATM   30  O   UNL     1     -43.468  56.140 -55.370  1.00  0.00    -0.273 OA
BRANCH  28  31
HETATM   31  C   UNL     1     -40.952  55.226 -54.102  1.00  0.00     0.035 A 
HETATM   32  C   UNL     1     -41.049  54.932 -52.736  1.00  0.00     0.045 A 
HETATM   33  C   UNL     1     -40.698  53.665 -52.207  1.00  0.00     0.014 A 
HETATM   34  C   UNL     1     -40.225  52.689 -53.113  1.00  0.00     0.044 A 
HETATM   35  C   UNL     1     -40.789  53.322 -50.835  1.00  0.00     0.020 A 
HETATM   36  N   UNL     1     -39.846  51.483 -52.652  1.00  0.00    -0.359 N 
HETATM   37  C   UNL     1     -40.125  52.976 -54.481  1.00  0.00     0.033 A 
HETATM   38  H   UNL     1     -39.505  50.797 -53.324  1.00  0.00     0.166 HD
HETATM   39  C   UNL     1     -39.865  51.146 -51.352  1.00  0.00     0.007 A 
HETATM   40  C   UNL     1     -39.372  49.796 -50.943  1.00  0.00     0.068 C 
HETATM   41  C   UNL     1     -40.319  52.074 -50.419  1.00  0.00     0.048 A 
HETATM   42  C   UNL     1     -40.482  54.236 -54.969  1.00  0.00     0.032 A 
BRANCH  35  43
HETATM   43  N   UNL     1     -41.108  54.264 -49.848  1.00  0.00    -0.302 NA
HETATM   44  H   UNL     1     -41.960  54.092 -49.320  1.00  0.00     0.124 HD
HETATM   45  H   UNL     1     -41.048  55.243 -50.122  1.00  0.00     0.124 HD
ENDBRANCH  35  43
ENDBRANCH  28  31
ENDBRANCH  26  27
ENDBRANCH  25  26
ENDBRANCH  24  25
ENDBRANCH   1  24
TORSDOF 12
ENDMDL
MODEL 3
REMARK VINA RESULT:      -8.3      2.450      9.073
REMARK  12 active torsions:
REMARK  status: ('A' for Active; 'I' for Inactive)
REMARK    1  A    between atoms: C_7  and  N_8 
REMARK    2  A    between atoms: C_12  and  N_13 
REMARK       I    between atoms: N_13  and  C_14 
REMARK    3  A    between atoms: C_14  and  C_15 
REMARK    4  A    between atoms: C_15  and  C_16 
REMARK    5  A    between atoms: C_16  and  C_17 
REMARK    6  A    between atoms: C_17  and  C_18 
REMARK    7  A    between atoms: C_18  and  C_19 
REMARK    8  A    between atoms: C_19  and  C_20 
REMARK    9  A    between atoms: C_20  and  C_21 
REMARK   10  A    between atoms: C_21  and  C_22 
REMARK       I    between atoms: C_22  and  N_23 
REMARK   11  A    between atoms: N_23  and  C_24 
REMARK   12  A    between atoms: C_33  and  N_34 
ROOT
HETATM    1  C   UNL     1     -44.023  59.084 -53.568  1.00  0.00     0.000 C 
ENDROOT
BRANCH   1   2
HETATM    2  C   UNL     1     -44.338  57.608 -53.300  1.00  0.00     0.000 C 
BRANCH   2   3
HETATM    3  C   UNL     1     -44.636  56.802 -54.569  1.00  0.00     0.009 C 
BRANCH   3   4
HETATM    4  C   UNL     1     -43.623  55.706 -54.909  1.00  0.00     0.103 C 
BRANCH   4   5
HETATM    5  C   UNL     1     -42.400  56.207 -55.645  1.00  0.00     0.222 C 
HETATM    6  N   UNL     1     -42.400  56.383 -57.000  1.00  0.00    -0.327 N 
HETATM    7  H   UNL     1     -41.478  56.707 -57.277  1.00  0.00     0.169 HD
HETATM    8  O   UNL     1     -41.351  56.472 -55.055  1.00  0.00    -0.273 OA
BRANCH   6   9
HETATM    9  C   UNL     1     -43.342  56.228 -58.032  1.00  0.00     0.035 A 
HETATM   10  C   UNL     1     -43.471  55.120 -58.862  1.00  0.00     0.032 A 
HETATM   11  C   UNL     1     -44.477  55.070 -59.836  1.00  0.00     0.033 A 
HETATM   12  C   UNL     1     -45.369  56.136 -60.002  1.00  0.00     0.044 A 
HETATM   13  N   UNL     1     -46.357  56.048 -60.912  1.00  0.00    -0.359 N 
HETATM   14  C   UNL     1     -45.253  57.294 -59.204  1.00  0.00     0.014 A 
HETATM   15  C   UNL     1     -47.281  57.004 -61.096  1.00  0.00     0.007 A 
HETATM   16  H   UNL     1     -46.421  55.199 -61.471  1.00  0.00     0.166 HD
HETATM   17  C   UNL     1     -48.368  56.780 -62.095  1.00  0.00     0.068 C 
HETATM   18  C   UNL     1     -47.201  58.175 -60.346  1.00  0.00     0.048 A 
HETATM   19  C   UNL     1     -46.159  58.360 -59.433  1.00  0.00     0.020 A 
HETATM   20  C   UNL     1     -44.232  57.303 -58.219  1.00  0.00     0.045 A 
BRANCH  19  21
HETATM   21  N   UNL     1     -46.191  59.499 -58.620  1.00  0.00    -0.302 NA
HETATM   22  H   UNL     1     -47.029  60.070 -58.672  1.00  0.00     0.124 HD
HETATM   23  H   UNL     1     -45.919  59.363 -57.648  1.00  0.00     0.124 HD
ENDBRANCH  19  21
ENDBRANCH   6   9
ENDBRANCH   4   5
ENDBRANCH   3   4
ENDBRANCH   2   3
ENDBRANCH   1   2
BRANCH   1  24
HETATM   24  C   UNL     1     -42.532  59.374 -53.369  1.00  0.00     0.000 C 
BRANCH  24  25
HETATM   25  C   UNL     1     -42.232  60.351 -52.228  1.00  0.00     0.009 C 
BRANCH  25  26
HETATM   26  C   UNL     1     -42.152  59.733 -50.835  1.00  0.00     0.103 C 
BRANCH  26  27
HETATM   27  C   UNL     1     -41.285  58.489 -50.740  1.00  0.00     0.222 C 
HETATM   28  N   UNL     1     -42.008  57.325 -50.539  1.00  0.00    -0.327 N 
HETATM   29  H   UNL     1     -42.998  57.439 -50.351  1.00  0.00     0.169 HD
HETATM   30  O   UNL     1     -40.065  58.569 -50.856  1.00  0.00    -0.273 OA
BRANCH  28  31
HETATM   31  C   UNL     1     -41.512  56.005 -50.531  1.00  0.00     0.035 A 
HETATM   32  C   UNL     1     -41.158  55.298 -51.687  1.00  0.00     0.045 A 
HETATM   33  C   UNL     1     -40.679  53.965 -51.643  1.00  0.00     0.014 A 
HETATM   34  C   UNL     1     -40.578  53.351 -50.375  1.00  0.00     0.044 A 
HETATM   35  C   UNL     1     -40.302  53.216 -52.786  1.00  0.00     0.020 A 
HETATM   36  N   UNL     1     -40.161  52.074 -50.286  1.00  0.00    -0.359 N 
HETATM   37  C   UNL     1     -40.929  54.052 -49.213  1.00  0.00     0.033 A 
HETATM   38  H   UNL     1     -40.099  51.652 -49.361  1.00  0.00     0.166 HD
HETATM   39  C   UNL     1     -39.852  51.319 -51.353  1.00  0.00     0.007 A 
HETATM   40  C   UNL     1     -39.450  49.895 -51.144  1.00  0.00     0.068 C 
HETATM   41  C   UNL     1     -39.939  51.877 -52.625  1.00  0.00     0.048 A 
HETATM   42  C   UNL     1     -41.397  55.367 -49.294  1.00  0.00     0.032 A 
BRANCH  35  43
HETATM   43  N   UNL     1     -40.504  53.688 -54.090  1.00  0.00    -0.302 NA
HETATM   44  H   UNL     1     -39.787  54.307 -54.460  1.00  0.00     0.124 HD
HETATM   45  H   UNL     1     -41.433  54.049 -54.301  1.00  0.00     0.124 HD
ENDBRANCH  35  43
ENDBRANCH  28  31
ENDBRANCH  26  27
ENDBRANCH  25  26
ENDBRANCH  24  25
ENDBRANCH   1  24
TORSDOF 12
ENDMDL
MODEL 4
REMARK VINA RESULT:      -8.2      2.384      8.600
REMARK  12 active torsions:
REMARK  status: ('A' for Active; 'I' for Inactive)
REMARK    1  A    between atoms: C_7  and  N_8 
REMARK    2  A    between atoms: C_12  and  N_13 
REMARK       I    between atoms: N_13  and  C_14 
REMARK    3  A    between atoms: C_14  and  C_15 
REMARK    4  A    between atoms: C_15  and  C_16 
REMARK    5  A    between atoms: C_16  and  C_17 
REMARK    6  A    between atoms: C_17  and  C_18 
REMARK    7  A    between atoms: C_18  and  C_19 
REMARK    8  A    between atoms: C_19  and  C_20 
REMARK    9  A    between atoms: C_20  and  C_21 
REMARK   10  A    between atoms: C_21  and  C_22 
REMARK       I    between atoms: C_22  and  N_23 
REMARK   11  A    between atoms: N_23  and  C_24 
REMARK   12  A    between atoms: C_33  and  N_34 
ROOT
HETATM    1  C   UNL     1     -42.111  56.742 -59.952  1.00  0.00     0.000 C 
ENDROOT
BRANCH   1   2
HETATM    2  C   UNL     1     -41.712  58.150 -60.405  1.00  0.00     0.000 C 
BRANCH   2   3
HETATM    3  C   UNL     1     -42.660  59.248 -59.909  1.00  0.00     0.009 C 
BRANCH   3   4
HETATM    4  C   UNL     1     -42.238  59.951 -58.616  1.00  0.00     0.103 C 
BRANCH   4   5
HETATM    5  C   UNL     1     -43.206  61.017 -58.153  1.00  0.00     0.222 C 
HETATM    6  N   UNL     1     -43.996  60.840 -57.053  1.00  0.00    -0.327 N 
HETATM    7  H   UNL     1     -44.573  61.669 -56.941  1.00  0.00     0.169 HD
HETATM    8  O   UNL     1     -43.328  62.086 -58.754  1.00  0.00    -0.273 OA
BRANCH   6   9
HETATM    9  C   UNL     1     -44.171  59.827 -56.095  1.00  0.00     0.035 A 
HETATM   10  C   UNL     1     -45.187  58.878 -56.085  1.00  0.00     0.032 A 
HETATM   11  C   UNL     1     -45.233  57.891 -55.090  1.00  0.00     0.033 A 
HETATM   12  C   UNL     1     -44.264  57.844 -54.081  1.00  0.00     0.044 A 
HETATM   13  N   UNL     1     -44.300  56.860 -53.163  1.00  0.00    -0.359 N 
HETATM   14  C   UNL     1     -43.235  58.807 -54.034  1.00  0.00     0.014 A 
HETATM   15  C   UNL     1     -43.381  56.716 -52.196  1.00  0.00     0.007 A 
HETATM   16  H   UNL     1     -45.052  56.174 -53.223  1.00  0.00     0.166 HD
HETATM   17  C   UNL     1     -43.486  55.555 -51.261  1.00  0.00     0.068 C 
HETATM   18  C   UNL     1     -42.354  57.651 -52.095  1.00  0.00     0.048 A 
HETATM   19  C   UNL     1     -42.297  58.736 -52.974  1.00  0.00     0.020 A 
HETATM   20  C   UNL     1     -43.211  59.781 -55.065  1.00  0.00     0.045 A 
BRANCH  19  21
HETATM   21  N   UNL     1     -41.181  59.578 -52.907  1.00  0.00    -0.302 NA
HETATM   22  H   UNL     1     -40.308  59.153 -52.608  1.00  0.00     0.124 HD
HETATM   23  H   UNL     1     -41.022  60.175 -53.718  1.00  0.00     0.124 HD
ENDBRANCH  19  21
ENDBRANCH   6   9
ENDBRANCH   4   5
ENDBRANCH   3   4
ENDBRANCH   2   3
ENDBRANCH   1   2
BRANCH   1  24
HETATM   24  C   UNL     1     -43.561  56.712 -59.459  1.00  0.00     0.000 C 
BRANCH  24  25
HETATM   25  C   UNL     1     -43.735  56.100 -58.066  1.00  0.00     0.009 C 
BRANCH  25  26
HETATM   26  C   UNL     1     -42.527  56.211 -57.141  1.00  0.00     0.103 C 
BRANCH  26  27
HETATM   27  C   UNL     1     -42.479  55.178 -56.028  1.00  0.00     0.222 C 
HETATM   28  N   UNL     1     -41.200  54.734 -55.740  1.00  0.00    -0.327 N 
HETATM   29  H   UNL     1     -40.467  55.037 -56.372  1.00  0.00     0.169 HD
HETATM   30  O   UNL     1     -43.510  54.824 -55.462  1.00  0.00    -0.273 OA
BRANCH  28  31
HETATM   31  C   UNL     1     -40.812  53.878 -54.688  1.00  0.00     0.035 A 
HETATM   32  C   UNL     1     -40.537  52.515 -54.853  1.00  0.00     0.045 A 
HETATM   33  C   UNL     1     -40.165  51.680 -53.770  1.00  0.00     0.014 A 
HETATM   34  C   UNL     1     -40.092  52.270 -52.488  1.00  0.00     0.044 A 
HETATM   35  C   UNL     1     -39.870  50.299 -53.893  1.00  0.00     0.020 A 
HETATM   36  N   UNL     1     -39.779  51.510 -51.423  1.00  0.00    -0.359 N 
HETATM   37  C   UNL     1     -40.366  53.634 -52.315  1.00  0.00     0.033 A 
HETATM   38  H   UNL     1     -39.735  51.958 -50.509  1.00  0.00     0.166 HD
HETATM   39  C   UNL     1     -39.550  50.188 -51.497  1.00  0.00     0.007 A 
HETATM   40  C   UNL     1     -39.261  49.429 -50.242  1.00  0.00     0.068 C 
HETATM   41  C   UNL     1     -39.614  49.559 -52.736  1.00  0.00     0.048 A 
HETATM   42  C   UNL     1     -40.727  54.428 -53.407  1.00  0.00     0.032 A 
BRANCH  35  43
HETATM   43  N   UNL     1     -40.055  49.599 -55.092  1.00  0.00    -0.302 NA
HETATM   44  H   UNL     1     -40.888  49.833 -55.626  1.00  0.00     0.124 HD
HETATM   45  H   UNL     1     -39.929  48.589 -55.049  1.00  0.00     0.124 HD
ENDBRANCH  35  43
ENDBRANCH  28  31
ENDBRANCH  26  27
ENDBRANCH  25  26
ENDBRANCH  24  25
ENDBRANCH   1  24
TORSDOF 12
ENDMDL
MODEL 5
REMARK VINA RESULT:      -8.0      2.321      8.237
REMARK  12 active torsions:
REMARK  status: ('A' for Active; 'I' for Inactive)
REMARK    1  A    between atoms: C_7  and  N_8 
REMARK    2  A    between atoms: C_12  and  N_13 
REMARK       I    between atoms: N_13  and  C_14 
REMARK    3  A    between atoms: C_14  and  C_15 
REMARK    4  A    between atoms: C_15  and  C_16 
REMARK    5  A    between atoms: C_16  and  C_17 
REMARK    6  A    between atoms: C_17  and  C_18 
REMARK    7  A    between atoms: C_18  and  C_19 
REMARK    8  A    between atoms: C_19  and  C_20 
REMARK    9  A    between atoms: C_20  and  C_21 
REMARK   10  A    between atoms: C_21  and  C_22 
REMARK       I    between atoms: C_22  and  N_23 
REMARK   11  A    between atoms: N_23  and  C_24 
REMARK   12  A    between atoms: C_33  and  N_34 
ROOT
HETATM    1  C   UNL     1     -44.773  59.204 -51.087  1.00  0.00     0.000 C 
ENDROOT
BRANCH   1   2
HETATM    2  C   UNL     1     -45.006  59.414 -52.587  1.00  0.00     0.000 C 
BRANCH   2   3
HETATM    3  C   UNL     1     -45.111  58.107 -53.382  1.00  0.00     0.009 C 
BRANCH   3   4
HETATM    4  C   UNL     1     -43.779  57.446 -53.745  1.00  0.00     0.103 C 
BRANCH   4   5
HETATM    5  C   UNL     1     -43.920  56.230 -54.633  1.00  0.00     0.222 C 
HETATM    6  N   UNL     1     -43.953  56.335 -55.995  1.00  0.00    -0.327 N 
HETATM    7  H   UNL     1     -44.070  55.402 -56.381  1.00  0.00     0.169 HD
HETATM    8  O   UNL     1     -44.018  55.093 -54.165  1.00  0.00    -0.273 OA
BRANCH   6   9
HETATM    9  C   UNL     1     -43.861  57.386 -56.923  1.00  0.00     0.035 A 
HETATM   10  C   UNL     1     -44.494  58.620 -56.825  1.00  0.00     0.032 A 
HETATM   11  C   UNL     1     -44.294  59.605 -57.803  1.00  0.00     0.033 A 
HETATM   12  C   UNL     1     -43.460  59.366 -58.902  1.00  0.00     0.044 A 
HETATM   13  N   UNL     1     -43.245  60.341 -59.805  1.00  0.00    -0.359 N 
HETATM   14  C   UNL     1     -42.825  58.116 -59.058  1.00  0.00     0.014 A 
HETATM   15  C   UNL     1     -42.422  60.207 -60.856  1.00  0.00     0.007 A 
HETATM   16  H   UNL     1     -43.712  61.236 -59.665  1.00  0.00     0.166 HD
HETATM   17  C   UNL     1     -42.213  61.374 -61.767  1.00  0.00     0.068 C 
HETATM   18  C   UNL     1     -41.785  58.987 -61.065  1.00  0.00     0.048 A 
HETATM   19  C   UNL     1     -42.019  57.912 -60.205  1.00  0.00     0.020 A 
HETATM   20  C   UNL     1     -43.039  57.149 -58.042  1.00  0.00     0.045 A 
BRANCH  19  21
HETATM   21  N   UNL     1     -41.264  56.747 -60.388  1.00  0.00    -0.302 NA
HETATM   22  H   UNL     1     -41.045  56.212 -59.552  1.00  0.00     0.124 HD
HETATM   23  H   UNL     1     -41.574  56.125 -61.133  1.00  0.00     0.124 HD
ENDBRANCH  19  21
ENDBRANCH   6   9
ENDBRANCH   4   5
ENDBRANCH   3   4
ENDBRANCH   2   3
ENDBRANCH   1   2
BRANCH   1  24
HETATM   24  C   UNL     1     -43.925  60.334 -50.498  1.00  0.00     0.000 C 
BRANCH  24  25
HETATM   25  C   UNL     1     -42.503  60.410 -51.064  1.00  0.00     0.009 C 
BRANCH  25  26
HETATM   26  C   UNL     1     -41.398  59.912 -50.137  1.00  0.00     0.103 C 
BRANCH  26  27
HETATM   27  C   UNL     1     -40.669  58.671 -50.625  1.00  0.00     0.222 C 
HETATM   28  N   UNL     1     -41.447  57.526 -50.597  1.00  0.00    -0.327 N 
HETATM   29  H   UNL     1     -42.351  57.609 -50.145  1.00  0.00     0.169 HD
HETATM   30  O   UNL     1     -39.506  58.743 -51.012  1.00  0.00    -0.273 OA
BRANCH  28  31
HETATM   31  C   UNL     1     -41.105  56.252 -51.096  1.00  0.00     0.035 A 
HETATM   32  C   UNL     1     -41.010  55.948 -52.459  1.00  0.00     0.045 A 
HETATM   33  C   UNL     1     -40.680  54.650 -52.925  1.00  0.00     0.014 A 
HETATM   34  C   UNL     1     -40.459  53.647 -51.956  1.00  0.00     0.044 A 
HETATM   35  C   UNL     1     -40.565  54.301 -54.294  1.00  0.00     0.020 A 
HETATM   36  N   UNL     1     -40.178  52.392 -52.351  1.00  0.00    -0.359 N 
HETATM   37  C   UNL     1     -40.552  53.943 -50.589  1.00  0.00     0.033 A 
HETATM   38  H   UNL     1     -40.025  51.685 -51.633  1.00  0.00     0.166 HD
HETATM   39  C   UNL     1     -40.118  52.016 -53.639  1.00  0.00     0.007 A 
HETATM   40  C   UNL     1     -39.850  50.582 -53.966  1.00  0.00     0.068 C 
HETATM   41  C   UNL     1     -40.333  52.966 -54.632  1.00  0.00     0.048 A 
HETATM   42  C   UNL     1     -40.877  55.235 -50.165  1.00  0.00     0.032 A 
BRANCH  35  43
HETATM   43  N   UNL     1     -40.906  55.188 -55.324  1.00  0.00    -0.302 NA
HETATM   44  H   UNL     1     -40.534  56.132 -55.247  1.00  0.00     0.124 HD
HETATM   45  H   UNL     1     -41.887  55.211 -55.593  1.00  0.00     0.124 HD
ENDBRANCH  35  43
ENDBRANCH  28  31
ENDBRANCH  26  27
ENDBRANCH  25  26
ENDBRANCH  24  25
ENDBRANCH   1  24
TORSDOF 12
ENDMDL
MODEL 6
REMARK VINA RESULT:      -7.9      2.638      7.853
REMARK  12 active torsions:
REMARK  status: ('A' for Active; 'I' for Inactive)
REMARK    1  A    between atoms: C_7  and  N_8 
REMARK    2  A    between atoms: C_12  and  N_13 
REMARK       I    between atoms: N_13  and  C_14 
REMARK    3  A    between atoms: C_14  and  C_15 
REMARK    4  A    between atoms: C_15  and  C_16 
REMARK    5  A    between atoms: C_16  and  C_17 
REMARK    6  A    between atoms: C_17  and  C_18 
REMARK    7  A    between atoms: C_18  and  C_19 
REMARK    8  A    between atoms: C_19  and  C_20 
REMARK    9  A    between atoms: C_20  and  C_21 
REMARK   10  A    between atoms: C_21  and  C_22 
REMARK       I    between atoms: C_22  and  N_23 
REMARK   11  A    between atoms: N_23  and  C_24 
REMARK   12  A    between atoms: C_33  and  N_34 
ROOT
HETATM    1  C   UNL     1     -43.332  58.403 -59.462  1.00  0.00     0.000 C 
ENDROOT
BRANCH   1   2
HETATM    2  C   UNL     1     -44.468  59.278 -60.004  1.00  0.00     0.000 C 
BRANCH   2   3
HETATM    3  C   UNL     1     -45.334  59.910 -58.909  1.00  0.00     0.009 C 
BRANCH   3   4
HETATM    4  C   UNL     1     -44.939  59.563 -57.471  1.00  0.00     0.103 C 
BRANCH   4   5
HETATM    5  C   UNL     1     -45.845  58.546 -56.815  1.00  0.00     0.222 C 
HETATM    6  N   UNL     1     -45.759  58.261 -55.481  1.00  0.00    -0.327 N 
HETATM    7  H   UNL     1     -46.445  57.544 -55.266  1.00  0.00     0.169 HD
HETATM    8  O   UNL     1     -46.696  57.926 -57.457  1.00  0.00    -0.273 OA
BRANCH   6   9
HETATM    9  C   UNL     1     -44.979  58.720 -54.406  1.00  0.00     0.035 A 
HETATM   10  C   UNL     1     -45.399  59.587 -53.403  1.00  0.00     0.032 A 
HETATM   11  C   UNL     1     -44.535  59.945 -52.359  1.00  0.00     0.033 A 
HETATM   12  C   UNL     1     -43.229  59.444 -52.306  1.00  0.00     0.044 A 
HETATM   13  N   UNL     1     -42.431  59.762 -51.269  1.00  0.00    -0.359 N 
HETATM   14  C   UNL     1     -42.751  58.588 -53.319  1.00  0.00     0.014 A 
HETATM   15  C   UNL     1     -41.186  59.284 -51.120  1.00  0.00     0.007 A 
HETATM   16  H   UNL     1     -42.803  60.379 -50.548  1.00  0.00     0.166 HD
HETATM   17  C   UNL     1     -40.405  59.659 -49.902  1.00  0.00     0.068 C 
HETATM   18  C   UNL     1     -40.660  58.449 -52.102  1.00  0.00     0.048 A 
HETATM   19  C   UNL     1     -41.410  58.134 -53.238  1.00  0.00     0.020 A 
HETATM   20  C   UNL     1     -43.658  58.236 -54.352  1.00  0.00     0.045 A 
BRANCH  19  21
HETATM   21  N   UNL     1     -40.884  57.197 -54.135  1.00  0.00    -0.302 NA
HETATM   22  H   UNL     1     -41.536  56.789 -54.800  1.00  0.00     0.124 HD
HETATM   23  H   UNL     1     -40.022  57.465 -54.608  1.00  0.00     0.124 HD
ENDBRANCH  19  21
ENDBRANCH   6   9
ENDBRANCH   4   5
ENDBRANCH   3   4
ENDBRANCH   2   3
ENDBRANCH   1   2
BRANCH   1  24
HETATM   24  C   UNL     1     -43.126  57.163 -60.336  1.00  0.00     0.000 C 
BRANCH  24  25
HETATM   25  C   UNL     1     -42.728  55.907 -59.555  1.00  0.00     0.009 C 
BRANCH  25  26
HETATM   26  C   UNL     1     -43.635  55.545 -58.383  1.00  0.00     0.103 C 
BRANCH  26  27
HETATM   27  C   UNL     1     -42.978  55.640 -57.015  1.00  0.00     0.222 C 
HETATM   28  N   UNL     1     -43.324  54.605 -56.163  1.00  0.00    -0.327 N 
HETATM   29  H   UNL     1     -44.058  53.984 -56.486  1.00  0.00     0.169 HD
HETATM   30  O   UNL     1     -42.208  56.560 -56.757  1.00  0.00    -0.273 OA
BRANCH  28  31
HETATM   31  C   UNL     1     -42.792  54.342 -54.884  1.00  0.00     0.035 A 
HETATM   32  C   UNL     1     -43.323  54.862 -53.697  1.00  0.00     0.045 A 
HETATM   33  C   UNL     1     -42.752  54.590 -52.428  1.00  0.00     0.014 A 
HETATM   34  C   UNL     1     -41.600  53.773 -52.394  1.00  0.00     0.044 A 
HETATM   35  C   UNL     1     -43.261  55.088 -51.203  1.00  0.00     0.020 A 
HETATM   36  N   UNL     1     -41.002  53.516 -51.216  1.00  0.00    -0.359 N 
HETATM   37  C   UNL     1     -41.063  53.248 -53.577  1.00  0.00     0.033 A 
HETATM   38  H   UNL     1     -40.171  52.927 -51.217  1.00  0.00     0.166 HD
HETATM   39  C   UNL     1     -41.425  54.020 -50.045  1.00  0.00     0.007 A 
HETATM   40  C   UNL     1     -40.655  53.713 -48.801  1.00  0.00     0.068 C 
HETATM   41  C   UNL     1     -42.553  54.834 -50.026  1.00  0.00     0.048 A 
HETATM   42  C   UNL     1     -41.654  53.535 -54.812  1.00  0.00     0.032 A 
BRANCH  35  43
HETATM   43  N   UNL     1     -44.307  56.019 -51.150  1.00  0.00    -0.302 NA
HETATM   44  H   UNL     1     -44.129  56.921 -51.583  1.00  0.00     0.124 HD
HETATM   45  H   UNL     1     -44.760  56.138 -50.246  1.00  0.00     0.124 HD
ENDBRANCH  35  43
ENDBRANCH  28  31
ENDBRANCH  26  27
ENDBRANCH  25  26
ENDBRANCH  24  25
ENDBRANCH   1  24
TORSDOF 12
ENDMDL
MODEL 7
REMARK VINA RESULT:      -7.8      2.561      8.649
REMARK  12 active torsions:
REMARK  status: ('A' for Active; 'I' for Inactive)
REMARK    1  A    between atoms: C_7  and  N_8 
REMARK    2  A    between atoms: C_12  and  N_13 
REMARK       I    between atoms: N_13  and  C_14 
REMARK    3  A    between atoms: C_14  and  C_15 
REMARK    4  A    between atoms: C_15  and  C_16 
REMARK    5  A    between atoms: C_16  and  C_17 
REMARK    6  A    between atoms: C_17  and  C_18 
REMARK    7  A    between atoms: C_18  and  C_19 
REMARK    8  A    between atoms: C_19  and  C_20 
REMARK    9  A    between atoms: C_20  and  C_21 
REMARK   10  A    between atoms: C_21  and  C_22 
REMARK       I    between atoms: C_22  and  N_23 
REMARK   11  A    between atoms: N_23  and  C_24 
REMARK   12  A    between atoms: C_33  and  N_34 
ROOT
HETATM    1  C   UNL     1     -42.197  57.379 -59.909  1.00  0.00     0.000 C 
ENDROOT
BRANCH   1   2
HETATM    2  C   UNL     1     -42.929  58.706 -60.140  1.00  0.00     0.000 C 
BRANCH   2   3
HETATM    3  C   UNL     1     -44.456  58.585 -60.075  1.00  0.00     0.009 C 
BRANCH   3   4
HETATM    4  C   UNL     1     -45.134  59.368 -58.948  1.00  0.00     0.103 C 
BRANCH   4   5
HETATM    5  C   UNL     1     -46.011  58.520 -58.054  1.00  0.00     0.222 C 
HETATM    6  N   UNL     1     -45.624  58.168 -56.792  1.00  0.00    -0.327 N 
HETATM    7  H   UNL     1     -46.354  57.590 -56.386  1.00  0.00     0.169 HD
HETATM    8  O   UNL     1     -47.110  58.106 -58.429  1.00  0.00    -0.273 OA
BRANCH   6   9
HETATM    9  C   UNL     1     -44.506  58.420 -55.978  1.00  0.00     0.035 A 
HETATM   10  C   UNL     1     -43.476  59.313 -56.257  1.00  0.00     0.032 A 
HETATM   11  C   UNL     1     -42.430  59.503 -55.345  1.00  0.00     0.033 A 
HETATM   12  C   UNL     1     -42.392  58.794 -54.138  1.00  0.00     0.044 A 
HETATM   13  N   UNL     1     -41.402  59.026 -53.255  1.00  0.00    -0.359 N 
HETATM   14  C   UNL     1     -43.397  57.855 -53.830  1.00  0.00     0.014 A 
HETATM   15  C   UNL     1     -41.323  58.426 -52.058  1.00  0.00     0.007 A 
HETATM   16  H   UNL     1     -40.691  59.714 -53.501  1.00  0.00     0.166 HD
HETATM   17  C   UNL     1     -40.212  58.798 -51.131  1.00  0.00     0.068 C 
HETATM   18  C   UNL     1     -42.282  57.477 -51.712  1.00  0.00     0.048 A 
HETATM   19  C   UNL     1     -43.296  57.139 -52.611  1.00  0.00     0.020 A 
HETATM   20  C   UNL     1     -44.449  57.699 -54.770  1.00  0.00     0.045 A 
BRANCH  19  21
HETATM   21  N   UNL     1     -44.302  56.270 -52.171  1.00  0.00    -0.302 NA
HETATM   22  H   UNL     1     -45.198  56.691 -51.943  1.00  0.00     0.124 HD
HETATM   23  H   UNL     1     -44.441  55.427 -52.728  1.00  0.00     0.124 HD
ENDBRANCH  19  21
ENDBRANCH   6   9
ENDBRANCH   4   5
ENDBRANCH   3   4
ENDBRANCH   2   3
ENDBRANCH   1   2
BRANCH   1  24
HETATM   24  C   UNL     1     -43.182  56.206 -59.871  1.00  0.00     0.000 C 
BRANCH  24  25
HETATM   25  C   UNL     1     -43.543  55.739 -58.458  1.00  0.00     0.009 C 
BRANCH  25  26
HETATM   26  C   UNL     1     -42.459  55.934 -57.402  1.00  0.00     0.103 C 
BRANCH  26  27
HETATM   27  C   UNL     1     -42.383  54.834 -56.356  1.00  0.00     0.222 C 
HETATM   28  N   UNL     1     -41.136  54.718 -55.766  1.00  0.00    -0.327 N 
HETATM   29  H   UNL     1     -40.393  55.275 -56.174  1.00  0.00     0.169 HD
HETATM   30  O   UNL     1     -43.373  54.158 -56.090  1.00  0.00    -0.273 OA
BRANCH  28  31
HETATM   31  C   UNL     1     -40.780  53.885 -54.684  1.00  0.00     0.035 A 
HETATM   32  C   UNL     1     -40.500  52.520 -54.811  1.00  0.00     0.045 A 
HETATM   33  C   UNL     1     -40.161  51.709 -53.699  1.00  0.00     0.014 A 
HETATM   34  C   UNL     1     -40.127  52.327 -52.429  1.00  0.00     0.044 A 
HETATM   35  C   UNL     1     -39.862  50.326 -53.783  1.00  0.00     0.020 A 
HETATM   36  N   UNL     1     -39.845  51.590 -51.339  1.00  0.00    -0.359 N 
HETATM   37  C   UNL     1     -40.406  53.693 -52.294  1.00  0.00     0.033 A 
HETATM   38  H   UNL     1     -39.829  52.057 -50.434  1.00  0.00     0.166 HD
HETATM   39  C   UNL     1     -39.614  50.267 -51.377  1.00  0.00     0.007 A 
HETATM   40  C   UNL     1     -39.363  49.535 -50.098  1.00  0.00     0.068 C 
HETATM   41  C   UNL     1     -39.641  49.611 -52.604  1.00  0.00     0.048 A 
HETATM   42  C   UNL     1     -40.734  54.464 -53.413  1.00  0.00     0.032 A 
BRANCH  35  43
HETATM   43  N   UNL     1     -40.011  49.599 -54.972  1.00  0.00    -0.302 NA
HETATM   44  H   UNL     1     -40.554  48.741 -54.911  1.00  0.00     0.124 HD
HETATM   45  H   UNL     1     -39.165  49.450 -55.519  1.00  0.00     0.124 HD
ENDBRANCH  35  43
ENDBRANCH  28  31
ENDBRANCH  26  27
ENDBRANCH  25  26
ENDBRANCH  24  25
ENDBRANCH   1  24
TORSDOF 12
ENDMDL
MODEL 8
REMARK VINA RESULT:      -7.8      3.112      7.346
REMARK  12 active torsions:
REMARK  status: ('A' for Active; 'I' for Inactive)
REMARK    1  A    between atoms: C_7  and  N_8 
REMARK    2  A    between atoms: C_12  and  N_13 
REMARK       I    between atoms: N_13  and  C_14 
REMARK    3  A    between atoms: C_14  and  C_15 
REMARK    4  A    between atoms: C_15  and  C_16 
REMARK    5  A    between atoms: C_16  and  C_17 
REMARK    6  A    between atoms: C_17  and  C_18 
REMARK    7  A    between atoms: C_18  and  C_19 
REMARK    8  A    between atoms: C_19  and  C_20 
REMARK    9  A    between atoms: C_20  and  C_21 
REMARK   10  A    between atoms: C_21  and  C_22 
REMARK       I    between atoms: C_22  and  N_23 
REMARK   11  A    between atoms: N_23  and  C_24 
REMARK   12  A    between atoms: C_33  and  N_34 
ROOT
HETATM    1  C   UNL     1     -44.590  54.987 -60.362  1.00  0.00     0.000 C 
ENDROOT
BRANCH   1   2
HETATM    2  C   UNL     1     -43.700  55.980 -59.606  1.00  0.00     0.000 C 
BRANCH   2   3
HETATM    3  C   UNL     1     -42.852  55.332 -58.506  1.00  0.00     0.009 C 
BRANCH   3   4
HETATM    4  C   UNL     1     -43.224  55.716 -57.072  1.00  0.00     0.103 C 
BRANCH   4   5
HETATM    5  C   UNL     1     -42.272  56.703 -56.435  1.00  0.00     0.222 C 
HETATM    6  N   UNL     1     -41.378  56.322 -55.476  1.00  0.00    -0.327 N 
HETATM    7  H   UNL     1     -40.858  57.144 -55.182  1.00  0.00     0.169 HD
HETATM    8  O   UNL     1     -42.268  57.895 -56.750  1.00  0.00    -0.273 OA
BRANCH   6   9
HETATM    9  C   UNL     1     -41.034  55.112 -54.847  1.00  0.00     0.035 A 
HETATM   10  C   UNL     1     -40.535  53.978 -55.476  1.00  0.00     0.032 A 
HETATM   11  C   UNL     1     -40.195  52.840 -54.733  1.00  0.00     0.033 A 
HETATM   12  C   UNL     1     -40.358  52.816 -53.342  1.00  0.00     0.044 A 
HETATM   13  N   UNL     1     -39.981  51.730 -52.641  1.00  0.00    -0.359 N 
HETATM   14  C   UNL     1     -40.892  53.933 -52.667  1.00  0.00     0.014 A 
HETATM   15  C   UNL     1     -40.058  51.649 -51.304  1.00  0.00     0.007 A 
HETATM   16  H   UNL     1     -39.593  50.939 -53.153  1.00  0.00     0.166 HD
HETATM   17  C   UNL     1     -39.561  50.417 -50.621  1.00  0.00     0.068 C 
HETATM   18  C   UNL     1     -40.595  52.718 -50.592  1.00  0.00     0.048 A 
HETATM   19  C   UNL     1     -41.069  53.848 -51.264  1.00  0.00     0.020 A 
HETATM   20  C   UNL     1     -41.211  55.072 -53.451  1.00  0.00     0.045 A 
BRANCH  19  21
HETATM   21  N   UNL     1     -41.488  54.942 -50.497  1.00  0.00    -0.302 NA
HETATM   22  H   UNL     1     -40.983  55.109 -49.631  1.00  0.00     0.124 HD
HETATM   23  H   UNL     1     -41.621  55.817 -51.001  1.00  0.00     0.124 HD
ENDBRANCH  19  21
ENDBRANCH   6   9
ENDBRANCH   4   5
ENDBRANCH   3   4
ENDBRANCH   2   3
ENDBRANCH   1   2
BRANCH   1  24
HETATM   24  C   UNL     1     -46.057  55.426 -60.329  1.00  0.00     0.000 C 
BRANCH  24  25
HETATM   25  C   UNL     1     -46.254  56.936 -60.168  1.00  0.00     0.009 C 
BRANCH  25  26
HETATM   26  C   UNL     1     -46.864  57.384 -58.843  1.00  0.00     0.103 C 
BRANCH  26  27
HETATM   27  C   UNL     1     -45.930  58.184 -57.950  1.00  0.00     0.222 C 
HETATM   28  N   UNL     1     -46.199  58.040 -56.599  1.00  0.00    -0.327 N 
HETATM   29  H   UNL     1     -47.047  57.537 -56.361  1.00  0.00     0.169 HD
HETATM   30  O   UNL     1     -45.028  58.860 -58.438  1.00  0.00    -0.273 OA
BRANCH  28  31
HETATM   31  C   UNL     1     -45.444  58.548 -55.522  1.00  0.00     0.035 A 
HETATM   32  C   UNL     1     -44.983  57.767 -54.455  1.00  0.00     0.045 A 
HETATM   33  C   UNL     1     -44.240  58.315 -53.380  1.00  0.00     0.014 A 
HETATM   34  C   UNL     1     -43.983  59.704 -53.407  1.00  0.00     0.044 A 
HETATM   35  C   UNL     1     -43.749  57.560 -52.285  1.00  0.00     0.020 A 
HETATM   36  N   UNL     1     -43.312  60.275 -52.390  1.00  0.00    -0.359 N 
HETATM   37  C   UNL     1     -44.440  60.492 -54.471  1.00  0.00     0.033 A 
HETATM   38  H   UNL     1     -43.141  61.279 -52.430  1.00  0.00     0.166 HD
HETATM   39  C   UNL     1     -42.883  59.598 -51.311  1.00  0.00     0.007 A 
HETATM   40  C   UNL     1     -42.193  60.342 -50.213  1.00  0.00     0.068 C 
HETATM   41  C   UNL     1     -43.116  58.229 -51.235  1.00  0.00     0.048 A 
HETATM   42  C   UNL     1     -45.168  59.918 -55.517  1.00  0.00     0.032 A 
BRANCH  35  43
HETATM   43  N   UNL     1     -44.076  56.210 -52.100  1.00  0.00    -0.302 NA
HETATM   44  H   UNL     1     -43.606  55.734 -51.335  1.00  0.00     0.124 HD
HETATM   45  H   UNL     1     -44.081  55.628 -52.935  1.00  0.00     0.124 HD
ENDBRANCH  35  43
ENDBRANCH  28  31
ENDBRANCH  26  27
ENDBRANCH  25  26
ENDBRANCH  24  25
ENDBRANCH   1  24
TORSDOF 12
ENDMDL
MODEL 9
REMARK VINA RESULT:      -7.5     16.512     18.984
REMARK  12 active torsions:
REMARK  status: ('A' for Active; 'I' for Inactive)
REMARK    1  A    between atoms: C_7  and  N_8 
REMARK    2  A    between atoms: C_12  and  N_13 
REMARK       I    between atoms: N_13  and  C_14 
REMARK    3  A    between atoms: C_14  and  C_15 
REMARK    4  A    between atoms: C_15  and  C_16 
REMARK    5  A    between atoms: C_16  and  C_17 
REMARK    6  A    between atoms: C_17  and  C_18 
REMARK    7  A    between atoms: C_18  and  C_19 
REMARK    8  A    between atoms: C_19  and  C_20 
REMARK    9  A    between atoms: C_20  and  C_21 
REMARK   10  A    between atoms: C_21  and  C_22 
REMARK       I    between atoms: C_22  and  N_23 
REMARK   11  A    between atoms: N_23  and  C_24 
REMARK   12  A    between atoms: C_33  and  N_34 
ROOT
HETATM    1  C   UNL     1     -36.483  40.046 -49.686  1.00  0.00     0.000 C 
ENDROOT
BRANCH   1   2
HETATM    2  C   UNL     1     -35.634  38.908 -49.110  1.00  0.00     0.000 C 
BRANCH   2   3
HETATM    3  C   UNL     1     -34.479  38.480 -50.022  1.00  0.00     0.009 C 
BRANCH   3   4
HETATM    4  C   UNL     1     -33.102  38.412 -49.356  1.00  0.00     0.103 C 
BRANCH   4   5
HETATM    5  C   UNL     1     -32.219  39.604 -49.652  1.00  0.00     0.222 C 
HETATM    6  N   UNL     1     -31.844  39.920 -50.927  1.00  0.00    -0.327 N 
HETATM    7  H   UNL     1     -31.244  40.739 -50.887  1.00  0.00     0.169 HD
HETATM    8  O   UNL     1     -31.795  40.335 -48.755  1.00  0.00    -0.273 OA
BRANCH   6   9
HETATM    9  C   UNL     1     -32.096  39.396 -52.207  1.00  0.00     0.035 A 
HETATM   10  C   UNL     1     -31.750  38.125 -52.652  1.00  0.00     0.032 A 
HETATM   11  C   UNL     1     -32.089  37.704 -53.945  1.00  0.00     0.033 A 
HETATM   12  C   UNL     1     -32.776  38.555 -54.820  1.00  0.00     0.044 A 
HETATM   13  N   UNL     1     -33.134  38.115 -56.041  1.00  0.00    -0.359 N 
HETATM   14  C   UNL     1     -33.118  39.864 -54.421  1.00  0.00     0.014 A 
HETATM   15  C   UNL     1     -33.836  38.850 -56.916  1.00  0.00     0.007 A 
HETATM   16  H   UNL     1     -32.879  37.163 -56.302  1.00  0.00     0.166 HD
HETATM   17  C   UNL     1     -34.229  38.244 -58.224  1.00  0.00     0.068 C 
HETATM   18  C   UNL     1     -34.183  40.156 -56.577  1.00  0.00     0.048 A 
HETATM   19  C   UNL     1     -33.783  40.698 -55.353  1.00  0.00     0.020 A 
HETATM   20  C   UNL     1     -32.771  40.250 -53.100  1.00  0.00     0.045 A 
BRANCH  19  21
HETATM   21  N   UNL     1     -34.258  41.970 -55.011  1.00  0.00    -0.302 NA
HETATM   22  H   UNL     1     -35.223  42.025 -54.698  1.00  0.00     0.124 HD
HETATM   23  H   UNL     1     -33.658  42.522 -54.399  1.00  0.00     0.124 HD
ENDBRANCH  19  21
ENDBRANCH   6   9
ENDBRANCH   4   5
ENDBRANCH   3   4
ENDBRANCH   2   3
ENDBRANCH   1   2
BRANCH   1  24
HETATM   24  C   UNL     1     -36.747  39.835 -51.180  1.00  0.00     0.000 C 
BRANCH  24  25
HETATM   25  C   UNL     1     -36.303  41.004 -52.065  1.00  0.00     0.009 C 
BRANCH  25  26
HETATM   26  C   UNL     1     -37.331  41.486 -53.084  1.00  0.00     0.103 C 
BRANCH  26  27
HETATM   27  C   UNL     1     -37.312  40.742 -54.409  1.00  0.00     0.222 C 
HETATM   28  N   UNL     1     -37.651  41.535 -55.493  1.00  0.00    -0.327 N 
HETATM   29  H   UNL     1     -37.993  42.465 -55.279  1.00  0.00     0.169 HD
HETATM   30  O   UNL     1     -36.999  39.556 -54.453  1.00  0.00    -0.273 OA
BRANCH  28  31
HETATM   31  C   UNL     1     -37.607  41.177 -56.856  1.00  0.00     0.035 A 
HETATM   32  C   UNL     1     -37.992  39.923 -57.346  1.00  0.00     0.045 A 
HETATM   33  C   UNL     1     -37.918  39.592 -58.723  1.00  0.00     0.014 A 
HETATM   34  C   UNL     1     -37.422  40.578 -59.604  1.00  0.00     0.044 A 
HETATM   35  C   UNL     1     -38.304  38.340 -59.262  1.00  0.00     0.020 A 
HETATM   36  N   UNL     1     -37.300  40.298 -60.914  1.00  0.00    -0.359 N 
HETATM   37  C   UNL     1     -37.035  41.836 -59.121  1.00  0.00     0.033 A 
HETATM   38  H   UNL     1     -36.937  41.024 -61.530  1.00  0.00     0.166 HD
HETATM   39  C   UNL     1     -37.603  39.103 -61.448  1.00  0.00     0.007 A 
HETATM   40  C   UNL     1     -37.380  38.882 -62.910  1.00  0.00     0.068 C 
HETATM   41  C   UNL     1     -38.091  38.097 -60.621  1.00  0.00     0.048 A 
HETATM   42  C   UNL     1     -37.123  42.129 -57.757  1.00  0.00     0.032 A 
BRANCH  35  43
HETATM   43  N   UNL     1     -38.670  37.256 -58.452  1.00  0.00    -0.302 NA
HETATM   44  H   UNL     1     -39.459  36.701 -58.772  1.00  0.00     0.124 HD
HETATM   45  H   UNL     1     -38.744  37.444 -57.454  1.00  0.00     0.124 HD
ENDBRANCH  35  43
ENDBRANCH  28  31
ENDBRANCH  26  27
ENDBRANCH  25  26
ENDBRANCH  24  25
ENDBRANCH   1  24
TORSDOF 12
ENDMDL
MODEL 10
REMARK VINA RESULT:      -7.5      2.835      8.833
REMARK  12 active torsions:
REMARK  status: ('A' for Active; 'I' for Inactive)
REMARK    1  A    between atoms: C_7  and  N_8 
REMARK    2  A    between atoms: C_12  and  N_13 
REMARK       I    between atoms: N_13  and  C_14 
REMARK    3  A    between atoms: C_14  and  C_15 
REMARK    4  A    between atoms: C_15  and  C_16 
REMARK    5  A    between atoms: C_16  and  C_17 
REMARK    6  A    between atoms: C_17  and  C_18 
REMARK    7  A    between atoms: C_18  and  C_19 
REMARK    8  A    between atoms: C_19  and  C_20 
REMARK    9  A    between atoms: C_20  and  C_21 
REMARK   10  A    between atoms: C_21  and  C_22 
REMARK       I    between atoms: C_22  and  N_23 
REMARK   11  A    between atoms: N_23  and  C_24 
REMARK   12  A    between atoms: C_33  and  N_34 
ROOT
HETATM    1  C   UNL     1     -42.877  59.831 -57.484  1.00  0.00     0.000 C 
ENDROOT
BRANCH   1   2
HETATM    2  C   UNL     1     -43.688  60.227 -58.723  1.00  0.00     0.000 C 
BRANCH   2   3
HETATM    3  C   UNL     1     -44.306  61.626 -58.633  1.00  0.00     0.009 C 
BRANCH   3   4
HETATM    4  C   UNL     1     -44.582  62.136 -57.216  1.00  0.00     0.103 C 
BRANCH   4   5
HETATM    5  C   UNL     1     -45.950  61.765 -56.687  1.00  0.00     0.222 C 
HETATM    6  N   UNL     1     -46.104  61.027 -55.549  1.00  0.00    -0.327 N 
HETATM    7  H   UNL     1     -47.098  60.886 -55.395  1.00  0.00     0.169 HD
HETATM    8  O   UNL     1     -46.983  62.109 -57.266  1.00  0.00    -0.273 OA
BRANCH   6   9
HETATM    9  C   UNL     1     -45.240  60.459 -54.597  1.00  0.00     0.035 A 
HETATM   10  C   UNL     1     -44.445  61.157 -53.694  1.00  0.00     0.032 A 
HETATM   11  C   UNL     1     -43.650  60.473 -52.765  1.00  0.00     0.033 A 
HETATM   12  C   UNL     1     -43.630  59.073 -52.730  1.00  0.00     0.044 A 
HETATM   13  N   UNL     1     -42.894  58.436 -51.799  1.00  0.00    -0.359 N 
HETATM   14  C   UNL     1     -44.395  58.325 -53.649  1.00  0.00     0.014 A 
HETATM   15  C   UNL     1     -42.862  57.101 -51.668  1.00  0.00     0.007 A 
HETATM   16  H   UNL     1     -42.355  59.001 -51.144  1.00  0.00     0.166 HD
HETATM   17  C   UNL     1     -42.055  56.499 -50.564  1.00  0.00     0.068 C 
HETATM   18  C   UNL     1     -43.586  56.316 -52.562  1.00  0.00     0.048 A 
HETATM   19  C   UNL     1     -44.315  56.911 -53.594  1.00  0.00     0.020 A 
HETATM   20  C   UNL     1     -45.199  59.051 -54.565  1.00  0.00     0.045 A 
BRANCH  19  21
HETATM   21  N   UNL     1     -45.120  56.088 -54.391  1.00  0.00    -0.302 NA
HETATM   22  H   UNL     1     -45.090  55.093 -54.189  1.00  0.00     0.124 HD
HETATM   23  H   UNL     1     -46.084  56.392 -54.518  1.00  0.00     0.124 HD
ENDBRANCH  19  21
ENDBRANCH   6   9
ENDBRANCH   4   5
ENDBRANCH   3   4
ENDBRANCH   2   3
ENDBRANCH   1   2
BRANCH   1  24
HETATM   24  C   UNL     1     -42.106  58.529 -57.722  1.00  0.00     0.000 C 
BRANCH  24  25
HETATM   25  C   UNL     1     -42.398  57.433 -56.693  1.00  0.00     0.009 C 
BRANCH  25  26
HETATM   26  C   UNL     1     -42.549  56.023 -57.257  1.00  0.00     0.103 C 
BRANCH  26  27
HETATM   27  C   UNL     1     -42.460  54.911 -56.225  1.00  0.00     0.222 C 
HETATM   28  N   UNL     1     -41.184  54.726 -55.720  1.00  0.00    -0.327 N 
HETATM   29  H   UNL     1     -40.442  55.248 -56.174  1.00  0.00     0.169 HD
HETATM   30  O   UNL     1     -43.463  54.284 -55.897  1.00  0.00    -0.273 OA
BRANCH  28  31
HETATM   31  C   UNL     1     -40.800  53.867 -54.670  1.00  0.00     0.035 A 
HETATM   32  C   UNL     1     -40.514  52.507 -54.840  1.00  0.00     0.045 A 
HETATM   33  C   UNL     1     -40.147  51.668 -53.758  1.00  0.00     0.014 A 
HETATM   34  C   UNL     1     -40.089  52.251 -52.473  1.00  0.00     0.044 A 
HETATM   35  C   UNL     1     -39.841  50.290 -53.887  1.00  0.00     0.020 A 
HETATM   36  N   UNL     1     -39.780  51.487 -51.410  1.00  0.00    -0.359 N 
HETATM   37  C   UNL     1     -40.374  53.612 -52.294  1.00  0.00     0.033 A 
HETATM   38  H   UNL     1     -39.748  51.929 -50.492  1.00  0.00     0.166 HD
HETATM   39  C   UNL     1     -39.542  50.167 -51.489  1.00  0.00     0.007 A 
HETATM   40  C   UNL     1     -39.259  49.402 -50.236  1.00  0.00     0.068 C 
HETATM   41  C   UNL     1     -39.590  49.545 -52.733  1.00  0.00     0.048 A 
HETATM   42  C   UNL     1     -40.731  54.410 -53.385  1.00  0.00     0.032 A 
BRANCH  35  43
HETATM   43  N   UNL     1     -40.010  49.596 -55.092  1.00  0.00    -0.302 NA
HETATM   44  H   UNL     1     -40.875  49.069 -55.190  1.00  0.00     0.124 HD
HETATM   45  H   UNL     1     -39.216  49.043 -55.410  1.00  0.00     0.124 HD
ENDBRANCH  35  43
ENDBRANCH  28  31
ENDBRANCH  26  27
ENDBRANCH  25  26
ENDBRANCH  24  25
ENDBRANCH   1  24
TORSDOF 12
ENDMDL
