MODEL 1
REMARK VINA RESULT:      -8.4      0.000      0.000
REMARK  3 active torsions:
REMARK  status: ('A' for Active; 'I' for Inactive)
REMARK       I    between atoms: N_2  and  C_3 
REMARK    1  A    between atoms: C_3  and  C_4 
REMARK    2  A    between atoms: C_6  and  N_7 
REMARK       I    between atoms: N_7  and  C_8 
REMARK    3  A    between atoms: C_8  and  C_9 
ROOT
HETATM    1  N   UNL     1     -42.506  55.367 -56.962  1.00  0.00    -0.321 N 
HETATM    2  C   UNL     1     -42.906  55.623 -55.662  1.00  0.00     0.280 C 
HETATM    3  O   UNL     1     -43.744  56.455 -55.327  1.00  0.00    -0.265 OA
HETATM    4  H   UNL     1     -41.772  54.672 -57.047  1.00  0.00     0.169 HD
ENDROOT
BRANCH   1   5
HETATM    5  C   UNL     1     -42.936  55.999 -58.144  1.00  0.00     0.036 A 
HETATM    6  C   UNL     1     -43.843  55.432 -59.042  1.00  0.00     0.046 A 
HETATM    7  C   UNL     1     -44.271  56.152 -60.164  1.00  0.00     0.034 A 
HETATM    8  C   UNL     1     -43.739  57.417 -60.430  1.00  0.00     0.017 A 
HETATM    9  C   UNL     1     -42.813  57.978 -59.554  1.00  0.00     0.003 A 
HETATM   10  C   UNL     1     -42.418  57.273 -58.413  1.00  0.00     0.029 A 
BRANCH   7  11
HETATM   11  C   UNL     1     -45.235  55.578 -61.135  1.00  0.00     0.251 C 
HETATM   12  N   UNL     1     -46.536  56.009 -61.173  1.00  0.00    -0.361 N 
HETATM   13  C   UNL     1     -47.136  57.149 -60.516  1.00  0.00     0.149 C 
HETATM   14  H   UNL     1     -47.093  55.516 -61.861  1.00  0.00     0.162 HD
HETATM   15  O   UNL     1     -44.853  54.721 -61.929  1.00  0.00    -0.268 OA
ENDBRANCH   7  11
ENDBRANCH   1   5
BRANCH   2  16
HETATM   16  C   UNL     1     -42.200  54.813 -54.687  1.00  0.00     0.144 A 
HETATM   17  O   UNL     1     -41.481  53.723 -55.110  1.00  0.00    -0.304 OA
HETATM   18  C   UNL     1     -40.909  53.167 -54.007  1.00  0.00     0.086 A 
HETATM   19  C   UNL     1     -41.253  53.886 -52.867  1.00  0.00     0.001 A 
HETATM   20  C   UNL     1     -40.088  52.042 -54.000  1.00  0.00     0.038 A 
HETATM   21  C   UNL     1     -42.089  54.940 -53.316  1.00  0.00     0.057 A 
HETATM   22  C   UNL     1     -40.746  53.464 -51.626  1.00  0.00     0.014 A 
HETATM   23  C   UNL     1     -39.915  52.335 -51.589  1.00  0.00     0.001 A 
HETATM   24  C   UNL     1     -39.595  51.637 -52.756  1.00  0.00     0.003 A 
ENDBRANCH   2  16
TORSDOF 3
ENDMDL
MODEL 2
REMARK VINA RESULT:      -8.3      0.631      1.277
REMARK  3 active torsions:
REMARK  status: ('A' for Active; 'I' for Inactive)
REMARK       I    between atoms: N_2  and  C_3 
REMARK    1  A    between atoms: C_3  and  C_4 
REMARK    2  A    between atoms: C_6  and  N_7 
REMARK       I    between atoms: N_7  and  C_8 
REMARK    3  A    between atoms: C_8  and  C_9 
ROOT
HETATM    1  N   UNL     1     -42.446  55.309 -57.004  1.00  0.00    -0.321 N 
HETATM    2  C   UNL     1     -42.837  55.493 -55.689  1.00  0.00     0.280 C 
HETATM    3  O   UNL     1     -43.704  56.274 -55.308  1.00  0.00    -0.265 OA
HETATM    4  H   UNL     1     -41.685  54.649 -57.129  1.00  0.00     0.169 HD
ENDROOT
BRANCH   1   5
HETATM    5  C   UNL     1     -42.920  55.970 -58.153  1.00  0.00     0.036 A 
HETATM    6  C   UNL     1     -43.811  55.401 -59.064  1.00  0.00     0.046 A 
HETATM    7  C   UNL     1     -44.287  56.148 -60.150  1.00  0.00     0.034 A 
HETATM    8  C   UNL     1     -43.817  57.447 -60.365  1.00  0.00     0.017 A 
HETATM    9  C   UNL     1     -42.906  58.012 -59.476  1.00  0.00     0.003 A 
HETATM   10  C   UNL     1     -42.465  57.278 -58.372  1.00  0.00     0.029 A 
BRANCH   7  11
HETATM   11  C   UNL     1     -45.235  55.573 -61.134  1.00  0.00     0.251 C 
HETATM   12  N   UNL     1     -46.540  55.993 -61.182  1.00  0.00    -0.361 N 
HETATM   13  C   UNL     1     -47.157  57.123 -60.522  1.00  0.00     0.149 C 
HETATM   14  H   UNL     1     -47.086  55.500 -61.878  1.00  0.00     0.162 HD
HETATM   15  O   UNL     1     -44.838  54.725 -61.930  1.00  0.00    -0.268 OA
ENDBRANCH   7  11
ENDBRANCH   1   5
BRANCH   2  16
HETATM   16  C   UNL     1     -42.084  54.674 -54.759  1.00  0.00     0.144 A 
HETATM   17  O   UNL     1     -42.273  54.837 -53.409  1.00  0.00    -0.304 OA
HETATM   18  C   UNL     1     -41.469  53.937 -52.779  1.00  0.00     0.086 A 
HETATM   19  C   UNL     1     -40.755  53.191 -53.710  1.00  0.00     0.001 A 
HETATM   20  C   UNL     1     -41.367  53.769 -51.400  1.00  0.00     0.038 A 
HETATM   21  C   UNL     1     -41.154  53.676 -54.981  1.00  0.00     0.057 A 
HETATM   22  C   UNL     1     -39.873  52.200 -53.244  1.00  0.00     0.014 A 
HETATM   23  C   UNL     1     -39.750  52.007 -51.860  1.00  0.00     0.001 A 
HETATM   24  C   UNL     1     -40.484  52.779 -50.957  1.00  0.00     0.003 A 
ENDBRANCH   2  16
TORSDOF 3
ENDMDL
MODEL 3
REMARK VINA RESULT:      -8.2      4.688      6.474
REMARK  3 active torsions:
REMARK  status: ('A' for Active; 'I' for Inactive)
REMARK       I    between atoms: N_2  and  C_3 
REMARK    1  A    between atoms: C_3  and  C_4 
REMARK    2  A    between atoms: C_6  and  N_7 
REMARK       I    between atoms: N_7  and  C_8 
REMARK    3  A    between atoms: C_8  and  C_9 
ROOT
HETATM    1  N   UNL     1     -42.813  55.618 -53.075  1.00  0.00    -0.321 N 
HETATM    2  C   UNL     1     -41.481  55.514 -53.439  1.00  0.00     0.280 C 
HETATM    3  O   UNL     1     -40.759  56.450 -53.767  1.00  0.00    -0.265 OA
HETATM    4  H   UNL     1     -43.265  54.732 -52.873  1.00  0.00     0.169 HD
ENDROOT
BRANCH   1   5
HETATM    5  C   UNL     1     -43.612  56.775 -53.026  1.00  0.00     0.036 A 
HETATM    6  C   UNL     1     -44.033  57.379 -51.839  1.00  0.00     0.046 A 
HETATM    7  C   UNL     1     -44.774  58.567 -51.874  1.00  0.00     0.034 A 
HETATM    8  C   UNL     1     -45.156  59.119 -53.100  1.00  0.00     0.017 A 
HETATM    9  C   UNL     1     -44.764  58.507 -54.288  1.00  0.00     0.003 A 
HETATM   10  C   UNL     1     -43.991  57.344 -54.250  1.00  0.00     0.029 A 
BRANCH   7  11
HETATM   11  C   UNL     1     -45.233  59.234 -50.631  1.00  0.00     0.251 C 
HETATM   12  N   UNL     1     -44.425  60.121 -49.968  1.00  0.00    -0.361 N 
HETATM   13  C   UNL     1     -43.182  60.719 -50.404  1.00  0.00     0.149 C 
HETATM   14  H   UNL     1     -44.848  60.481 -49.121  1.00  0.00     0.162 HD
HETATM   15  O   UNL     1     -46.362  59.001 -50.204  1.00  0.00    -0.268 OA
ENDBRANCH   7  11
ENDBRANCH   1   5
BRANCH   2  16
HETATM   16  C   UNL     1     -41.002  54.145 -53.430  1.00  0.00     0.144 A 
HETATM   17  O   UNL     1     -40.541  53.599 -52.257  1.00  0.00    -0.304 OA
HETATM   18  C   UNL     1     -40.182  52.314 -52.527  1.00  0.00     0.086 A 
HETATM   19  C   UNL     1     -40.403  52.019 -53.867  1.00  0.00     0.001 A 
HETATM   20  C   UNL     1     -39.669  51.407 -51.602  1.00  0.00     0.038 A 
HETATM   21  C   UNL     1     -40.926  53.206 -54.441  1.00  0.00     0.057 A 
HETATM   22  C   UNL     1     -40.096  50.729 -54.332  1.00  0.00     0.014 A 
HETATM   23  C   UNL     1     -39.581  49.792 -53.424  1.00  0.00     0.001 A 
HETATM   24  C   UNL     1     -39.371  50.128 -52.084  1.00  0.00     0.003 A 
ENDBRANCH   2  16
TORSDOF 3
ENDMDL
MODEL 4
REMARK VINA RESULT:      -8.2      1.630      2.221
REMARK  3 active torsions:
REMARK  status: ('A' for Active; 'I' for Inactive)
REMARK       I    between atoms: N_2  and  C_3 
REMARK    1  A    between atoms: C_3  and  C_4 
REMARK    2  A    between atoms: C_6  and  N_7 
REMARK       I    between atoms: N_7  and  C_8 
REMARK    3  A    between atoms: C_8  and  C_9 
ROOT
HETATM    1  N   UNL     1     -42.325  54.913 -55.553  1.00  0.00    -0.321 N 
HETATM    2  C   UNL     1     -41.255  55.117 -54.699  1.00  0.00     0.280 C 
HETATM    3  O   UNL     1     -40.674  56.185 -54.531  1.00  0.00    -0.265 OA
HETATM    4  H   UNL     1     -42.654  53.953 -55.594  1.00  0.00     0.169 HD
ENDROOT
BRANCH   1   5
HETATM    5  C   UNL     1     -42.946  55.843 -56.407  1.00  0.00     0.036 A 
HETATM    6  C   UNL     1     -42.892  55.776 -57.801  1.00  0.00     0.046 A 
HETATM    7  C   UNL     1     -43.591  56.704 -58.582  1.00  0.00     0.034 A 
HETATM    8  C   UNL     1     -44.293  57.747 -57.970  1.00  0.00     0.017 A 
HETATM    9  C   UNL     1     -44.329  57.837 -56.581  1.00  0.00     0.003 A 
HETATM   10  C   UNL     1     -43.663  56.886 -55.804  1.00  0.00     0.029 A 
BRANCH   7  11
HETATM   11  C   UNL     1     -43.555  56.658 -60.064  1.00  0.00     0.251 C 
HETATM   12  N   UNL     1     -44.599  56.128 -60.778  1.00  0.00    -0.361 N 
HETATM   13  C   UNL     1     -45.918  55.754 -60.317  1.00  0.00     0.149 C 
HETATM   14  H   UNL     1     -44.434  56.132 -61.777  1.00  0.00     0.162 HD
HETATM   15  O   UNL     1     -42.583  57.121 -60.658  1.00  0.00    -0.268 OA
ENDBRANCH   7  11
ENDBRANCH   1   5
BRANCH   2  16
HETATM   16  C   UNL     1     -40.843  53.906 -54.015  1.00  0.00     0.144 A 
HETATM   17  O   UNL     1     -40.710  52.740 -54.728  1.00  0.00    -0.304 OA
HETATM   18  C   UNL     1     -40.295  51.782 -53.854  1.00  0.00     0.086 A 
HETATM   19  C   UNL     1     -40.159  52.315 -52.577  1.00  0.00     0.001 A 
HETATM   20  C   UNL     1     -40.033  50.453 -54.177  1.00  0.00     0.038 A 
HETATM   21  C   UNL     1     -40.519  53.681 -52.690  1.00  0.00     0.057 A 
HETATM   22  C   UNL     1     -39.729  51.471 -51.539  1.00  0.00     0.014 A 
HETATM   23  C   UNL     1     -39.455  50.128 -51.833  1.00  0.00     0.001 A 
HETATM   24  C   UNL     1     -39.606  49.629 -53.130  1.00  0.00     0.003 A 
ENDBRANCH   2  16
TORSDOF 3
ENDMDL
MODEL 5
REMARK VINA RESULT:      -8.1      5.282      6.583
REMARK  3 active torsions:
REMARK  status: ('A' for Active; 'I' for Inactive)
REMARK       I    between atoms: N_2  and  C_3 
REMARK    1  A    between atoms: C_3  and  C_4 
REMARK    2  A    between atoms: C_6  and  N_7 
REMARK       I    between atoms: N_7  and  C_8 
REMARK    3  A    between atoms: C_8  and  C_9 
ROOT
HETATM    1  N   UNL     1     -41.598  56.046 -52.083  1.00  0.00    -0.321 N 
HETATM    2  C   UNL     1     -41.240  55.592 -53.341  1.00  0.00     0.280 C 
HETATM    3  O   UNL     1     -41.277  56.255 -54.372  1.00  0.00    -0.265 OA
HETATM    4  H   UNL     1     -41.542  55.345 -51.350  1.00  0.00     0.169 HD
ENDROOT
BRANCH   1   5
HETATM    5  C   UNL     1     -42.091  57.315 -51.724  1.00  0.00     0.036 A 
HETATM    6  C   UNL     1     -43.449  57.622 -51.627  1.00  0.00     0.046 A 
HETATM    7  C   UNL     1     -43.859  58.891 -51.201  1.00  0.00     0.034 A 
HETATM    8  C   UNL     1     -42.909  59.882 -50.935  1.00  0.00     0.017 A 
HETATM    9  C   UNL     1     -41.552  59.591 -51.056  1.00  0.00     0.003 A 
HETATM   10  C   UNL     1     -41.146  58.311 -51.444  1.00  0.00     0.029 A 
BRANCH   7  11
HETATM   11  C   UNL     1     -45.294  59.247 -51.085  1.00  0.00     0.251 C 
HETATM   12  N   UNL     1     -45.930  59.940 -52.084  1.00  0.00    -0.361 N 
HETATM   13  C   UNL     1     -45.466  60.239 -53.421  1.00  0.00     0.149 C 
HETATM   14  H   UNL     1     -46.898  60.143 -51.866  1.00  0.00     0.162 HD
HETATM   15  O   UNL     1     -45.924  58.898 -50.090  1.00  0.00    -0.268 OA
ENDBRANCH   7  11
ENDBRANCH   1   5
BRANCH   2  16
HETATM   16  C   UNL     1     -40.830  54.200 -53.340  1.00  0.00     0.144 A 
HETATM   17  O   UNL     1     -40.434  53.614 -52.163  1.00  0.00    -0.304 OA
HETATM   18  C   UNL     1     -40.131  52.317 -52.444  1.00  0.00     0.086 A 
HETATM   19  C   UNL     1     -40.324  52.055 -53.795  1.00  0.00     0.001 A 
HETATM   20  C   UNL     1     -39.693  51.371 -51.520  1.00  0.00     0.038 A 
HETATM   21  C   UNL     1     -40.768  53.275 -54.364  1.00  0.00     0.057 A 
HETATM   22  C   UNL     1     -40.067  50.758 -54.272  1.00  0.00     0.014 A 
HETATM   23  C   UNL     1     -39.627  49.783 -53.366  1.00  0.00     0.001 A 
HETATM   24  C   UNL     1     -39.444  50.086 -52.014  1.00  0.00     0.003 A 
ENDBRANCH   2  16
TORSDOF 3
ENDMDL
MODEL 6
REMARK VINA RESULT:      -7.6      1.075      1.297
REMARK  3 active torsions:
REMARK  status: ('A' for Active; 'I' for Inactive)
REMARK       I    between atoms: N_2  and  C_3 
REMARK    1  A    between atoms: C_3  and  C_4 
REMARK    2  A    between atoms: C_6  and  N_7 
REMARK       I    between atoms: N_7  and  C_8 
REMARK    3  A    between atoms: C_8  and  C_9 
ROOT
HETATM    1  N   UNL     1     -42.139  55.289 -55.968  1.00  0.00    -0.321 N 
HETATM    2  C   UNL     1     -42.632  55.118 -54.685  1.00  0.00     0.280 C 
HETATM    3  O   UNL     1     -43.589  55.718 -54.207  1.00  0.00    -0.265 OA
HETATM    4  H   UNL     1     -41.315  54.736 -56.179  1.00  0.00     0.169 HD
ENDROOT
BRANCH   1   5
HETATM    5  C   UNL     1     -42.594  56.174 -56.963  1.00  0.00     0.036 A 
HETATM    6  C   UNL     1     -43.353  55.779 -58.066  1.00  0.00     0.046 A 
HETATM    7  C   UNL     1     -43.823  56.731 -58.980  1.00  0.00     0.034 A 
HETATM    8  C   UNL     1     -43.475  58.077 -58.830  1.00  0.00     0.017 A 
HETATM    9  C   UNL     1     -42.694  58.475 -57.747  1.00  0.00     0.003 A 
HETATM   10  C   UNL     1     -42.261  57.527 -56.816  1.00  0.00     0.029 A 
BRANCH   7  11
HETATM   11  C   UNL     1     -44.634  56.344 -60.160  1.00  0.00     0.251 C 
HETATM   12  N   UNL     1     -45.991  56.540 -60.176  1.00  0.00    -0.361 N 
HETATM   13  C   UNL     1     -46.811  57.295 -59.255  1.00  0.00     0.149 C 
HETATM   14  H   UNL     1     -46.426  56.206 -61.028  1.00  0.00     0.162 HD
HETATM   15  O   UNL     1     -44.075  55.860 -61.142  1.00  0.00    -0.268 OA
ENDBRANCH   7  11
ENDBRANCH   1   5
BRANCH   2  16
HETATM   16  C   UNL     1     -41.871  54.153 -53.915  1.00  0.00     0.144 A 
HETATM   17  O   UNL     1     -41.330  53.060 -54.547  1.00  0.00    -0.304 OA
HETATM   18  C   UNL     1     -40.657  52.345 -53.604  1.00  0.00     0.086 A 
HETATM   19  C   UNL     1     -40.758  52.962 -52.363  1.00  0.00     0.001 A 
HETATM   20  C   UNL     1     -39.957  51.163 -53.834  1.00  0.00     0.038 A 
HETATM   21  C   UNL     1     -41.545  54.122 -52.572  1.00  0.00     0.057 A 
HETATM   22  C   UNL     1     -40.115  52.369 -51.262  1.00  0.00     0.014 A 
HETATM   23  C   UNL     1     -39.400  51.179 -51.462  1.00  0.00     0.001 A 
HETATM   24  C   UNL     1     -39.325  50.588 -52.726  1.00  0.00     0.003 A 
ENDBRANCH   2  16
TORSDOF 3
ENDMDL
MODEL 7
REMARK VINA RESULT:      -7.4      2.350      3.361
REMARK  3 active torsions:
REMARK  status: ('A' for Active; 'I' for Inactive)
REMARK       I    between atoms: N_2  and  C_3 
REMARK    1  A    between atoms: C_3  and  C_4 
REMARK    2  A    between atoms: C_6  and  N_7 
REMARK       I    between atoms: N_7  and  C_8 
REMARK    3  A    between atoms: C_8  and  C_9 
ROOT
HETATM    1  N   UNL     1     -42.303  56.188 -56.844  1.00  0.00    -0.321 N 
HETATM    2  C   UNL     1     -41.953  56.439 -55.528  1.00  0.00     0.280 C 
HETATM    3  O   UNL     1     -42.087  57.513 -54.950  1.00  0.00    -0.265 OA
HETATM    4  H   UNL     1     -42.083  55.251 -57.167  1.00  0.00     0.169 HD
ENDROOT
BRANCH   1   5
HETATM    5  C   UNL     1     -42.846  57.083 -57.785  1.00  0.00     0.036 A 
HETATM    6  C   UNL     1     -42.095  58.036 -58.475  1.00  0.00     0.046 A 
HETATM    7  C   UNL     1     -42.699  58.847 -59.444  1.00  0.00     0.034 A 
HETATM    8  C   UNL     1     -44.074  58.754 -59.678  1.00  0.00     0.017 A 
HETATM    9  C   UNL     1     -44.835  57.825 -58.974  1.00  0.00     0.003 A 
HETATM   10  C   UNL     1     -44.222  56.989 -58.036  1.00  0.00     0.029 A 
BRANCH   7  11
HETATM   11  C   UNL     1     -41.927  59.867 -60.195  1.00  0.00     0.251 C 
HETATM   12  N   UNL     1     -41.525  61.031 -59.591  1.00  0.00    -0.361 N 
HETATM   13  C   UNL     1     -41.551  61.384 -58.189  1.00  0.00     0.149 C 
HETATM   14  H   UNL     1     -41.033  61.651 -60.223  1.00  0.00     0.162 HD
HETATM   15  O   UNL     1     -41.629  59.654 -61.369  1.00  0.00    -0.268 OA
ENDBRANCH   7  11
ENDBRANCH   1   5
BRANCH   2  16
HETATM   16  C   UNL     1     -41.363  55.286 -54.875  1.00  0.00     0.144 A 
HETATM   17  O   UNL     1     -41.231  55.280 -53.508  1.00  0.00    -0.304 OA
HETATM   18  C   UNL     1     -40.678  54.085 -53.164  1.00  0.00     0.086 A 
HETATM   19  C   UNL     1     -40.446  53.314 -54.298  1.00  0.00     0.001 A 
HETATM   20  C   UNL     1     -40.384  53.673 -51.867  1.00  0.00     0.038 A 
HETATM   21  C   UNL     1     -40.885  54.098 -55.393  1.00  0.00     0.057 A 
HETATM   22  C   UNL     1     -39.882  52.036 -54.138  1.00  0.00     0.014 A 
HETATM   23  C   UNL     1     -39.577  51.592 -52.843  1.00  0.00     0.001 A 
HETATM   24  C   UNL     1     -39.823  52.399 -51.729  1.00  0.00     0.003 A 
ENDBRANCH   2  16
TORSDOF 3
ENDMDL
MODEL 8
REMARK VINA RESULT:      -7.2      2.994      3.842
REMARK  3 active torsions:
REMARK  status: ('A' for Active; 'I' for Inactive)
REMARK       I    between atoms: N_2  and  C_3 
REMARK    1  A    between atoms: C_3  and  C_4 
REMARK    2  A    between atoms: C_6  and  N_7 
REMARK       I    between atoms: N_7  and  C_8 
REMARK    3  A    between atoms: C_8  and  C_9 
ROOT
HETATM    1  N   UNL     1     -42.781  55.761 -54.308  1.00  0.00    -0.321 N 
HETATM    2  C   UNL     1     -41.460  55.672 -53.904  1.00  0.00     0.280 C 
HETATM    3  O   UNL     1     -40.713  56.625 -53.704  1.00  0.00    -0.265 OA
HETATM    4  H   UNL     1     -43.235  54.866 -54.463  1.00  0.00     0.169 HD
ENDROOT
BRANCH   1   5
HETATM    5  C   UNL     1     -43.527  56.920 -54.593  1.00  0.00     0.036 A 
HETATM    6  C   UNL     1     -43.734  57.413 -55.883  1.00  0.00     0.046 A 
HETATM    7  C   UNL     1     -44.544  58.537 -56.089  1.00  0.00     0.034 A 
HETATM    8  C   UNL     1     -45.095  59.214 -54.997  1.00  0.00     0.017 A 
HETATM    9  C   UNL     1     -44.870  58.744 -53.705  1.00  0.00     0.003 A 
HETATM   10  C   UNL     1     -44.094  57.599 -53.506  1.00  0.00     0.029 A 
BRANCH   7  11
HETATM   11  C   UNL     1     -44.784  59.084 -57.447  1.00  0.00     0.251 C 
HETATM   12  N   UNL     1     -45.910  58.746 -58.152  1.00  0.00    -0.361 N 
HETATM   13  C   UNL     1     -47.094  58.050 -57.697  1.00  0.00     0.149 C 
HETATM   14  H   UNL     1     -45.937  59.165 -59.074  1.00  0.00     0.162 HD
HETATM   15  O   UNL     1     -43.972  59.867 -57.934  1.00  0.00    -0.268 OA
ENDBRANCH   7  11
ENDBRANCH   1   5
BRANCH   2  16
HETATM   16  C   UNL     1     -41.007  54.301 -53.762  1.00  0.00     0.144 A 
HETATM   17  O   UNL     1     -40.538  53.869 -52.546  1.00  0.00    -0.304 OA
HETATM   18  C   UNL     1     -40.208  52.556 -52.689  1.00  0.00     0.086 A 
HETATM   19  C   UNL     1     -40.456  52.131 -53.989  1.00  0.00     0.001 A 
HETATM   20  C   UNL     1     -39.698  51.736 -51.684  1.00  0.00     0.038 A 
HETATM   21  C   UNL     1     -40.966  53.263 -54.673  1.00  0.00     0.057 A 
HETATM   22  C   UNL     1     -40.182  50.794 -54.324  1.00  0.00     0.014 A 
HETATM   23  C   UNL     1     -39.670  49.944 -53.333  1.00  0.00     0.001 A 
HETATM   24  C   UNL     1     -39.432  50.410 -52.037  1.00  0.00     0.003 A 
ENDBRANCH   2  16
TORSDOF 3
ENDMDL
MODEL 9
REMARK VINA RESULT:      -7.2      2.413      8.270
REMARK  3 active torsions:
REMARK  status: ('A' for Active; 'I' for Inactive)
REMARK       I    between atoms: N_2  and  C_3 
REMARK    1  A    between atoms: C_3  and  C_4 
REMARK    2  A    between atoms: C_6  and  N_7 
REMARK       I    between atoms: N_7  and  C_8 
REMARK    3  A    between atoms: C_8  and  C_9 
ROOT
HETATM    1  N   UNL     1     -41.846  54.479 -55.221  1.00  0.00    -0.321 N 
HETATM    2  C   UNL     1     -41.966  55.833 -55.479  1.00  0.00     0.280 C 
HETATM    3  O   UNL     1     -41.508  56.733 -54.782  1.00  0.00    -0.265 OA
HETATM    4  H   UNL     1     -42.324  53.879 -55.886  1.00  0.00     0.169 HD
ENDROOT
BRANCH   1   5
HETATM    5  C   UNL     1     -41.217  53.854 -54.127  1.00  0.00     0.036 A 
HETATM    6  C   UNL     1     -41.215  54.374 -52.832  1.00  0.00     0.046 A 
HETATM    7  C   UNL     1     -40.621  53.660 -51.784  1.00  0.00     0.034 A 
HETATM    8  C   UNL     1     -39.966  52.452 -52.042  1.00  0.00     0.017 A 
HETATM    9  C   UNL     1     -39.940  51.941 -53.337  1.00  0.00     0.003 A 
HETATM   10  C   UNL     1     -40.568  52.637 -54.373  1.00  0.00     0.029 A 
BRANCH   7  11
HETATM   11  C   UNL     1     -40.604  54.184 -50.396  1.00  0.00     0.251 C 
HETATM   12  N   UNL     1     -41.746  54.670 -49.813  1.00  0.00    -0.361 N 
HETATM   13  C   UNL     1     -43.113  54.576 -50.275  1.00  0.00     0.149 C 
HETATM   14  H   UNL     1     -41.590  55.023 -48.877  1.00  0.00     0.162 HD
HETATM   15  O   UNL     1     -39.554  54.163 -49.756  1.00  0.00    -0.268 OA
ENDBRANCH   7  11
ENDBRANCH   1   5
BRANCH   2  16
HETATM   16  C   UNL     1     -42.737  56.111 -56.677  1.00  0.00     0.144 A 
HETATM   17  O   UNL     1     -42.877  55.133 -57.630  1.00  0.00    -0.304 OA
HETATM   18  C   UNL     1     -43.657  55.648 -58.620  1.00  0.00     0.086 A 
HETATM   19  C   UNL     1     -44.023  56.955 -58.319  1.00  0.00     0.001 A 
HETATM   20  C   UNL     1     -44.048  54.974 -59.775  1.00  0.00     0.038 A 
HETATM   21  C   UNL     1     -43.422  57.245 -57.069  1.00  0.00     0.057 A 
HETATM   22  C   UNL     1     -44.840  57.651 -59.228  1.00  0.00     0.014 A 
HETATM   23  C   UNL     1     -45.251  56.998 -60.399  1.00  0.00     0.001 A 
HETATM   24  C   UNL     1     -44.859  55.684 -60.666  1.00  0.00     0.003 A 
ENDBRANCH   2  16
TORSDOF 3
ENDMDL
MODEL 10
REMARK VINA RESULT:      -7.1     15.097     16.523
REMARK  3 active torsions:
REMARK  status: ('A' for Active; 'I' for Inactive)
REMARK       I    between atoms: N_2  and  C_3 
REMARK    1  A    between atoms: C_3  and  C_4 
REMARK    2  A    between atoms: C_6  and  N_7 
REMARK       I    between atoms: N_7  and  C_8 
REMARK    3  A    between atoms: C_8  and  C_9 
ROOT
HETATM    1  N   UNL     1     -35.673  40.716 -56.323  1.00  0.00    -0.321 N 
HETATM    2  C   UNL     1     -36.360  40.748 -55.122  1.00  0.00     0.280 C 
HETATM    3  O   UNL     1     -37.575  40.874 -55.002  1.00  0.00    -0.265 OA
HETATM    4  H   UNL     1     -34.665  40.646 -56.230  1.00  0.00     0.169 HD
ENDROOT
BRANCH   1   5
HETATM    5  C   UNL     1     -36.192  40.842 -57.626  1.00  0.00     0.036 A 
HETATM    6  C   UNL     1     -36.291  39.781 -58.528  1.00  0.00     0.046 A 
HETATM    7  C   UNL     1     -36.879  39.973 -59.784  1.00  0.00     0.034 A 
HETATM    8  C   UNL     1     -37.309  41.247 -60.169  1.00  0.00     0.017 A 
HETATM    9  C   UNL     1     -37.187  42.316 -59.285  1.00  0.00     0.003 A 
HETATM   10  C   UNL     1     -36.636  42.112 -58.017  1.00  0.00     0.029 A 
BRANCH   7  11
HETATM   11  C   UNL     1     -37.002  38.866 -60.764  1.00  0.00     0.251 C 
HETATM   12  N   UNL     1     -38.084  38.024 -60.742  1.00  0.00    -0.361 N 
HETATM   13  C   UNL     1     -39.320  38.150 -60.002  1.00  0.00     0.149 C 
HETATM   14  H   UNL     1     -38.029  37.296 -61.444  1.00  0.00     0.162 HD
HETATM   15  O   UNL     1     -36.130  38.717 -61.618  1.00  0.00    -0.268 OA
ENDBRANCH   7  11
ENDBRANCH   1   5
BRANCH   2  16
HETATM   16  C   UNL     1     -35.484  40.647 -53.971  1.00  0.00     0.144 A 
HETATM   17  O   UNL     1     -34.150  40.384 -54.159  1.00  0.00    -0.304 OA
HETATM   18  C   UNL     1     -33.567  40.368 -52.929  1.00  0.00     0.086 A 
HETATM   19  C   UNL     1     -34.513  40.616 -51.940  1.00  0.00     0.001 A 
HETATM   20  C   UNL     1     -32.216  40.143 -52.677  1.00  0.00     0.038 A 
HETATM   21  C   UNL     1     -35.744  40.789 -52.621  1.00  0.00     0.057 A 
HETATM   22  C   UNL     1     -34.092  40.646 -50.599  1.00  0.00     0.014 A 
HETATM   23  C   UNL     1     -32.737  40.424 -50.314  1.00  0.00     0.001 A 
HETATM   24  C   UNL     1     -31.817  40.176 -51.337  1.00  0.00     0.003 A 
ENDBRANCH   2  16
TORSDOF 3
ENDMDL
