MODEL 1
REMARK VINA RESULT:     -10.0      0.000      0.000
REMARK  6 active torsions:
REMARK  status: ('A' for Active; 'I' for Inactive)
REMARK    1  A    between atoms: C_2  and  N_3 
REMARK    2  A    between atoms: C_2  and  C_32 
REMARK       I    between atoms: N_3  and  C_4 
REMARK    3  A    between atoms: C_4  and  C_5 
REMARK    4  A    between atoms: C_6  and  N_7 
REMARK       I    between atoms: N_7  and  C_8 
REMARK    5  A    between atoms: C_8  and  C_9 
REMARK    6  A    between atoms: C_9  and  N_10 
ROOT
HETATM    1  N   UNL     1     -42.735  58.193 -56.372  1.00  0.00    -0.325 N 
HETATM    2  C   UNL     1     -43.736  58.756 -55.594  1.00  0.00     0.240 C 
HETATM    3  O   UNL     1     -44.778  59.260 -56.002  1.00  0.00    -0.271 OA
HETATM    4  H   UNL     1     -41.855  57.997 -55.902  1.00  0.00     0.169 HD
ENDROOT
BRANCH   1   5
HETATM    5  C   UNL     1     -42.714  57.998 -57.773  1.00  0.00     0.050 A 
HETATM    6  C   UNL     1     -42.103  58.970 -58.597  1.00  0.00     0.058 A 
HETATM    7  C   UNL     1     -41.974  58.751 -59.977  1.00  0.00     0.019 A 
HETATM    8  C   UNL     1     -42.477  57.587 -60.553  1.00  0.00     0.001 A 
HETATM    9  C   UNL     1     -43.105  56.638 -59.752  1.00  0.00     0.002 A 
HETATM   10  C   UNL     1     -43.221  56.840 -58.372  1.00  0.00     0.030 A 
BRANCH   6  11
HETATM   11  C   UNL     1     -41.535  60.245 -58.074  1.00  0.00     0.254 C 
HETATM   12  N   UNL     1     -41.351  61.260 -58.995  1.00  0.00    -0.349 N 
HETATM   13  H   UNL     1     -41.362  61.026 -59.986  1.00  0.00     0.163 HD
HETATM   14  O   UNL     1     -41.263  60.345 -56.883  1.00  0.00    -0.268 OA
BRANCH  12  15
HETATM   15  C   UNL     1     -40.699  62.509 -58.623  1.00  0.00     0.114 C 
HETATM   16  C   UNL     1     -41.729  63.520 -58.119  1.00  0.00     0.037 C 
BRANCH  15  17
HETATM   17  C   UNL     1     -39.885  63.068 -59.777  1.00  0.00    -0.036 A 
HETATM   18  C   UNL     1     -40.191  62.690 -61.094  1.00  0.00     0.009 A 
HETATM   19  C   UNL     1     -39.439  63.169 -62.169  1.00  0.00     0.001 A 
HETATM   20  C   UNL     1     -38.374  64.037 -61.944  1.00  0.00     0.000 A 
HETATM   21  C   UNL     1     -38.062  64.432 -60.646  1.00  0.00     0.001 A 
HETATM   22  C   UNL     1     -38.813  63.950 -59.570  1.00  0.00     0.009 A 
ENDBRANCH  15  17
ENDBRANCH  12  15
ENDBRANCH   6  11
ENDBRANCH   1   5
BRANCH   2  23
HETATM   23  C   UNL     1     -43.355  58.798 -54.113  1.00  0.00     0.240 C 
BRANCH  23  24
HETATM   24  N   UNL     1     -42.620  57.611 -53.738  1.00  0.00    -0.259 N 
HETATM   25  C   UNL     1     -41.333  57.641 -53.298  1.00  0.00     0.326 C 
HETATM   26  O   UNL     1     -40.572  58.593 -53.293  1.00  0.00    -0.247 OA
HETATM   27  N   UNL     1     -41.027  56.414 -52.762  1.00  0.00    -0.324 N 
HETATM   28  C   UNL     1     -42.137  55.484 -52.816  1.00  0.00     0.120 C 
HETATM   29  H   UNL     1     -40.098  56.210 -52.415  1.00  0.00     0.165 HD
HETATM   30  C   UNL     1     -41.861  54.314 -53.760  1.00  0.00     0.080 C 
HETATM   31  C   UNL     1     -42.568  54.991 -51.436  1.00  0.00     0.046 C 
HETATM   32  C   UNL     1     -43.206  56.425 -53.392  1.00  0.00     0.257 C 
HETATM   33  C   UNL     1     -40.964  53.269 -53.128  1.00  0.00    -0.049 A 
HETATM   34  C   UNL     1     -40.828  53.164 -51.730  1.00  0.00    -0.052 A 
HETATM   35  C   UNL     1     -40.292  52.356 -53.955  1.00  0.00     0.007 A 
HETATM   36  C   UNL     1     -41.487  54.136 -50.784  1.00  0.00     0.042 C 
HETATM   37  C   UNL     1     -39.999  52.167 -51.193  1.00  0.00     0.007 A 
HETATM   38  C   UNL     1     -39.326  51.275 -52.025  1.00  0.00     0.001 A 
HETATM   39  C   UNL     1     -39.473  51.369 -53.406  1.00  0.00     0.001 A 
HETATM   40  O   UNL     1     -44.398  56.162 -53.500  1.00  0.00    -0.270 OA
ENDBRANCH  23  24
ENDBRANCH   2  23
TORSDOF 6
ENDMDL
MODEL 2
REMARK VINA RESULT:     -10.0      1.204      2.192
REMARK  6 active torsions:
REMARK  status: ('A' for Active; 'I' for Inactive)
REMARK    1  A    between atoms: C_2  and  N_3 
REMARK    2  A    between atoms: C_2  and  C_32 
REMARK       I    between atoms: N_3  and  C_4 
REMARK    3  A    between atoms: C_4  and  C_5 
REMARK    4  A    between atoms: C_6  and  N_7 
REMARK       I    between atoms: N_7  and  C_8 
REMARK    5  A    between atoms: C_8  and  C_9 
REMARK    6  A    between atoms: C_9  and  N_10 
ROOT
HETATM    1  N   UNL     1     -42.861  57.143 -56.338  1.00  0.00    -0.325 N 
HETATM    2  C   UNL     1     -43.817  57.560 -55.424  1.00  0.00     0.240 C 
HETATM    3  O   UNL     1     -44.929  58.007 -55.686  1.00  0.00    -0.271 OA
HETATM    4  H   UNL     1     -41.925  56.983 -55.972  1.00  0.00     0.169 HD
ENDROOT
BRANCH   1   5
HETATM    5  C   UNL     1     -42.966  57.061 -57.746  1.00  0.00     0.050 A 
HETATM    6  C   UNL     1     -42.572  58.165 -58.535  1.00  0.00     0.058 A 
HETATM    7  C   UNL     1     -42.566  58.072 -59.935  1.00  0.00     0.019 A 
HETATM    8  C   UNL     1     -42.982  56.899 -60.562  1.00  0.00     0.001 A 
HETATM    9  C   UNL     1     -43.399  55.818 -59.792  1.00  0.00     0.002 A 
HETATM   10  C   UNL     1     -43.390  55.896 -58.395  1.00  0.00     0.030 A 
BRANCH   6  11
HETATM   11  C   UNL     1     -42.112  59.459 -57.957  1.00  0.00     0.254 C 
HETATM   12  N   UNL     1     -42.471  60.603 -58.645  1.00  0.00    -0.349 N 
HETATM   13  H   UNL     1     -42.793  60.512 -59.607  1.00  0.00     0.163 HD
HETATM   14  O   UNL     1     -41.454  59.463 -56.923  1.00  0.00    -0.268 OA
BRANCH  12  15
HETATM   15  C   UNL     1     -41.984  61.915 -58.239  1.00  0.00     0.114 C 
HETATM   16  C   UNL     1     -43.154  62.875 -58.020  1.00  0.00     0.037 C 
BRANCH  15  17
HETATM   17  C   UNL     1     -40.989  62.467 -59.245  1.00  0.00    -0.036 A 
HETATM   18  C   UNL     1     -41.147  62.183 -60.611  1.00  0.00     0.009 A 
HETATM   19  C   UNL     1     -40.228  62.655 -61.551  1.00  0.00     0.001 A 
HETATM   20  C   UNL     1     -39.143  63.423 -61.141  1.00  0.00     0.000 A 
HETATM   21  C   UNL     1     -38.975  63.724 -59.791  1.00  0.00     0.001 A 
HETATM   22  C   UNL     1     -39.891  63.249 -58.851  1.00  0.00     0.009 A 
ENDBRANCH  15  17
ENDBRANCH  12  15
ENDBRANCH   6  11
ENDBRANCH   1   5
BRANCH   2  23
HETATM   23  C   UNL     1     -43.293  57.517 -53.987  1.00  0.00     0.240 C 
BRANCH  23  24
HETATM   24  N   UNL     1     -42.744  56.215 -53.680  1.00  0.00    -0.259 N 
HETATM   25  C   UNL     1     -43.450  55.060 -53.812  1.00  0.00     0.326 C 
HETATM   26  O   UNL     1     -44.640  54.940 -54.046  1.00  0.00    -0.247 OA
HETATM   27  N   UNL     1     -42.577  54.003 -53.721  1.00  0.00    -0.324 N 
HETATM   28  C   UNL     1     -41.205  54.422 -53.526  1.00  0.00     0.120 C 
HETATM   29  H   UNL     1     -42.908  53.046 -53.749  1.00  0.00     0.165 HD
HETATM   30  C   UNL     1     -40.671  54.021 -52.150  1.00  0.00     0.080 C 
HETATM   31  C   UNL     1     -40.273  53.948 -54.639  1.00  0.00     0.046 C 
HETATM   32  C   UNL     1     -41.405  55.942 -53.624  1.00  0.00     0.257 C 
HETATM   33  C   UNL     1     -40.274  52.560 -52.095  1.00  0.00    -0.049 A 
HETATM   34  C   UNL     1     -39.980  51.833 -53.263  1.00  0.00    -0.052 A 
HETATM   35  C   UNL     1     -40.153  51.933 -50.845  1.00  0.00     0.007 A 
HETATM   36  C   UNL     1     -40.130  52.430 -54.640  1.00  0.00     0.042 C 
HETATM   37  C   UNL     1     -39.600  50.485 -53.158  1.00  0.00     0.007 A 
HETATM   38  C   UNL     1     -39.495  49.870 -51.911  1.00  0.00     0.001 A 
HETATM   39  C   UNL     1     -39.772  50.595 -50.755  1.00  0.00     0.001 A 
HETATM   40  O   UNL     1     -40.506  56.774 -53.672  1.00  0.00    -0.270 OA
ENDBRANCH  23  24
ENDBRANCH   2  23
TORSDOF 6
ENDMDL
MODEL 3
REMARK VINA RESULT:      -9.9      3.060      8.738
REMARK  6 active torsions:
REMARK  status: ('A' for Active; 'I' for Inactive)
REMARK    1  A    between atoms: C_2  and  N_3 
REMARK    2  A    between atoms: C_2  and  C_32 
REMARK       I    between atoms: N_3  and  C_4 
REMARK    3  A    between atoms: C_4  and  C_5 
REMARK    4  A    between atoms: C_6  and  N_7 
REMARK       I    between atoms: N_7  and  C_8 
REMARK    5  A    between atoms: C_8  and  C_9 
REMARK    6  A    between atoms: C_9  and  N_10 
ROOT
HETATM    1  N   UNL     1     -41.928  60.115 -53.505  1.00  0.00    -0.325 N 
HETATM    2  C   UNL     1     -42.980  60.966 -53.810  1.00  0.00     0.240 C 
HETATM    3  O   UNL     1     -43.891  61.296 -53.056  1.00  0.00    -0.271 OA
HETATM    4  H   UNL     1     -41.369  59.789 -54.289  1.00  0.00     0.169 HD
ENDROOT
BRANCH   1   5
HETATM    5  C   UNL     1     -41.619  59.506 -52.266  1.00  0.00     0.050 A 
HETATM    6  C   UNL     1     -41.378  58.114 -52.219  1.00  0.00     0.058 A 
HETATM    7  C   UNL     1     -40.966  57.505 -51.025  1.00  0.00     0.019 A 
HETATM    8  C   UNL     1     -40.823  58.261 -49.863  1.00  0.00     0.001 A 
HETATM    9  C   UNL     1     -41.086  59.627 -49.895  1.00  0.00     0.002 A 
HETATM   10  C   UNL     1     -41.480  60.246 -51.087  1.00  0.00     0.030 A 
BRANCH   6  11
HETATM   11  C   UNL     1     -41.504  57.224 -53.407  1.00  0.00     0.254 C 
HETATM   12  N   UNL     1     -41.796  55.897 -53.153  1.00  0.00    -0.349 N 
HETATM   13  H   UNL     1     -41.663  55.541 -52.208  1.00  0.00     0.163 HD
HETATM   14  O   UNL     1     -41.351  57.686 -54.532  1.00  0.00    -0.268 OA
BRANCH  12  15
HETATM   15  C   UNL     1     -41.831  54.911 -54.225  1.00  0.00     0.114 C 
HETATM   16  C   UNL     1     -43.274  54.627 -54.644  1.00  0.00     0.037 C 
BRANCH  15  17
HETATM   17  C   UNL     1     -41.105  53.638 -53.825  1.00  0.00    -0.036 A 
HETATM   18  C   UNL     1     -40.628  53.491 -52.513  1.00  0.00     0.009 A 
HETATM   19  C   UNL     1     -39.932  52.341 -52.130  1.00  0.00     0.001 A 
HETATM   20  C   UNL     1     -39.708  51.322 -53.050  1.00  0.00     0.000 A 
HETATM   21  C   UNL     1     -40.183  51.445 -54.354  1.00  0.00     0.001 A 
HETATM   22  C   UNL     1     -40.876  52.596 -54.738  1.00  0.00     0.009 A 
ENDBRANCH  15  17
ENDBRANCH  12  15
ENDBRANCH   6  11
ENDBRANCH   1   5
BRANCH   2  23
HETATM   23  C   UNL     1     -42.967  61.389 -55.279  1.00  0.00     0.240 C 
BRANCH  23  24
HETATM   24  N   UNL     1     -43.367  60.294 -56.134  1.00  0.00    -0.259 N 
HETATM   25  C   UNL     1     -44.666  59.940 -56.331  1.00  0.00     0.326 C 
HETATM   26  O   UNL     1     -45.646  60.355 -55.737  1.00  0.00    -0.247 OA
HETATM   27  N   UNL     1     -44.724  59.072 -57.393  1.00  0.00    -0.324 N 
HETATM   28  C   UNL     1     -43.425  58.807 -57.976  1.00  0.00     0.120 C 
HETATM   29  H   UNL     1     -45.600  58.651 -57.679  1.00  0.00     0.165 HD
HETATM   30  C   UNL     1     -42.987  57.356 -57.770  1.00  0.00     0.080 C 
HETATM   31  C   UNL     1     -43.339  59.206 -59.447  1.00  0.00     0.046 C 
HETATM   32  C   UNL     1     -42.583  59.769 -57.124  1.00  0.00     0.257 C 
HETATM   33  C   UNL     1     -43.661  56.412 -58.745  1.00  0.00    -0.049 A 
HETATM   34  C   UNL     1     -44.209  56.874 -59.957  1.00  0.00    -0.052 A 
HETATM   35  C   UNL     1     -43.696  55.040 -58.452  1.00  0.00     0.007 A 
HETATM   36  C   UNL     1     -44.244  58.338 -60.316  1.00  0.00     0.042 C 
HETATM   37  C   UNL     1     -44.807  55.957 -60.835  1.00  0.00     0.007 A 
HETATM   38  C   UNL     1     -44.847  54.598 -60.527  1.00  0.00     0.001 A 
HETATM   39  C   UNL     1     -44.291  54.140 -59.336  1.00  0.00     0.001 A 
HETATM   40  O   UNL     1     -41.404  60.041 -57.318  1.00  0.00    -0.270 OA
ENDBRANCH  23  24
ENDBRANCH   2  23
TORSDOF 6
ENDMDL
MODEL 4
REMARK VINA RESULT:      -9.8      3.153      4.616
REMARK  6 active torsions:
REMARK  status: ('A' for Active; 'I' for Inactive)
REMARK    1  A    between atoms: C_2  and  N_3 
REMARK    2  A    between atoms: C_2  and  C_32 
REMARK       I    between atoms: N_3  and  C_4 
REMARK    3  A    between atoms: C_4  and  C_5 
REMARK    4  A    between atoms: C_6  and  N_7 
REMARK       I    between atoms: N_7  and  C_8 
REMARK    5  A    between atoms: C_8  and  C_9 
REMARK    6  A    between atoms: C_9  and  N_10 
ROOT
HETATM    1  N   UNL     1     -43.870  56.822 -56.382  1.00  0.00    -0.325 N 
HETATM    2  C   UNL     1     -43.002  57.595 -55.625  1.00  0.00     0.240 C 
HETATM    3  O   UNL     1     -42.126  58.339 -56.055  1.00  0.00    -0.271 OA
HETATM    4  H   UNL     1     -44.404  56.118 -55.879  1.00  0.00     0.169 HD
ENDROOT
BRANCH   1   5
HETATM    5  C   UNL     1     -44.000  56.768 -57.790  1.00  0.00     0.050 A 
HETATM    6  C   UNL     1     -44.619  57.842 -58.469  1.00  0.00     0.058 A 
HETATM    7  C   UNL     1     -44.665  57.863 -59.871  1.00  0.00     0.019 A 
HETATM    8  C   UNL     1     -44.130  56.808 -60.607  1.00  0.00     0.001 A 
HETATM    9  C   UNL     1     -43.545  55.733 -59.944  1.00  0.00     0.002 A 
HETATM   10  C   UNL     1     -43.478  55.714 -58.546  1.00  0.00     0.030 A 
BRANCH   6  11
HETATM   11  C   UNL     1     -45.218  59.014 -57.770  1.00  0.00     0.254 C 
HETATM   12  N   UNL     1     -44.402  60.119 -57.612  1.00  0.00    -0.349 N 
HETATM   13  H   UNL     1     -43.397  60.005 -57.736  1.00  0.00     0.163 HD
HETATM   14  O   UNL     1     -46.377  58.959 -57.376  1.00  0.00    -0.268 OA
BRANCH  12  15
HETATM   15  C   UNL     1     -44.839  61.279 -56.847  1.00  0.00     0.114 C 
HETATM   16  C   UNL     1     -44.268  62.563 -57.449  1.00  0.00     0.037 C 
BRANCH  15  17
HETATM   17  C   UNL     1     -44.473  61.139 -55.379  1.00  0.00    -0.036 A 
HETATM   18  C   UNL     1     -43.176  61.461 -54.950  1.00  0.00     0.009 A 
HETATM   19  C   UNL     1     -42.809  61.312 -53.611  1.00  0.00     0.001 A 
HETATM   20  C   UNL     1     -43.733  60.846 -52.681  1.00  0.00     0.000 A 
HETATM   21  C   UNL     1     -45.028  60.532 -53.086  1.00  0.00     0.001 A 
HETATM   22  C   UNL     1     -45.395  60.677 -54.426  1.00  0.00     0.009 A 
ENDBRANCH  15  17
ENDBRANCH  12  15
ENDBRANCH   6  11
ENDBRANCH   1   5
BRANCH   2  23
HETATM   23  C   UNL     1     -43.169  57.341 -54.126  1.00  0.00     0.240 C 
BRANCH  23  24
HETATM   24  N   UNL     1     -42.646  56.043 -53.763  1.00  0.00    -0.259 N 
HETATM   25  C   UNL     1     -43.361  54.892 -53.885  1.00  0.00     0.326 C 
HETATM   26  O   UNL     1     -44.545  54.779 -54.153  1.00  0.00    -0.247 OA
HETATM   27  N   UNL     1     -42.505  53.829 -53.736  1.00  0.00    -0.324 N 
HETATM   28  C   UNL     1     -41.134  54.238 -53.509  1.00  0.00     0.120 C 
HETATM   29  H   UNL     1     -42.845  52.875 -53.748  1.00  0.00     0.165 HD
HETATM   30  C   UNL     1     -40.649  53.872 -52.106  1.00  0.00     0.080 C 
HETATM   31  C   UNL     1     -40.173  53.722 -54.578  1.00  0.00     0.046 C 
HETATM   32  C   UNL     1     -41.313  55.757 -53.658  1.00  0.00     0.257 C 
HETATM   33  C   UNL     1     -40.272  52.409 -51.996  1.00  0.00    -0.049 A 
HETATM   34  C   UNL     1     -39.949  51.644 -53.134  1.00  0.00    -0.052 A 
HETATM   35  C   UNL     1     -40.198  51.817 -50.726  1.00  0.00     0.007 A 
HETATM   36  C   UNL     1     -40.048  52.203 -54.531  1.00  0.00     0.042 C 
HETATM   37  C   UNL     1     -39.588  50.297 -52.977  1.00  0.00     0.007 A 
HETATM   38  C   UNL     1     -39.531  49.717 -51.711  1.00  0.00     0.001 A 
HETATM   39  C   UNL     1     -39.835  50.477 -50.586  1.00  0.00     0.001 A 
HETATM   40  O   UNL     1     -40.403  56.578 -53.700  1.00  0.00    -0.270 OA
ENDBRANCH  23  24
ENDBRANCH   2  23
TORSDOF 6
ENDMDL
MODEL 5
REMARK VINA RESULT:      -9.8      3.709      7.498
REMARK  6 active torsions:
REMARK  status: ('A' for Active; 'I' for Inactive)
REMARK    1  A    between atoms: C_2  and  N_3 
REMARK    2  A    between atoms: C_2  and  C_32 
REMARK       I    between atoms: N_3  and  C_4 
REMARK    3  A    between atoms: C_4  and  C_5 
REMARK    4  A    between atoms: C_6  and  N_7 
REMARK       I    between atoms: N_7  and  C_8 
REMARK    5  A    between atoms: C_8  and  C_9 
REMARK    6  A    between atoms: C_9  and  N_10 
ROOT
HETATM    1  N   UNL     1     -41.128  54.553 -51.760  1.00  0.00    -0.325 N 
HETATM    2  C   UNL     1     -42.350  54.606 -51.107  1.00  0.00     0.240 C 
HETATM    3  O   UNL     1     -43.326  53.896 -51.330  1.00  0.00    -0.271 OA
HETATM    4  H   UNL     1     -40.493  55.330 -51.595  1.00  0.00     0.169 HD
ENDROOT
BRANCH   1   5
HETATM    5  C   UNL     1     -40.700  53.642 -52.754  1.00  0.00     0.050 A 
HETATM    6  C   UNL     1     -40.656  54.060 -54.103  1.00  0.00     0.058 A 
HETATM    7  C   UNL     1     -40.136  53.212 -55.093  1.00  0.00     0.019 A 
HETATM    8  C   UNL     1     -39.687  51.936 -54.759  1.00  0.00     0.001 A 
HETATM    9  C   UNL     1     -39.754  51.507 -53.437  1.00  0.00     0.002 A 
HETATM   10  C   UNL     1     -40.254  52.353 -52.441  1.00  0.00     0.030 A 
BRANCH   6  11
HETATM   11  C   UNL     1     -41.112  55.404 -54.557  1.00  0.00     0.254 C 
HETATM   12  N   UNL     1     -42.062  55.426 -55.560  1.00  0.00    -0.349 N 
HETATM   13  H   UNL     1     -42.214  54.579 -56.105  1.00  0.00     0.163 HD
HETATM   14  O   UNL     1     -40.644  56.411 -54.037  1.00  0.00    -0.268 OA
BRANCH  12  15
HETATM   15  C   UNL     1     -42.499  56.679 -56.163  1.00  0.00     0.114 C 
HETATM   16  C   UNL     1     -43.665  57.273 -55.373  1.00  0.00     0.037 C 
BRANCH  15  17
HETATM   17  C   UNL     1     -42.853  56.490 -57.627  1.00  0.00    -0.036 A 
HETATM   18  C   UNL     1     -43.527  55.329 -58.038  1.00  0.00     0.009 A 
HETATM   19  C   UNL     1     -43.838  55.121 -59.384  1.00  0.00     0.001 A 
HETATM   20  C   UNL     1     -43.485  56.072 -60.337  1.00  0.00     0.000 A 
HETATM   21  C   UNL     1     -42.825  57.235 -59.947  1.00  0.00     0.001 A 
HETATM   22  C   UNL     1     -42.511  57.442 -58.602  1.00  0.00     0.009 A 
ENDBRANCH  15  17
ENDBRANCH  12  15
ENDBRANCH   6  11
ENDBRANCH   1   5
BRANCH   2  23
HETATM   23  C   UNL     1     -42.416  55.763 -50.109  1.00  0.00     0.240 C 
BRANCH  23  24
HETATM   24  N   UNL     1     -42.724  57.006 -50.782  1.00  0.00    -0.259 N 
HETATM   25  C   UNL     1     -43.990  57.483 -50.921  1.00  0.00     0.326 C 
HETATM   26  O   UNL     1     -45.032  56.909 -50.658  1.00  0.00    -0.247 OA
HETATM   27  N   UNL     1     -43.920  58.789 -51.339  1.00  0.00    -0.324 N 
HETATM   28  C   UNL     1     -42.558  59.258 -51.494  1.00  0.00     0.120 C 
HETATM   29  H   UNL     1     -44.757  59.320 -51.546  1.00  0.00     0.165 HD
HETATM   30  C   UNL     1     -42.213  59.548 -52.956  1.00  0.00     0.080 C 
HETATM   31  C   UNL     1     -42.234  60.454 -50.602  1.00  0.00     0.046 C 
HETATM   32  C   UNL     1     -41.819  58.011 -50.985  1.00  0.00     0.257 C 
HETATM   33  C   UNL     1     -42.766  60.880 -53.419  1.00  0.00    -0.049 A 
HETATM   34  C   UNL     1     -43.105  61.895 -52.504  1.00  0.00    -0.052 A 
HETATM   35  C   UNL     1     -42.899  61.122 -54.796  1.00  0.00     0.007 A 
HETATM   36  C   UNL     1     -43.028  61.689 -51.012  1.00  0.00     0.042 C 
HETATM   37  C   UNL     1     -43.597  63.119 -52.985  1.00  0.00     0.007 A 
HETATM   38  C   UNL     1     -43.736  63.342 -54.354  1.00  0.00     0.001 A 
HETATM   39  C   UNL     1     -43.387  62.344 -55.259  1.00  0.00     0.001 A 
HETATM   40  O   UNL     1     -40.614  57.938 -50.771  1.00  0.00    -0.270 OA
ENDBRANCH  23  24
ENDBRANCH   2  23
TORSDOF 6
ENDMDL
MODEL 6
REMARK VINA RESULT:      -9.7      2.742      5.039
REMARK  6 active torsions:
REMARK  status: ('A' for Active; 'I' for Inactive)
REMARK    1  A    between atoms: C_2  and  N_3 
REMARK    2  A    between atoms: C_2  and  C_32 
REMARK       I    between atoms: N_3  and  C_4 
REMARK    3  A    between atoms: C_4  and  C_5 
REMARK    4  A    between atoms: C_6  and  N_7 
REMARK       I    between atoms: N_7  and  C_8 
REMARK    5  A    between atoms: C_8  and  C_9 
REMARK    6  A    between atoms: C_9  and  N_10 
ROOT
HETATM    1  N   UNL     1     -44.522  60.443 -52.643  1.00  0.00    -0.325 N 
HETATM    2  C   UNL     1     -44.492  59.065 -52.490  1.00  0.00     0.240 C 
HETATM    3  O   UNL     1     -45.147  58.247 -53.128  1.00  0.00    -0.271 OA
HETATM    4  H   UNL     1     -44.071  60.989 -51.914  1.00  0.00     0.169 HD
ENDROOT
BRANCH   1   5
HETATM    5  C   UNL     1     -45.234  61.207 -53.597  1.00  0.00     0.050 A 
HETATM    6  C   UNL     1     -44.729  61.316 -54.913  1.00  0.00     0.058 A 
HETATM    7  C   UNL     1     -45.469  61.978 -55.904  1.00  0.00     0.019 A 
HETATM    8  C   UNL     1     -46.695  62.563 -55.593  1.00  0.00     0.001 A 
HETATM    9  C   UNL     1     -47.184  62.484 -54.293  1.00  0.00     0.002 A 
HETATM   10  C   UNL     1     -46.461  61.810 -53.302  1.00  0.00     0.030 A 
BRANCH   6  11
HETATM   11  C   UNL     1     -43.431  60.724 -55.341  1.00  0.00     0.254 C 
HETATM   12  N   UNL     1     -43.418  60.095 -56.572  1.00  0.00    -0.349 N 
HETATM   13  H   UNL     1     -44.308  59.842 -57.000  1.00  0.00     0.163 HD
HETATM   14  O   UNL     1     -42.451  60.816 -54.611  1.00  0.00    -0.268 OA
BRANCH  12  15
HETATM   15  C   UNL     1     -42.239  59.382 -57.045  1.00  0.00     0.114 C 
HETATM   16  C   UNL     1     -41.892  59.810 -58.472  1.00  0.00     0.037 C 
BRANCH  15  17
HETATM   17  C   UNL     1     -42.428  57.878 -56.943  1.00  0.00    -0.036 A 
HETATM   18  C   UNL     1     -42.896  57.157 -58.052  1.00  0.00     0.009 A 
HETATM   19  C   UNL     1     -43.105  55.778 -57.972  1.00  0.00     0.001 A 
HETATM   20  C   UNL     1     -42.844  55.100 -56.785  1.00  0.00     0.000 A 
HETATM   21  C   UNL     1     -42.369  55.797 -55.677  1.00  0.00     0.001 A 
HETATM   22  C   UNL     1     -42.163  57.176 -55.755  1.00  0.00     0.009 A 
ENDBRANCH  15  17
ENDBRANCH  12  15
ENDBRANCH   6  11
ENDBRANCH   1   5
BRANCH   2  23
HETATM   23  C   UNL     1     -43.606  58.639 -51.317  1.00  0.00     0.240 C 
BRANCH  23  24
HETATM   24  N   UNL     1     -42.832  57.466 -51.657  1.00  0.00    -0.259 N 
HETATM   25  C   UNL     1     -41.533  57.522 -52.055  1.00  0.00     0.326 C 
HETATM   26  O   UNL     1     -40.883  58.516 -52.329  1.00  0.00    -0.247 OA
HETATM   27  N   UNL     1     -41.013  56.251 -52.024  1.00  0.00    -0.324 N 
HETATM   28  C   UNL     1     -41.972  55.261 -51.582  1.00  0.00     0.120 C 
HETATM   29  H   UNL     1     -40.065  56.065 -52.328  1.00  0.00     0.165 HD
HETATM   30  C   UNL     1     -42.345  54.283 -52.697  1.00  0.00     0.080 C 
HETATM   31  C   UNL     1     -41.527  54.520 -50.323  1.00  0.00     0.046 C 
HETATM   32  C   UNL     1     -43.143  56.198 -51.249  1.00  0.00     0.257 C 
HETATM   33  C   UNL     1     -41.285  53.221 -52.902  1.00  0.00    -0.049 A 
HETATM   34  C   UNL     1     -40.357  52.902 -51.893  1.00  0.00    -0.052 A 
HETATM   35  C   UNL     1     -41.259  52.507 -54.111  1.00  0.00     0.007 A 
HETATM   36  C   UNL     1     -40.300  53.655 -50.588  1.00  0.00     0.042 C 
HETATM   37  C   UNL     1     -39.405  51.897 -52.126  1.00  0.00     0.007 A 
HETATM   38  C   UNL     1     -39.382  51.204 -53.335  1.00  0.00     0.001 A 
HETATM   39  C   UNL     1     -40.309  51.510 -54.327  1.00  0.00     0.001 A 
HETATM   40  O   UNL     1     -44.180  55.867 -50.684  1.00  0.00    -0.270 OA
ENDBRANCH  23  24
ENDBRANCH   2  23
TORSDOF 6
ENDMDL
MODEL 7
REMARK VINA RESULT:      -9.7      4.118      5.282
REMARK  6 active torsions:
REMARK  status: ('A' for Active; 'I' for Inactive)
REMARK    1  A    between atoms: C_2  and  N_3 
REMARK    2  A    between atoms: C_2  and  C_32 
REMARK       I    between atoms: N_3  and  C_4 
REMARK    3  A    between atoms: C_4  and  C_5 
REMARK    4  A    between atoms: C_6  and  N_7 
REMARK       I    between atoms: N_7  and  C_8 
REMARK    5  A    between atoms: C_8  and  C_9 
REMARK    6  A    between atoms: C_9  and  N_10 
ROOT
HETATM    1  N   UNL     1     -44.531  60.227 -52.714  1.00  0.00    -0.325 N 
HETATM    2  C   UNL     1     -43.211  60.234 -52.287  1.00  0.00     0.240 C 
HETATM    3  O   UNL     1     -42.259  60.740 -52.874  1.00  0.00    -0.271 OA
HETATM    4  H   UNL     1     -45.163  59.604 -52.217  1.00  0.00     0.169 HD
ENDROOT
BRANCH   1   5
HETATM    5  C   UNL     1     -45.090  60.851 -53.853  1.00  0.00     0.050 A 
HETATM    6  C   UNL     1     -45.285  60.095 -55.031  1.00  0.00     0.058 A 
HETATM    7  C   UNL     1     -45.934  60.660 -56.139  1.00  0.00     0.019 A 
HETATM    8  C   UNL     1     -46.365  61.984 -56.100  1.00  0.00     0.001 A 
HETATM    9  C   UNL     1     -46.152  62.744 -54.953  1.00  0.00     0.002 A 
HETATM   10  C   UNL     1     -45.521  62.182 -53.837  1.00  0.00     0.030 A 
BRANCH   6  11
HETATM   11  C   UNL     1     -44.860  58.673 -55.168  1.00  0.00     0.254 C 
HETATM   12  N   UNL     1     -44.051  58.374 -56.249  1.00  0.00    -0.349 N 
HETATM   13  H   UNL     1     -43.993  59.044 -57.014  1.00  0.00     0.163 HD
HETATM   14  O   UNL     1     -45.229  57.847 -54.342  1.00  0.00    -0.268 OA
BRANCH  12  15
HETATM   15  C   UNL     1     -43.666  57.001 -56.549  1.00  0.00     0.114 C 
HETATM   16  C   UNL     1     -42.205  56.760 -56.170  1.00  0.00     0.037 C 
BRANCH  15  17
HETATM   17  C   UNL     1     -43.929  56.664 -58.006  1.00  0.00    -0.036 A 
HETATM   18  C   UNL     1     -44.635  57.568 -58.815  1.00  0.00     0.009 A 
HETATM   19  C   UNL     1     -44.914  57.266 -60.151  1.00  0.00     0.001 A 
HETATM   20  C   UNL     1     -44.486  56.060 -60.698  1.00  0.00     0.000 A 
HETATM   21  C   UNL     1     -43.775  55.155 -59.914  1.00  0.00     0.001 A 
HETATM   22  C   UNL     1     -43.499  55.455 -58.577  1.00  0.00     0.009 A 
ENDBRANCH  15  17
ENDBRANCH  12  15
ENDBRANCH   6  11
ENDBRANCH   1   5
BRANCH   2  23
HETATM   23  C   UNL     1     -43.018  59.416 -51.009  1.00  0.00     0.240 C 
BRANCH  23  24
HETATM   24  N   UNL     1     -42.373  58.155 -51.299  1.00  0.00    -0.259 N 
HETATM   25  C   UNL     1     -41.028  57.971 -51.216  1.00  0.00     0.326 C 
HETATM   26  O   UNL     1     -40.171  58.823 -51.049  1.00  0.00    -0.247 OA
HETATM   27  N   UNL     1     -40.768  56.624 -51.269  1.00  0.00    -0.324 N 
HETATM   28  C   UNL     1     -41.969  55.823 -51.385  1.00  0.00     0.120 C 
HETATM   29  H   UNL     1     -39.818  56.273 -51.268  1.00  0.00     0.165 HD
HETATM   30  C   UNL     1     -42.056  55.107 -52.734  1.00  0.00     0.080 C 
HETATM   31  C   UNL     1     -42.147  54.844 -50.227  1.00  0.00     0.046 C 
HETATM   32  C   UNL     1     -43.013  56.946 -51.283  1.00  0.00     0.257 C 
HETATM   33  C   UNL     1     -41.180  53.872 -52.781  1.00  0.00    -0.049 A 
HETATM   34  C   UNL     1     -40.755  53.225 -51.604  1.00  0.00    -0.052 A 
HETATM   35  C   UNL     1     -40.825  53.335 -54.028  1.00  0.00     0.007 A 
HETATM   36  C   UNL     1     -41.065  53.769 -50.232  1.00  0.00     0.042 C 
HETATM   37  C   UNL     1     -39.960  52.072 -51.702  1.00  0.00     0.007 A 
HETATM   38  C   UNL     1     -39.603  51.556 -52.946  1.00  0.00     0.001 A 
HETATM   39  C   UNL     1     -40.036  52.187 -54.109  1.00  0.00     0.001 A 
HETATM   40  O   UNL     1     -44.223  56.783 -51.179  1.00  0.00    -0.270 OA
ENDBRANCH  23  24
ENDBRANCH   2  23
TORSDOF 6
ENDMDL
MODEL 8
REMARK VINA RESULT:      -9.4      3.406      5.516
REMARK  6 active torsions:
REMARK  status: ('A' for Active; 'I' for Inactive)
REMARK    1  A    between atoms: C_2  and  N_3 
REMARK    2  A    between atoms: C_2  and  C_32 
REMARK       I    between atoms: N_3  and  C_4 
REMARK    3  A    between atoms: C_4  and  C_5 
REMARK    4  A    between atoms: C_6  and  N_7 
REMARK       I    between atoms: N_7  and  C_8 
REMARK    5  A    between atoms: C_8  and  C_9 
REMARK    6  A    between atoms: C_9  and  N_10 
ROOT
HETATM    1  N   UNL     1     -44.843  60.130 -52.981  1.00  0.00    -0.325 N 
HETATM    2  C   UNL     1     -43.570  60.365 -52.481  1.00  0.00     0.240 C 
HETATM    3  O   UNL     1     -42.732  61.126 -52.954  1.00  0.00    -0.271 OA
HETATM    4  H   UNL     1     -45.341  59.334 -52.592  1.00  0.00     0.169 HD
ENDROOT
BRANCH   1   5
HETATM    5  C   UNL     1     -45.487  60.752 -54.076  1.00  0.00     0.050 A 
HETATM    6  C   UNL     1     -45.386  60.170 -55.360  1.00  0.00     0.058 A 
HETATM    7  C   UNL     1     -46.101  60.708 -56.441  1.00  0.00     0.019 A 
HETATM    8  C   UNL     1     -46.893  61.840 -56.265  1.00  0.00     0.001 A 
HETATM    9  C   UNL     1     -46.975  62.435 -55.010  1.00  0.00     0.002 A 
HETATM   10  C   UNL     1     -46.279  61.895 -53.922  1.00  0.00     0.030 A 
BRANCH   6  11
HETATM   11  C   UNL     1     -44.566  58.960 -55.646  1.00  0.00     0.254 C 
HETATM   12  N   UNL     1     -43.890  58.945 -56.852  1.00  0.00    -0.349 N 
HETATM   13  H   UNL     1     -44.170  59.605 -57.575  1.00  0.00     0.163 HD
HETATM   14  O   UNL     1     -44.519  58.050 -54.825  1.00  0.00    -0.268 OA
BRANCH  12  15
HETATM   15  C   UNL     1     -43.150  57.768 -57.290  1.00  0.00     0.114 C 
HETATM   16  C   UNL     1     -41.802  58.177 -57.884  1.00  0.00     0.037 C 
BRANCH  15  17
HETATM   17  C   UNL     1     -43.965  56.939 -58.267  1.00  0.00    -0.036 A 
HETATM   18  C   UNL     1     -43.494  55.681 -58.675  1.00  0.00     0.009 A 
HETATM   19  C   UNL     1     -44.212  54.914 -59.596  1.00  0.00     0.001 A 
HETATM   20  C   UNL     1     -45.412  55.389 -60.116  1.00  0.00     0.000 A 
HETATM   21  C   UNL     1     -45.900  56.630 -59.715  1.00  0.00     0.001 A 
HETATM   22  C   UNL     1     -45.181  57.400 -58.797  1.00  0.00     0.009 A 
ENDBRANCH  15  17
ENDBRANCH  12  15
ENDBRANCH   6  11
ENDBRANCH   1   5
BRANCH   2  23
HETATM   23  C   UNL     1     -43.247  59.461 -51.291  1.00  0.00     0.240 C 
BRANCH  23  24
HETATM   24  N   UNL     1     -42.842  58.147 -51.739  1.00  0.00    -0.259 N 
HETATM   25  C   UNL     1     -43.725  57.150 -52.014  1.00  0.00     0.326 C 
HETATM   26  O   UNL     1     -44.924  57.139 -51.794  1.00  0.00    -0.247 OA
HETATM   27  N   UNL     1     -43.059  56.148 -52.676  1.00  0.00    -0.324 N 
HETATM   28  C   UNL     1     -41.658  56.447 -52.886  1.00  0.00     0.120 C 
HETATM   29  H   UNL     1     -43.528  55.289 -52.935  1.00  0.00     0.165 HD
HETATM   30  C   UNL     1     -40.745  55.514 -52.089  1.00  0.00     0.080 C 
HETATM   31  C   UNL     1     -41.268  56.473 -54.362  1.00  0.00     0.046 C 
HETATM   32  C   UNL     1     -41.632  57.873 -52.315  1.00  0.00     0.257 C 
HETATM   33  C   UNL     1     -40.596  54.160 -52.750  1.00  0.00    -0.049 A 
HETATM   34  C   UNL     1     -40.854  53.978 -54.122  1.00  0.00    -0.052 A 
HETATM   35  C   UNL     1     -40.144  53.073 -51.985  1.00  0.00     0.007 A 
HETATM   36  C   UNL     1     -41.381  55.089 -54.994  1.00  0.00     0.042 C 
HETATM   37  C   UNL     1     -40.683  52.706 -54.692  1.00  0.00     0.007 A 
HETATM   38  C   UNL     1     -40.246  51.632 -53.918  1.00  0.00     0.001 A 
HETATM   39  C   UNL     1     -39.977  51.816 -52.565  1.00  0.00     0.001 A 
HETATM   40  O   UNL     1     -40.686  58.650 -52.388  1.00  0.00    -0.270 OA
ENDBRANCH  23  24
ENDBRANCH   2  23
TORSDOF 6
ENDMDL
MODEL 9
REMARK VINA RESULT:      -9.3      1.810      5.009
REMARK  6 active torsions:
REMARK  status: ('A' for Active; 'I' for Inactive)
REMARK    1  A    between atoms: C_2  and  N_3 
REMARK    2  A    between atoms: C_2  and  C_32 
REMARK       I    between atoms: N_3  and  C_4 
REMARK    3  A    between atoms: C_4  and  C_5 
REMARK    4  A    between atoms: C_6  and  N_7 
REMARK       I    between atoms: N_7  and  C_8 
REMARK    5  A    between atoms: C_8  and  C_9 
REMARK    6  A    between atoms: C_9  and  N_10 
ROOT
HETATM    1  N   UNL     1     -42.564  61.549 -56.356  1.00  0.00    -0.325 N 
HETATM    2  C   UNL     1     -43.840  61.131 -56.008  1.00  0.00     0.240 C 
HETATM    3  O   UNL     1     -44.832  61.141 -56.731  1.00  0.00    -0.271 OA
HETATM    4  H   UNL     1     -41.902  61.661 -55.593  1.00  0.00     0.169 HD
ENDROOT
BRANCH   1   5
HETATM    5  C   UNL     1     -42.098  61.998 -57.614  1.00  0.00     0.050 A 
HETATM    6  C   UNL     1     -41.814  61.052 -58.624  1.00  0.00     0.058 A 
HETATM    7  C   UNL     1     -41.453  61.475 -59.912  1.00  0.00     0.019 A 
HETATM    8  C   UNL     1     -41.338  62.834 -60.198  1.00  0.00     0.001 A 
HETATM    9  C   UNL     1     -41.588  63.771 -59.200  1.00  0.00     0.002 A 
HETATM   10  C   UNL     1     -41.967  63.357 -57.918  1.00  0.00     0.030 A 
BRANCH   6  11
HETATM   11  C   UNL     1     -41.910  59.580 -58.415  1.00  0.00     0.254 C 
HETATM   12  N   UNL     1     -42.637  58.871 -59.353  1.00  0.00    -0.349 N 
HETATM   13  H   UNL     1     -43.265  59.382 -59.971  1.00  0.00     0.163 HD
HETATM   14  O   UNL     1     -41.355  59.066 -57.450  1.00  0.00    -0.268 OA
BRANCH  12  15
HETATM   15  C   UNL     1     -42.894  57.445 -59.191  1.00  0.00     0.114 C 
HETATM   16  C   UNL     1     -41.927  56.628 -60.048  1.00  0.00     0.037 C 
BRANCH  15  17
HETATM   17  C   UNL     1     -44.341  57.109 -59.506  1.00  0.00    -0.036 A 
HETATM   18  C   UNL     1     -45.374  57.762 -58.815  1.00  0.00     0.009 A 
HETATM   19  C   UNL     1     -46.712  57.448 -59.067  1.00  0.00     0.001 A 
HETATM   20  C   UNL     1     -47.037  56.484 -60.017  1.00  0.00     0.000 A 
HETATM   21  C   UNL     1     -46.025  55.833 -60.719  1.00  0.00     0.001 A 
HETATM   22  C   UNL     1     -44.687  56.144 -60.466  1.00  0.00     0.009 A 
ENDBRANCH  15  17
ENDBRANCH  12  15
ENDBRANCH   6  11
ENDBRANCH   1   5
BRANCH   2  23
HETATM   23  C   UNL     1     -43.932  60.742 -54.532  1.00  0.00     0.240 C 
BRANCH  23  24
HETATM   24  N   UNL     1     -43.281  59.473 -54.293  1.00  0.00    -0.259 N 
HETATM   25  C   UNL     1     -42.149  59.346 -53.550  1.00  0.00     0.326 C 
HETATM   26  O   UNL     1     -41.443  60.238 -53.115  1.00  0.00    -0.247 OA
HETATM   27  N   UNL     1     -41.953  58.014 -53.280  1.00  0.00    -0.324 N 
HETATM   28  C   UNL     1     -42.985  57.167 -53.842  1.00  0.00     0.120 C 
HETATM   29  H   UNL     1     -41.136  57.696 -52.772  1.00  0.00     0.165 HD
HETATM   30  C   UNL     1     -42.445  56.261 -54.949  1.00  0.00     0.080 C 
HETATM   31  C   UNL     1     -43.737  56.361 -52.786  1.00  0.00     0.046 C 
HETATM   32  C   UNL     1     -43.901  58.260 -54.415  1.00  0.00     0.257 C 
HETATM   33  C   UNL     1     -41.707  55.059 -54.394  1.00  0.00    -0.049 A 
HETATM   34  C   UNL     1     -41.926  54.604 -53.080  1.00  0.00    -0.052 A 
HETATM   35  C   UNL     1     -40.821  54.359 -55.227  1.00  0.00     0.007 A 
HETATM   36  C   UNL     1     -42.831  55.332 -52.118  1.00  0.00     0.042 C 
HETATM   37  C   UNL     1     -41.231  53.475 -52.619  1.00  0.00     0.007 A 
HETATM   38  C   UNL     1     -40.344  52.795 -53.451  1.00  0.00     0.001 A 
HETATM   39  C   UNL     1     -40.140  53.237 -54.755  1.00  0.00     0.001 A 
HETATM   40  O   UNL     1     -45.019  58.075 -54.883  1.00  0.00    -0.270 OA
ENDBRANCH  23  24
ENDBRANCH   2  23
TORSDOF 6
ENDMDL
MODEL 10
REMARK VINA RESULT:      -9.2      1.951      3.033
REMARK  6 active torsions:
REMARK  status: ('A' for Active; 'I' for Inactive)
REMARK    1  A    between atoms: C_2  and  N_3 
REMARK    2  A    between atoms: C_2  and  C_32 
REMARK       I    between atoms: N_3  and  C_4 
REMARK    3  A    between atoms: C_4  and  C_5 
REMARK    4  A    between atoms: C_6  and  N_7 
REMARK       I    between atoms: N_7  and  C_8 
REMARK    5  A    between atoms: C_8  and  C_9 
REMARK    6  A    between atoms: C_9  and  N_10 
ROOT
HETATM    1  N   UNL     1     -44.090  57.229 -57.539  1.00  0.00    -0.325 N 
HETATM    2  C   UNL     1     -42.921  57.922 -57.264  1.00  0.00     0.240 C 
HETATM    3  O   UNL     1     -41.886  57.894 -57.923  1.00  0.00    -0.271 OA
HETATM    4  H   UNL     1     -44.786  57.204 -56.798  1.00  0.00     0.169 HD
ENDROOT
BRANCH   1   5
HETATM    5  C   UNL     1     -44.388  56.413 -58.656  1.00  0.00     0.050 A 
HETATM    6  C   UNL     1     -44.774  57.019 -59.872  1.00  0.00     0.058 A 
HETATM    7  C   UNL     1     -44.972  56.240 -61.023  1.00  0.00     0.019 A 
HETATM    8  C   UNL     1     -44.820  54.856 -60.968  1.00  0.00     0.001 A 
HETATM    9  C   UNL     1     -44.467  54.250 -59.766  1.00  0.00     0.002 A 
HETATM   10  C   UNL     1     -44.251  55.021 -58.619  1.00  0.00     0.030 A 
BRANCH   6  11
HETATM   11  C   UNL     1     -44.961  58.489 -60.030  1.00  0.00     0.254 C 
HETATM   12  N   UNL     1     -44.120  59.124 -60.925  1.00  0.00    -0.349 N 
HETATM   13  H   UNL     1     -43.278  58.639 -61.231  1.00  0.00     0.163 HD
HETATM   14  O   UNL     1     -45.828  59.064 -59.381  1.00  0.00    -0.268 OA
BRANCH  12  15
HETATM   15  C   UNL     1     -44.133  60.573 -61.078  1.00  0.00     0.114 C 
HETATM   16  C   UNL     1     -44.369  60.954 -62.540  1.00  0.00     0.037 C 
BRANCH  15  17
HETATM   17  C   UNL     1     -42.856  61.193 -60.538  1.00  0.00    -0.036 A 
HETATM   18  C   UNL     1     -41.967  61.835 -61.414  1.00  0.00     0.009 A 
HETATM   19  C   UNL     1     -40.773  62.387 -60.945  1.00  0.00     0.001 A 
HETATM   20  C   UNL     1     -40.454  62.312 -59.592  1.00  0.00     0.000 A 
HETATM   21  C   UNL     1     -41.328  61.689 -58.705  1.00  0.00     0.001 A 
HETATM   22  C   UNL     1     -42.521  61.133 -59.175  1.00  0.00     0.009 A 
ENDBRANCH  15  17
ENDBRANCH  12  15
ENDBRANCH   6  11
ENDBRANCH   1   5
BRANCH   2  23
HETATM   23  C   UNL     1     -43.001  58.674 -55.935  1.00  0.00     0.240 C 
BRANCH  23  24
HETATM   24  N   UNL     1     -42.517  57.851 -54.848  1.00  0.00    -0.259 N 
HETATM   25  C   UNL     1     -41.539  58.250 -53.992  1.00  0.00     0.326 C 
HETATM   26  O   UNL     1     -40.834  59.240 -54.079  1.00  0.00    -0.247 OA
HETATM   27  N   UNL     1     -41.513  57.383 -52.926  1.00  0.00    -0.324 N 
HETATM   28  C   UNL     1     -42.512  56.340 -53.026  1.00  0.00     0.120 C 
HETATM   29  H   UNL     1     -40.822  57.477 -52.191  1.00  0.00     0.165 HD
HETATM   30  C   UNL     1     -41.883  54.958 -53.212  1.00  0.00     0.080 C 
HETATM   31  C   UNL     1     -43.497  56.345 -51.860  1.00  0.00     0.046 C 
HETATM   32  C   UNL     1     -43.217  56.808 -54.307  1.00  0.00     0.257 C 
HETATM   33  C   UNL     1     -41.360  54.388 -51.910  1.00  0.00    -0.049 A 
HETATM   34  C   UNL     1     -41.832  54.844 -50.664  1.00  0.00    -0.052 A 
HETATM   35  C   UNL     1     -40.418  53.349 -51.950  1.00  0.00     0.007 A 
HETATM   36  C   UNL     1     -42.812  55.985 -50.546  1.00  0.00     0.042 C 
HETATM   37  C   UNL     1     -41.329  54.271 -49.486  1.00  0.00     0.007 A 
HETATM   38  C   UNL     1     -40.383  53.248 -49.538  1.00  0.00     0.001 A 
HETATM   39  C   UNL     1     -39.928  52.787 -50.770  1.00  0.00     0.001 A 
HETATM   40  O   UNL     1     -44.256  56.338 -54.758  1.00  0.00    -0.270 OA
ENDBRANCH  23  24
ENDBRANCH   2  23
TORSDOF 6
ENDMDL
