MODEL 1
REMARK VINA RESULT:      -9.0      0.000      0.000
REMARK  5 active torsions:
REMARK  status: ('A' for Active; 'I' for Inactive)
REMARK    1  A    between atoms: C_4  and  N_5 
REMARK       I    between atoms: N_5  and  C_6 
REMARK    2  A    between atoms: C_6  and  C_7 
REMARK    3  A    between atoms: N_9  and  C_10 
REMARK    4  A    between atoms: C_10  and  C_11 
REMARK    5  A    between atoms: C_14  and  O_15 
ROOT
HETATM    1  C   UNL     1     -42.522  56.088 -56.005  1.00  0.00     0.105 C 
HETATM    2  C   UNL     1     -42.852  55.955 -57.482  1.00  0.00     0.140 C 
HETATM    3  N   UNL     1     -43.403  57.255 -57.786  1.00  0.00    -0.347 N 
HETATM    4  C   UNL     1     -43.956  57.854 -56.670  1.00  0.00     0.221 C 
HETATM    5  O   UNL     1     -44.587  58.897 -56.633  1.00  0.00    -0.273 OA
HETATM    6  C   UNL     1     -43.645  56.984 -55.478  1.00  0.00     0.118 C 
ENDROOT
BRANCH   1   7
HETATM    7  C   UNL     1     -42.431  54.765 -55.272  1.00  0.00     0.228 C 
HETATM    8  N   UNL     1     -41.241  54.657 -54.582  1.00  0.00    -0.325 N 
HETATM    9  H   UNL     1     -40.563  55.416 -54.645  1.00  0.00     0.169 HD
HETATM   10  O   UNL     1     -43.309  53.914 -55.350  1.00  0.00    -0.273 OA
BRANCH   8  11
HETATM   11  C   UNL     1     -40.735  53.566 -53.834  1.00  0.00     0.065 A 
HETATM   12  C   UNL     1     -40.344  52.350 -54.403  1.00  0.00     0.038 A 
HETATM   13  C   UNL     1     -39.834  51.325 -53.598  1.00  0.00    -0.059 A 
HETATM   14  C   UNL     1     -39.444  50.006 -54.201  1.00  0.00     0.048 C 
HETATM   15  C   UNL     1     -39.746  51.523 -52.216  1.00  0.00     0.020 A 
HETATM   16  C   UNL     1     -40.140  52.741 -51.639  1.00  0.00    -0.005 A 
HETATM   17  C   UNL     1     -40.642  53.780 -52.448  1.00  0.00     0.093 A 
HETATM   18  C   UNL     1     -40.045  52.964 -50.259  1.00  0.00     0.015 A 
HETATM   19  N   UNL     1     -41.028  54.971 -51.925  1.00  0.00    -0.258 NA
HETATM   20  C   UNL     1     -40.920  55.146 -50.589  1.00  0.00     0.117 A 
HETATM   21  C   UNL     1     -40.440  54.184 -49.724  1.00  0.00     0.020 A 
ENDBRANCH   8  11
ENDBRANCH   1   7
BRANCH   3  22
HETATM   22  C   UNL     1     -43.481  57.795 -59.128  1.00  0.00     0.164 C 
BRANCH  22  23
HETATM   23  C   UNL     1     -44.738  57.422 -59.870  1.00  0.00    -0.040 A 
HETATM   24  C   UNL     1     -44.881  56.147 -60.434  1.00  0.00     0.011 A 
HETATM   25  C   UNL     1     -46.084  55.770 -61.034  1.00  0.00     0.037 A 
HETATM   26  C   UNL     1     -47.166  56.650 -61.065  1.00  0.00     0.068 A 
HETATM   27  C   UNL     1     -47.018  57.937 -60.548  1.00  0.00     0.037 A 
HETATM   28  C   UNL     1     -45.811  58.319 -59.953  1.00  0.00     0.011 A 
BRANCH  26  29
HETATM   29  O   UNL     1     -48.307  56.157 -61.638  1.00  0.00    -0.356 OA
HETATM   30  C   UNL     1     -48.834  56.925 -62.715  1.00  0.00     0.210 C 
ENDBRANCH  26  29
ENDBRANCH  22  23
ENDBRANCH   3  22
TORSDOF 5
ENDMDL
MODEL 2
REMARK VINA RESULT:      -8.7      2.138      3.567
REMARK  5 active torsions:
REMARK  status: ('A' for Active; 'I' for Inactive)
REMARK    1  A    between atoms: C_4  and  N_5 
REMARK       I    between atoms: N_5  and  C_6 
REMARK    2  A    between atoms: C_6  and  C_7 
REMARK    3  A    between atoms: N_9  and  C_10 
REMARK    4  A    between atoms: C_10  and  C_11 
REMARK    5  A    between atoms: C_14  and  O_15 
ROOT
HETATM    1  C   UNL     1     -43.276  57.834 -53.202  1.00  0.00     0.105 C 
HETATM    2  C   UNL     1     -42.386  57.707 -54.427  1.00  0.00     0.140 C 
HETATM    3  N   UNL     1     -43.159  58.396 -55.434  1.00  0.00    -0.347 N 
HETATM    4  C   UNL     1     -44.512  58.369 -55.153  1.00  0.00     0.221 C 
HETATM    5  O   UNL     1     -45.418  58.768 -55.866  1.00  0.00    -0.273 OA
HETATM    6  C   UNL     1     -44.686  57.749 -53.789  1.00  0.00     0.118 C 
ENDROOT
BRANCH   1   7
HETATM    7  C   UNL     1     -43.016  56.786 -52.140  1.00  0.00     0.228 C 
HETATM    8  N   UNL     1     -41.785  56.189 -52.317  1.00  0.00    -0.325 N 
HETATM    9  H   UNL     1     -41.210  56.469 -53.111  1.00  0.00     0.169 HD
HETATM   10  O   UNL     1     -43.844  56.508 -51.280  1.00  0.00    -0.273 OA
BRANCH   8  11
HETATM   11  C   UNL     1     -41.193  55.125 -51.594  1.00  0.00     0.065 A 
HETATM   12  C   UNL     1     -41.046  55.119 -50.204  1.00  0.00     0.038 A 
HETATM   13  C   UNL     1     -40.468  54.020 -49.559  1.00  0.00    -0.059 A 
HETATM   14  C   UNL     1     -40.278  54.024 -48.070  1.00  0.00     0.048 C 
HETATM   15  C   UNL     1     -40.016  52.940 -50.325  1.00  0.00     0.020 A 
HETATM   16  C   UNL     1     -40.159  52.942 -51.722  1.00  0.00    -0.005 A 
HETATM   17  C   UNL     1     -40.752  54.042 -52.374  1.00  0.00     0.093 A 
HETATM   18  C   UNL     1     -39.727  51.863 -52.505  1.00  0.00     0.015 A 
HETATM   19  N   UNL     1     -40.910  54.075 -53.721  1.00  0.00    -0.258 NA
HETATM   20  C   UNL     1     -40.480  53.015 -54.439  1.00  0.00     0.117 A 
HETATM   21  C   UNL     1     -39.889  51.898 -53.884  1.00  0.00     0.020 A 
ENDBRANCH   8  11
ENDBRANCH   1   7
BRANCH   3  22
HETATM   22  C   UNL     1     -42.587  58.926 -56.654  1.00  0.00     0.164 C 
BRANCH  22  23
HETATM   23  C   UNL     1     -42.897  58.114 -57.885  1.00  0.00    -0.040 A 
HETATM   24  C   UNL     1     -42.890  56.714 -57.835  1.00  0.00     0.011 A 
HETATM   25  C   UNL     1     -43.275  55.965 -58.949  1.00  0.00     0.037 A 
HETATM   26  C   UNL     1     -43.689  56.599 -60.121  1.00  0.00     0.068 A 
HETATM   27  C   UNL     1     -43.656  57.992 -60.195  1.00  0.00     0.037 A 
HETATM   28  C   UNL     1     -43.263  58.744 -59.082  1.00  0.00     0.011 A 
BRANCH  26  29
HETATM   29  O   UNL     1     -44.086  55.765 -61.131  1.00  0.00    -0.356 OA
HETATM   30  C   UNL     1     -44.959  54.709 -60.746  1.00  0.00     0.210 C 
ENDBRANCH  26  29
ENDBRANCH  22  23
ENDBRANCH   3  22
TORSDOF 5
ENDMDL
MODEL 3
REMARK VINA RESULT:      -8.5      3.135      8.933
REMARK  5 active torsions:
REMARK  status: ('A' for Active; 'I' for Inactive)
REMARK    1  A    between atoms: C_4  and  N_5 
REMARK       I    between atoms: N_5  and  C_6 
REMARK    2  A    between atoms: C_6  and  C_7 
REMARK    3  A    between atoms: N_9  and  C_10 
REMARK    4  A    between atoms: C_10  and  C_11 
REMARK    5  A    between atoms: C_14  and  O_15 
ROOT
HETATM    1  C   UNL     1     -43.298  58.131 -53.123  1.00  0.00     0.105 C 
HETATM    2  C   UNL     1     -43.272  56.623 -53.305  1.00  0.00     0.140 C 
HETATM    3  N   UNL     1     -42.602  56.185 -52.103  1.00  0.00    -0.347 N 
HETATM    4  C   UNL     1     -41.767  57.162 -51.593  1.00  0.00     0.221 C 
HETATM    5  O   UNL     1     -40.994  57.052 -50.657  1.00  0.00    -0.273 OA
HETATM    6  C   UNL     1     -41.976  58.416 -52.406  1.00  0.00     0.118 C 
ENDROOT
BRANCH   1   7
HETATM    7  C   UNL     1     -43.445  58.906 -54.417  1.00  0.00     0.228 C 
HETATM    8  N   UNL     1     -42.576  58.438 -55.381  1.00  0.00    -0.325 N 
HETATM    9  H   UNL     1     -41.936  57.680 -55.143  1.00  0.00     0.169 HD
HETATM   10  O   UNL     1     -44.219  59.849 -54.528  1.00  0.00    -0.273 OA
BRANCH   8  11
HETATM   11  C   UNL     1     -42.346  58.924 -56.691  1.00  0.00     0.065 A 
HETATM   12  C   UNL     1     -41.951  60.235 -56.974  1.00  0.00     0.038 A 
HETATM   13  C   UNL     1     -41.723  60.635 -58.296  1.00  0.00    -0.059 A 
HETATM   14  C   UNL     1     -41.332  62.050 -58.607  1.00  0.00     0.048 C 
HETATM   15  C   UNL     1     -41.921  59.714 -59.330  1.00  0.00     0.020 A 
HETATM   16  C   UNL     1     -42.319  58.396 -59.051  1.00  0.00    -0.005 A 
HETATM   17  C   UNL     1     -42.538  57.987 -57.721  1.00  0.00     0.093 A 
HETATM   18  C   UNL     1     -42.508  57.455 -60.073  1.00  0.00     0.015 A 
HETATM   19  N   UNL     1     -42.919  56.721 -57.415  1.00  0.00    -0.258 NA
HETATM   20  C   UNL     1     -43.090  55.844 -58.429  1.00  0.00     0.117 A 
HETATM   21  C   UNL     1     -42.898  56.159 -59.759  1.00  0.00     0.020 A 
ENDBRANCH   8  11
ENDBRANCH   1   7
BRANCH   3  22
HETATM   22  C   UNL     1     -42.697  54.837 -51.582  1.00  0.00     0.164 C 
BRANCH  22  23
HETATM   23  C   UNL     1     -41.703  53.874 -52.178  1.00  0.00    -0.040 A 
HETATM   24  C   UNL     1     -40.767  53.222 -51.365  1.00  0.00     0.011 A 
HETATM   25  C   UNL     1     -39.915  52.255 -51.903  1.00  0.00     0.037 A 
HETATM   26  C   UNL     1     -39.994  51.913 -53.253  1.00  0.00     0.068 A 
HETATM   27  C   UNL     1     -40.891  52.590 -54.080  1.00  0.00     0.037 A 
HETATM   28  C   UNL     1     -41.741  53.564 -53.544  1.00  0.00     0.011 A 
BRANCH  26  29
HETATM   29  O   UNL     1     -39.141  50.923 -53.659  1.00  0.00    -0.356 OA
HETATM   30  C   UNL     1     -39.732  49.882 -54.429  1.00  0.00     0.210 C 
ENDBRANCH  26  29
ENDBRANCH  22  23
ENDBRANCH   3  22
TORSDOF 5
ENDMDL
MODEL 4
REMARK VINA RESULT:      -8.4      1.482      3.023
REMARK  5 active torsions:
REMARK  status: ('A' for Active; 'I' for Inactive)
REMARK    1  A    between atoms: C_4  and  N_5 
REMARK       I    between atoms: N_5  and  C_6 
REMARK    2  A    between atoms: C_6  and  C_7 
REMARK    3  A    between atoms: N_9  and  C_10 
REMARK    4  A    between atoms: C_10  and  C_11 
REMARK    5  A    between atoms: C_14  and  O_15 
ROOT
HETATM    1  C   UNL     1     -42.342  56.783 -54.981  1.00  0.00     0.105 C 
HETATM    2  C   UNL     1     -43.680  57.287 -55.496  1.00  0.00     0.140 C 
HETATM    3  N   UNL     1     -43.315  58.544 -56.107  1.00  0.00    -0.347 N 
HETATM    4  C   UNL     1     -42.177  59.083 -55.537  1.00  0.00     0.221 C 
HETATM    5  O   UNL     1     -41.689  60.177 -55.764  1.00  0.00    -0.273 OA
HETATM    6  C   UNL     1     -41.625  58.069 -54.565  1.00  0.00     0.118 C 
ENDROOT
BRANCH   1   7
HETATM    7  C   UNL     1     -42.453  55.779 -53.853  1.00  0.00     0.228 C 
HETATM    8  N   UNL     1     -41.244  55.614 -53.210  1.00  0.00    -0.325 N 
HETATM    9  H   UNL     1     -40.431  56.129 -53.547  1.00  0.00     0.169 HD
HETATM   10  O   UNL     1     -43.495  55.182 -53.611  1.00  0.00    -0.273 OA
BRANCH   8  11
HETATM   11  C   UNL     1     -40.901  54.729 -52.159  1.00  0.00     0.065 A 
HETATM   12  C   UNL     1     -40.998  55.059 -50.804  1.00  0.00     0.038 A 
HETATM   13  C   UNL     1     -40.660  54.121 -49.822  1.00  0.00    -0.059 A 
HETATM   14  C   UNL     1     -40.730  54.482 -48.367  1.00  0.00     0.048 C 
HETATM   15  C   UNL     1     -40.199  52.859 -50.214  1.00  0.00     0.020 A 
HETATM   16  C   UNL     1     -40.098  52.524 -51.574  1.00  0.00    -0.005 A 
HETATM   17  C   UNL     1     -40.449  53.462 -52.566  1.00  0.00     0.093 A 
HETATM   18  C   UNL     1     -39.653  51.260 -51.987  1.00  0.00     0.015 A 
HETATM   19  N   UNL     1     -40.368  53.170 -53.888  1.00  0.00    -0.258 NA
HETATM   20  C   UNL     1     -39.935  51.940 -54.244  1.00  0.00     0.117 A 
HETATM   21  C   UNL     1     -39.570  50.962 -53.341  1.00  0.00     0.020 A 
ENDBRANCH   8  11
ENDBRANCH   1   7
BRANCH   3  22
HETATM   22  C   UNL     1     -44.128  59.214 -57.100  1.00  0.00     0.164 C 
BRANCH  22  23
HETATM   23  C   UNL     1     -44.784  58.285 -58.089  1.00  0.00    -0.040 A 
HETATM   24  C   UNL     1     -46.174  58.111 -58.089  1.00  0.00     0.011 A 
HETATM   25  C   UNL     1     -46.789  57.329 -59.069  1.00  0.00     0.037 A 
HETATM   26  C   UNL     1     -46.030  56.725 -60.073  1.00  0.00     0.068 A 
HETATM   27  C   UNL     1     -44.642  56.856 -60.054  1.00  0.00     0.037 A 
HETATM   28  C   UNL     1     -44.023  57.633 -59.069  1.00  0.00     0.011 A 
BRANCH  26  29
HETATM   29  O   UNL     1     -46.744  56.021 -61.004  1.00  0.00    -0.356 OA
HETATM   30  C   UNL     1     -47.848  56.710 -61.581  1.00  0.00     0.210 C 
ENDBRANCH  26  29
ENDBRANCH  22  23
ENDBRANCH   3  22
TORSDOF 5
ENDMDL
MODEL 5
REMARK VINA RESULT:      -8.4      4.334      6.715
REMARK  5 active torsions:
REMARK  status: ('A' for Active; 'I' for Inactive)
REMARK    1  A    between atoms: C_4  and  N_5 
REMARK       I    between atoms: N_5  and  C_6 
REMARK    2  A    between atoms: C_6  and  C_7 
REMARK    3  A    between atoms: N_9  and  C_10 
REMARK    4  A    between atoms: C_10  and  C_11 
REMARK    5  A    between atoms: C_14  and  O_15 
ROOT
HETATM    1  C   UNL     1     -43.169  57.400 -54.143  1.00  0.00     0.105 C 
HETATM    2  C   UNL     1     -42.952  58.359 -52.985  1.00  0.00     0.140 C 
HETATM    3  N   UNL     1     -42.655  59.596 -53.668  1.00  0.00    -0.347 N 
HETATM    4  C   UNL     1     -42.112  59.375 -54.920  1.00  0.00     0.221 C 
HETATM    5  O   UNL     1     -41.663  60.213 -55.684  1.00  0.00    -0.273 OA
HETATM    6  C   UNL     1     -42.168  57.892 -55.191  1.00  0.00     0.118 C 
ENDROOT
BRANCH   1   7
HETATM    7  C   UNL     1     -42.974  55.942 -53.782  1.00  0.00     0.228 C 
HETATM    8  N   UNL     1     -41.757  55.738 -53.165  1.00  0.00    -0.325 N 
HETATM    9  H   UNL     1     -41.128  56.531 -53.040  1.00  0.00     0.169 HD
HETATM   10  O   UNL     1     -43.801  55.083 -54.064  1.00  0.00    -0.273 OA
BRANCH   8  11
HETATM   11  C   UNL     1     -41.161  54.527 -52.735  1.00  0.00     0.065 A 
HETATM   12  C   UNL     1     -40.755  53.511 -53.606  1.00  0.00     0.038 A 
HETATM   13  C   UNL     1     -40.155  52.350 -53.106  1.00  0.00    -0.059 A 
HETATM   14  C   UNL     1     -39.748  51.243 -54.034  1.00  0.00     0.048 C 
HETATM   15  C   UNL     1     -39.990  52.209 -51.724  1.00  0.00     0.020 A 
HETATM   16  C   UNL     1     -40.398  53.225 -50.845  1.00  0.00    -0.005 A 
HETATM   17  C   UNL     1     -40.992  54.401 -51.346  1.00  0.00     0.093 A 
HETATM   18  C   UNL     1     -40.228  53.109 -49.459  1.00  0.00     0.015 A 
HETATM   19  N   UNL     1     -41.394  55.405 -50.526  1.00  0.00    -0.258 NA
HETATM   20  C   UNL     1     -41.212  55.253 -49.196  1.00  0.00     0.117 A 
HETATM   21  C   UNL     1     -40.640  54.137 -48.620  1.00  0.00     0.020 A 
ENDBRANCH   8  11
ENDBRANCH   1   7
BRANCH   3  22
HETATM   22  C   UNL     1     -42.786  60.899 -53.051  1.00  0.00     0.164 C 
BRANCH  22  23
HETATM   23  C   UNL     1     -43.729  60.934 -51.876  1.00  0.00    -0.040 A 
HETATM   24  C   UNL     1     -43.236  61.072 -50.572  1.00  0.00     0.011 A 
HETATM   25  C   UNL     1     -44.115  61.205 -49.494  1.00  0.00     0.037 A 
HETATM   26  C   UNL     1     -45.494  61.220 -49.703  1.00  0.00     0.068 A 
HETATM   27  C   UNL     1     -45.994  61.038 -50.993  1.00  0.00     0.037 A 
HETATM   28  C   UNL     1     -45.116  60.897 -52.072  1.00  0.00     0.011 A 
BRANCH  26  29
HETATM   29  O   UNL     1     -46.255  61.401 -48.580  1.00  0.00    -0.356 OA
HETATM   30  C   UNL     1     -45.705  60.878 -47.376  1.00  0.00     0.210 C 
ENDBRANCH  26  29
ENDBRANCH  22  23
ENDBRANCH   3  22
TORSDOF 5
ENDMDL
MODEL 6
REMARK VINA RESULT:      -8.4      2.940      5.046
REMARK  5 active torsions:
REMARK  status: ('A' for Active; 'I' for Inactive)
REMARK    1  A    between atoms: C_4  and  N_5 
REMARK       I    between atoms: N_5  and  C_6 
REMARK    2  A    between atoms: C_6  and  C_7 
REMARK    3  A    between atoms: N_9  and  C_10 
REMARK    4  A    between atoms: C_10  and  C_11 
REMARK    5  A    between atoms: C_14  and  O_15 
ROOT
HETATM    1  C   UNL     1     -43.164  55.903 -55.993  1.00  0.00     0.105 C 
HETATM    2  C   UNL     1     -42.380  57.075 -55.428  1.00  0.00     0.140 C 
HETATM    3  N   UNL     1     -42.450  58.033 -56.506  1.00  0.00    -0.347 N 
HETATM    4  C   UNL     1     -42.616  57.418 -57.733  1.00  0.00     0.221 C 
HETATM    5  O   UNL     1     -42.601  57.950 -58.830  1.00  0.00    -0.273 OA
HETATM    6  C   UNL     1     -42.822  55.944 -57.483  1.00  0.00     0.118 C 
ENDROOT
BRANCH   1   7
HETATM    7  C   UNL     1     -42.834  54.572 -55.349  1.00  0.00     0.228 C 
HETATM    8  N   UNL     1     -41.713  54.667 -54.551  1.00  0.00    -0.325 N 
HETATM    9  H   UNL     1     -41.224  55.560 -54.492  1.00  0.00     0.169 HD
HETATM   10  O   UNL     1     -43.484  53.558 -55.576  1.00  0.00    -0.273 OA
BRANCH   8  11
HETATM   11  C   UNL     1     -41.035  53.652 -53.834  1.00  0.00     0.065 A 
HETATM   12  C   UNL     1     -40.614  52.447 -54.405  1.00  0.00     0.038 A 
HETATM   13  C   UNL     1     -39.931  51.500 -53.634  1.00  0.00    -0.059 A 
HETATM   14  C   UNL     1     -39.507  50.191 -54.236  1.00  0.00     0.048 C 
HETATM   15  C   UNL     1     -39.697  51.763 -52.281  1.00  0.00     0.020 A 
HETATM   16  C   UNL     1     -40.120  52.970 -51.701  1.00  0.00    -0.005 A 
HETATM   17  C   UNL     1     -40.798  53.932 -52.477  1.00  0.00     0.093 A 
HETATM   18  C   UNL     1     -39.882  53.258 -50.350  1.00  0.00     0.015 A 
HETATM   19  N   UNL     1     -41.216  55.110 -51.951  1.00  0.00    -0.258 NA
HETATM   20  C   UNL     1     -40.967  55.349 -50.645  1.00  0.00     0.117 A 
HETATM   21  C   UNL     1     -40.311  54.466 -49.812  1.00  0.00     0.020 A 
ENDBRANCH   8  11
ENDBRANCH   1   7
BRANCH   3  22
HETATM   22  C   UNL     1     -42.234  59.454 -56.326  1.00  0.00     0.164 C 
BRANCH  22  23
HETATM   23  C   UNL     1     -42.912  60.033 -55.112  1.00  0.00    -0.040 A 
HETATM   24  C   UNL     1     -44.305  60.184 -55.078  1.00  0.00     0.011 A 
HETATM   25  C   UNL     1     -44.940  60.626 -53.915  1.00  0.00     0.037 A 
HETATM   26  C   UNL     1     -44.199  60.906 -52.766  1.00  0.00     0.068 A 
HETATM   27  C   UNL     1     -42.809  60.802 -52.805  1.00  0.00     0.037 A 
HETATM   28  C   UNL     1     -42.170  60.367 -53.971  1.00  0.00     0.011 A 
BRANCH  26  29
HETATM   29  O   UNL     1     -44.932  61.288 -51.675  1.00  0.00    -0.356 OA
HETATM   30  C   UNL     1     -45.058  60.311 -50.648  1.00  0.00     0.210 C 
ENDBRANCH  26  29
ENDBRANCH  22  23
ENDBRANCH   3  22
TORSDOF 5
ENDMDL
MODEL 7
REMARK VINA RESULT:      -8.3      2.235      3.744
REMARK  5 active torsions:
REMARK  status: ('A' for Active; 'I' for Inactive)
REMARK    1  A    between atoms: C_4  and  N_5 
REMARK       I    between atoms: N_5  and  C_6 
REMARK    2  A    between atoms: C_6  and  C_7 
REMARK    3  A    between atoms: N_9  and  C_10 
REMARK    4  A    between atoms: C_10  and  C_11 
REMARK    5  A    between atoms: C_14  and  O_15 
ROOT
HETATM    1  C   UNL     1     -42.775  56.199 -55.947  1.00  0.00     0.105 C 
HETATM    2  C   UNL     1     -43.062  56.145 -57.439  1.00  0.00     0.140 C 
HETATM    3  N   UNL     1     -43.736  57.402 -57.662  1.00  0.00    -0.347 N 
HETATM    4  C   UNL     1     -44.369  57.858 -56.521  1.00  0.00     0.221 C 
HETATM    5  O   UNL     1     -45.104  58.827 -56.426  1.00  0.00    -0.273 OA
HETATM    6  C   UNL     1     -43.993  56.936 -55.387  1.00  0.00     0.118 C 
ENDROOT
BRANCH   1   7
HETATM    7  C   UNL     1     -42.564  54.841 -55.310  1.00  0.00     0.228 C 
HETATM    8  N   UNL     1     -41.455  54.841 -54.489  1.00  0.00    -0.325 N 
HETATM    9  H   UNL     1     -40.898  55.692 -54.412  1.00  0.00     0.169 HD
HETATM   10  O   UNL     1     -43.287  53.884 -55.558  1.00  0.00    -0.273 OA
BRANCH   8  11
HETATM   11  C   UNL     1     -40.874  53.770 -53.768  1.00  0.00     0.065 A 
HETATM   12  C   UNL     1     -40.468  52.569 -54.357  1.00  0.00     0.038 A 
HETATM   13  C   UNL     1     -39.882  51.563 -53.580  1.00  0.00    -0.059 A 
HETATM   14  C   UNL     1     -39.475  50.259 -54.203  1.00  0.00     0.048 C 
HETATM   15  C   UNL     1     -39.732  51.765 -52.204  1.00  0.00     0.020 A 
HETATM   16  C   UNL     1     -40.141  52.968 -51.607  1.00  0.00    -0.005 A 
HETATM   17  C   UNL     1     -40.720  53.988 -52.388  1.00  0.00     0.093 A 
HETATM   18  C   UNL     1     -39.985  53.195 -50.233  1.00  0.00     0.015 A 
HETATM   19  N   UNL     1     -41.122  55.165 -51.845  1.00  0.00    -0.258 NA
HETATM   20  C   UNL     1     -40.954  55.344 -50.517  1.00  0.00     0.117 A 
HETATM   21  C   UNL     1     -40.397  54.401 -49.677  1.00  0.00     0.020 A 
ENDBRANCH   8  11
ENDBRANCH   1   7
BRANCH   3  22
HETATM   22  C   UNL     1     -43.843  58.029 -58.963  1.00  0.00     0.164 C 
BRANCH  22  23
HETATM   23  C   UNL     1     -42.867  59.155 -59.187  1.00  0.00    -0.040 A 
HETATM   24  C   UNL     1     -42.668  59.680 -60.471  1.00  0.00     0.011 A 
HETATM   25  C   UNL     1     -41.839  60.788 -60.661  1.00  0.00     0.037 A 
HETATM   26  C   UNL     1     -41.212  61.398 -59.575  1.00  0.00     0.068 A 
HETATM   27  C   UNL     1     -41.368  60.855 -58.300  1.00  0.00     0.037 A 
HETATM   28  C   UNL     1     -42.191  59.740 -58.108  1.00  0.00     0.011 A 
BRANCH  26  29
HETATM   29  O   UNL     1     -40.461  62.502 -59.876  1.00  0.00    -0.356 OA
HETATM   30  C   UNL     1     -41.160  63.563 -60.517  1.00  0.00     0.210 C 
ENDBRANCH  26  29
ENDBRANCH  22  23
ENDBRANCH   3  22
TORSDOF 5
ENDMDL
MODEL 8
REMARK VINA RESULT:      -7.9      2.686      9.089
REMARK  5 active torsions:
REMARK  status: ('A' for Active; 'I' for Inactive)
REMARK    1  A    between atoms: C_4  and  N_5 
REMARK       I    between atoms: N_5  and  C_6 
REMARK    2  A    between atoms: C_6  and  C_7 
REMARK    3  A    between atoms: N_9  and  C_10 
REMARK    4  A    between atoms: C_10  and  C_11 
REMARK    5  A    between atoms: C_14  and  O_15 
ROOT
HETATM    1  C   UNL     1     -43.409  57.657 -53.757  1.00  0.00     0.105 C 
HETATM    2  C   UNL     1     -43.170  56.310 -53.095  1.00  0.00     0.140 C 
HETATM    3  N   UNL     1     -42.182  56.636 -52.094  1.00  0.00    -0.347 N 
HETATM    4  C   UNL     1     -41.431  57.740 -52.451  1.00  0.00     0.221 C 
HETATM    5  O   UNL     1     -40.459  58.188 -51.867  1.00  0.00    -0.273 OA
HETATM    6  C   UNL     1     -42.027  58.313 -53.713  1.00  0.00     0.118 C 
ENDROOT
BRANCH   1   7
HETATM    7  C   UNL     1     -43.973  57.565 -55.159  1.00  0.00     0.228 C 
HETATM    8  N   UNL     1     -42.997  57.213 -56.069  1.00  0.00    -0.325 N 
HETATM    9  H   UNL     1     -42.040  57.082 -55.740  1.00  0.00     0.169 HD
HETATM   10  O   UNL     1     -45.144  57.823 -55.410  1.00  0.00    -0.273 OA
BRANCH   8  11
HETATM   11  C   UNL     1     -43.087  57.088 -57.476  1.00  0.00     0.065 A 
HETATM   12  C   UNL     1     -43.590  55.955 -58.123  1.00  0.00     0.038 A 
HETATM   13  C   UNL     1     -43.666  55.914 -59.520  1.00  0.00    -0.059 A 
HETATM   14  C   UNL     1     -44.174  54.687 -60.220  1.00  0.00     0.048 C 
HETATM   15  C   UNL     1     -43.209  57.010 -60.260  1.00  0.00     0.020 A 
HETATM   16  C   UNL     1     -42.701  58.149 -59.615  1.00  0.00    -0.005 A 
HETATM   17  C   UNL     1     -42.634  58.198 -58.208  1.00  0.00     0.093 A 
HETATM   18  C   UNL     1     -42.253  59.263 -60.338  1.00  0.00     0.015 A 
HETATM   19  N   UNL     1     -42.154  59.284 -57.552  1.00  0.00    -0.258 NA
HETATM   20  C   UNL     1     -41.731  60.337 -58.286  1.00  0.00     0.117 A 
HETATM   21  C   UNL     1     -41.760  60.375 -59.665  1.00  0.00     0.020 A 
ENDBRANCH   8  11
ENDBRANCH   1   7
BRANCH   3  22
HETATM   22  C   UNL     1     -41.927  55.816 -50.928  1.00  0.00     0.164 C 
BRANCH  22  23
HETATM   23  C   UNL     1     -41.183  54.539 -51.222  1.00  0.00    -0.040 A 
HETATM   24  C   UNL     1     -40.825  53.669 -50.184  1.00  0.00     0.011 A 
HETATM   25  C   UNL     1     -40.225  52.440 -50.467  1.00  0.00     0.037 A 
HETATM   26  C   UNL     1     -39.991  52.053 -51.787  1.00  0.00     0.068 A 
HETATM   27  C   UNL     1     -40.303  52.932 -52.824  1.00  0.00     0.037 A 
HETATM   28  C   UNL     1     -40.896  54.167 -52.542  1.00  0.00     0.011 A 
BRANCH  26  29
HETATM   29  O   UNL     1     -39.441  50.810 -51.946  1.00  0.00    -0.356 OA
HETATM   30  C   UNL     1     -39.608  49.921 -50.847  1.00  0.00     0.210 C 
ENDBRANCH  26  29
ENDBRANCH  22  23
ENDBRANCH   3  22
TORSDOF 5
ENDMDL
MODEL 9
REMARK VINA RESULT:      -7.7      6.191      9.150
REMARK  5 active torsions:
REMARK  status: ('A' for Active; 'I' for Inactive)
REMARK    1  A    between atoms: C_4  and  N_5 
REMARK       I    between atoms: N_5  and  C_6 
REMARK    2  A    between atoms: C_6  and  C_7 
REMARK    3  A    between atoms: N_9  and  C_10 
REMARK    4  A    between atoms: C_10  and  C_11 
REMARK    5  A    between atoms: C_14  and  O_15 
ROOT
HETATM    1  C   UNL     1     -43.409  59.118 -51.199  1.00  0.00     0.105 C 
HETATM    2  C   UNL     1     -43.082  60.601 -51.150  1.00  0.00     0.140 C 
HETATM    3  N   UNL     1     -44.393  61.197 -51.047  1.00  0.00    -0.347 N 
HETATM    4  C   UNL     1     -45.371  60.389 -51.598  1.00  0.00     0.221 C 
HETATM    5  O   UNL     1     -46.548  60.664 -51.757  1.00  0.00    -0.273 OA
HETATM    6  C   UNL     1     -44.724  59.080 -51.979  1.00  0.00     0.118 C 
ENDROOT
BRANCH   1   7
HETATM    7  C   UNL     1     -42.325  58.268 -51.829  1.00  0.00     0.228 C 
HETATM    8  N   UNL     1     -42.621  56.924 -51.727  1.00  0.00    -0.325 N 
HETATM    9  H   UNL     1     -43.474  56.642 -51.244  1.00  0.00     0.169 HD
HETATM   10  O   UNL     1     -41.312  58.756 -52.315  1.00  0.00    -0.273 OA
BRANCH   8  11
HETATM   11  C   UNL     1     -41.849  55.804 -52.121  1.00  0.00     0.065 A 
HETATM   12  C   UNL     1     -41.584  55.474 -53.454  1.00  0.00     0.038 A 
HETATM   13  C   UNL     1     -40.795  54.361 -53.763  1.00  0.00    -0.059 A 
HETATM   14  C   UNL     1     -40.536  53.984 -55.193  1.00  0.00     0.048 C 
HETATM   15  C   UNL     1     -40.296  53.569 -52.723  1.00  0.00     0.020 A 
HETATM   16  C   UNL     1     -40.561  53.895 -51.383  1.00  0.00    -0.005 A 
HETATM   17  C   UNL     1     -41.346  55.022 -51.067  1.00  0.00     0.093 A 
HETATM   18  C   UNL     1     -40.057  53.123 -50.327  1.00  0.00     0.015 A 
HETATM   19  N   UNL     1     -41.618  55.368 -49.784  1.00  0.00    -0.258 NA
HETATM   20  C   UNL     1     -41.113  54.598 -48.796  1.00  0.00     0.117 A 
HETATM   21  C   UNL     1     -40.337  53.478 -49.013  1.00  0.00     0.020 A 
ENDBRANCH   8  11
ENDBRANCH   1   7
BRANCH   3  22
HETATM   22  C   UNL     1     -44.625  62.536 -50.549  1.00  0.00     0.164 C 
BRANCH  22  23
HETATM   23  C   UNL     1     -44.739  62.627 -49.049  1.00  0.00    -0.040 A 
HETATM   24  C   UNL     1     -44.788  63.874 -48.413  1.00  0.00     0.011 A 
HETATM   25  C   UNL     1     -44.994  63.956 -47.034  1.00  0.00     0.037 A 
HETATM   26  C   UNL     1     -45.172  62.800 -46.274  1.00  0.00     0.068 A 
HETATM   27  C   UNL     1     -45.080  61.553 -46.892  1.00  0.00     0.037 A 
HETATM   28  C   UNL     1     -44.865  61.468 -48.272  1.00  0.00     0.011 A 
BRANCH  26  29
HETATM   29  O   UNL     1     -45.411  63.004 -44.942  1.00  0.00    -0.356 OA
HETATM   30  C   UNL     1     -46.098  64.209 -44.621  1.00  0.00     0.210 C 
ENDBRANCH  26  29
ENDBRANCH  22  23
ENDBRANCH   3  22
TORSDOF 5
ENDMDL
MODEL 10
REMARK VINA RESULT:      -7.6      2.746      9.395
REMARK  5 active torsions:
REMARK  status: ('A' for Active; 'I' for Inactive)
REMARK    1  A    between atoms: C_4  and  N_5 
REMARK       I    between atoms: N_5  and  C_6 
REMARK    2  A    between atoms: C_6  and  C_7 
REMARK    3  A    between atoms: N_9  and  C_10 
REMARK    4  A    between atoms: C_10  and  C_11 
REMARK    5  A    between atoms: C_14  and  O_15 
ROOT
HETATM    1  C   UNL     1     -43.657  56.649 -53.931  1.00  0.00     0.105 C 
HETATM    2  C   UNL     1     -42.194  56.840 -53.566  1.00  0.00     0.140 C 
HETATM    3  N   UNL     1     -42.072  56.034 -52.373  1.00  0.00    -0.347 N 
HETATM    4  C   UNL     1     -43.279  55.912 -51.709  1.00  0.00     0.221 C 
HETATM    5  O   UNL     1     -43.470  55.388 -50.625  1.00  0.00    -0.273 OA
HETATM    6  C   UNL     1     -44.343  56.550 -52.567  1.00  0.00     0.118 C 
ENDROOT
BRANCH   1   7
HETATM    7  C   UNL     1     -44.225  57.754 -54.797  1.00  0.00     0.228 C 
HETATM    8  N   UNL     1     -44.508  57.297 -56.068  1.00  0.00    -0.325 N 
HETATM    9  H   UNL     1     -44.297  56.327 -56.302  1.00  0.00     0.169 HD
HETATM   10  O   UNL     1     -44.355  58.902 -54.389  1.00  0.00    -0.273 OA
BRANCH   8  11
HETATM   11  C   UNL     1     -44.981  58.014 -57.193  1.00  0.00     0.065 A 
HETATM   12  C   UNL     1     -46.269  58.552 -57.285  1.00  0.00     0.038 A 
HETATM   13  C   UNL     1     -46.657  59.267 -58.424  1.00  0.00    -0.059 A 
HETATM   14  C   UNL     1     -48.049  59.816 -58.540  1.00  0.00     0.048 C 
HETATM   15  C   UNL     1     -45.750  59.414 -59.478  1.00  0.00     0.020 A 
HETATM   16  C   UNL     1     -44.456  58.875 -59.392  1.00  0.00    -0.005 A 
HETATM   17  C   UNL     1     -44.058  58.164 -58.241  1.00  0.00     0.093 A 
HETATM   18  C   UNL     1     -43.528  59.025 -60.431  1.00  0.00     0.015 A 
HETATM   19  N   UNL     1     -42.815  57.633 -58.123  1.00  0.00    -0.258 NA
HETATM   20  C   UNL     1     -41.950  57.800 -59.148  1.00  0.00     0.117 A 
HETATM   21  C   UNL     1     -42.255  58.480 -60.309  1.00  0.00     0.020 A 
ENDBRANCH   8  11
ENDBRANCH   1   7
BRANCH   3  22
HETATM   22  C   UNL     1     -40.809  55.535 -51.873  1.00  0.00     0.164 C 
BRANCH  22  23
HETATM   23  C   UNL     1     -40.548  54.085 -52.192  1.00  0.00    -0.040 A 
HETATM   24  C   UNL     1     -40.672  53.612 -53.504  1.00  0.00     0.011 A 
HETATM   25  C   UNL     1     -40.333  52.293 -53.815  1.00  0.00     0.037 A 
HETATM   26  C   UNL     1     -39.849  51.434 -52.827  1.00  0.00     0.068 A 
HETATM   27  C   UNL     1     -39.765  51.884 -51.509  1.00  0.00     0.037 A 
HETATM   28  C   UNL     1     -40.112  53.202 -51.195  1.00  0.00     0.011 A 
BRANCH  26  29
HETATM   29  O   UNL     1     -39.507  50.181 -53.256  1.00  0.00    -0.356 OA
HETATM   30  C   UNL     1     -39.831  49.886 -54.611  1.00  0.00     0.210 C 
ENDBRANCH  26  29
ENDBRANCH  22  23
ENDBRANCH   3  22
TORSDOF 5
ENDMDL
