MODEL 1
REMARK VINA RESULT:      -7.3      0.000      0.000
REMARK  4 active torsions:
REMARK  status: ('A' for Active; 'I' for Inactive)
REMARK    1  A    between atoms: C_2  and  N_3 
REMARK    2  A    between atoms: C_2  and  C_13 
REMARK       I    between atoms: N_3  and  C_4 
REMARK    3  A    between atoms: C_4  and  C_5 
REMARK    4  A    between atoms: C_6  and  C_7 
ROOT
HETATM    1  C   UNL     1     -41.529  56.091 -52.453  1.00  0.00     0.040 C 
HETATM    2  C   UNL     1     -40.983  55.472 -53.738  1.00  0.00     0.150 C 
ENDROOT
BRANCH   2   3
HETATM    3  N   UNL     1     -41.973  55.495 -54.795  1.00  0.00    -0.346 N 
HETATM    4  C   UNL     1     -42.277  56.636 -55.483  1.00  0.00     0.241 C 
HETATM    5  O   UNL     1     -41.719  57.711 -55.304  1.00  0.00    -0.269 OA
HETATM    6  H   UNL     1     -42.479  54.628 -54.945  1.00  0.00     0.163 HD
BRANCH   4   7
HETATM    7  C   UNL     1     -43.362  56.445 -56.474  1.00  0.00     0.075 C 
HETATM    8  C   UNL     1     -43.055  56.184 -57.755  1.00  0.00     0.017 C 
BRANCH   8   9
HETATM    9  C   UNL     1     -43.990  55.984 -58.822  1.00  0.00    -0.029 A 
HETATM   10  C   UNL     1     -44.950  56.929 -59.128  1.00  0.00     0.061 A 
HETATM   11  S   UNL     1     -45.945  56.456 -60.438  1.00  0.00    -0.113 SA
HETATM   12  C   UNL     1     -45.097  54.982 -60.615  1.00  0.00     0.050 A 
HETATM   13  C   UNL     1     -44.080  54.854 -59.692  1.00  0.00     0.019 A 
ENDBRANCH   8   9
ENDBRANCH   4   7
ENDBRANCH   2   3
BRANCH   2  14
HETATM   14  C   UNL     1     -40.615  54.035 -53.515  1.00  0.00     0.127 A 
HETATM   15  N   UNL     1     -40.545  53.086 -54.432  1.00  0.00    -0.231 NA
HETATM   16  C   UNL     1     -40.188  51.946 -53.753  1.00  0.00     0.085 A 
HETATM   17  C   UNL     1     -40.027  52.204 -52.397  1.00  0.00     0.062 A 
HETATM   18  C   UNL     1     -39.982  50.643 -54.232  1.00  0.00     0.034 A 
HETATM   19  N   UNL     1     -40.295  53.543 -52.273  1.00  0.00    -0.341 N 
HETATM   20  C   UNL     1     -39.668  51.226 -51.467  1.00  0.00     0.032 A 
HETATM   21  H   UNL     1     -40.268  54.074 -51.414  1.00  0.00     0.167 HD
HETATM   22  C   UNL     1     -39.470  49.931 -51.962  1.00  0.00     0.002 A 
HETATM   23  C   UNL     1     -39.624  49.642 -53.320  1.00  0.00     0.002 A 
ENDBRANCH   2  14
TORSDOF 4
ENDMDL
MODEL 2
REMARK VINA RESULT:      -7.1      1.192      1.974
REMARK  4 active torsions:
REMARK  status: ('A' for Active; 'I' for Inactive)
REMARK    1  A    between atoms: C_2  and  N_3 
REMARK    2  A    between atoms: C_2  and  C_13 
REMARK       I    between atoms: N_3  and  C_4 
REMARK    3  A    between atoms: C_4  and  C_5 
REMARK    4  A    between atoms: C_6  and  C_7 
ROOT
HETATM    1  C   UNL     1     -41.908  55.491 -50.757  1.00  0.00     0.040 C 
HETATM    2  C   UNL     1     -41.055  55.363 -52.017  1.00  0.00     0.150 C 
ENDROOT
BRANCH   2   3
HETATM    3  N   UNL     1     -41.778  55.809 -53.190  1.00  0.00    -0.346 N 
HETATM    4  C   UNL     1     -41.469  56.972 -53.838  1.00  0.00     0.241 C 
HETATM    5  O   UNL     1     -40.542  57.707 -53.518  1.00  0.00    -0.269 OA
HETATM    6  H   UNL     1     -42.574  55.240 -53.460  1.00  0.00     0.163 HD
BRANCH   4   7
HETATM    7  C   UNL     1     -42.377  57.265 -54.971  1.00  0.00     0.075 C 
HETATM    8  C   UNL     1     -42.412  56.434 -56.026  1.00  0.00     0.017 C 
BRANCH   8   9
HETATM    9  C   UNL     1     -43.230  56.589 -57.193  1.00  0.00    -0.029 A 
HETATM   10  C   UNL     1     -44.109  57.646 -57.324  1.00  0.00     0.061 A 
HETATM   11  S   UNL     1     -44.970  57.605 -58.803  1.00  0.00    -0.113 SA
HETATM   12  C   UNL     1     -44.170  56.175 -59.288  1.00  0.00     0.050 A 
HETATM   13  C   UNL     1     -43.269  55.737 -58.340  1.00  0.00     0.019 A 
ENDBRANCH   8   9
ENDBRANCH   4   7
ENDBRANCH   2   3
BRANCH   2  14
HETATM   14  C   UNL     1     -40.677  53.931 -52.254  1.00  0.00     0.127 A 
HETATM   15  N   UNL     1     -40.253  53.066 -51.348  1.00  0.00    -0.231 NA
HETATM   16  C   UNL     1     -40.021  51.899 -52.037  1.00  0.00     0.085 A 
HETATM   17  C   UNL     1     -40.318  52.050 -53.386  1.00  0.00     0.062 A 
HETATM   18  C   UNL     1     -39.552  50.662 -51.573  1.00  0.00     0.034 A 
HETATM   19  N   UNL     1     -40.743  53.349 -53.496  1.00  0.00    -0.341 N 
HETATM   20  C   UNL     1     -40.172  51.025 -54.323  1.00  0.00     0.032 A 
HETATM   21  H   UNL     1     -41.045  53.802 -54.347  1.00  0.00     0.167 HD
HETATM   22  C   UNL     1     -39.699  49.798 -53.843  1.00  0.00     0.002 A 
HETATM   23  C   UNL     1     -39.394  49.616 -52.491  1.00  0.00     0.002 A 
ENDBRANCH   2  14
TORSDOF 4
ENDMDL
MODEL 3
REMARK VINA RESULT:      -7.1      3.179      4.005
REMARK  4 active torsions:
REMARK  status: ('A' for Active; 'I' for Inactive)
REMARK    1  A    between atoms: C_2  and  N_3 
REMARK    2  A    between atoms: C_2  and  C_13 
REMARK       I    between atoms: N_3  and  C_4 
REMARK    3  A    between atoms: C_4  and  C_5 
REMARK    4  A    between atoms: C_6  and  C_7 
ROOT
HETATM    1  C   UNL     1     -41.102  54.679 -48.916  1.00  0.00     0.040 C 
HETATM    2  C   UNL     1     -40.551  54.990 -50.306  1.00  0.00     0.150 C 
ENDROOT
BRANCH   2   3
HETATM    3  N   UNL     1     -41.475  55.803 -51.069  1.00  0.00    -0.346 N 
HETATM    4  C   UNL     1     -41.386  57.166 -51.105  1.00  0.00     0.241 C 
HETATM    5  O   UNL     1     -40.508  57.809 -50.543  1.00  0.00    -0.269 OA
HETATM    6  H   UNL     1     -42.236  55.304 -51.517  1.00  0.00     0.163 HD
BRANCH   4   7
HETATM    7  C   UNL     1     -42.471  57.799 -51.892  1.00  0.00     0.075 C 
HETATM    8  C   UNL     1     -42.655  57.443 -53.174  1.00  0.00     0.017 C 
BRANCH   8   9
HETATM    9  C   UNL     1     -43.653  57.969 -54.059  1.00  0.00    -0.029 A 
HETATM   10  C   UNL     1     -43.703  59.313 -54.373  1.00  0.00     0.061 A 
HETATM   11  S   UNL     1     -44.983  59.690 -55.445  1.00  0.00    -0.113 SA
HETATM   12  C   UNL     1     -45.481  58.056 -55.505  1.00  0.00     0.050 A 
HETATM   13  C   UNL     1     -44.690  57.243 -54.722  1.00  0.00     0.019 A 
ENDBRANCH   8   9
ENDBRANCH   4   7
ENDBRANCH   2   3
BRANCH   2  14
HETATM   14  C   UNL     1     -40.338  53.725 -51.083  1.00  0.00     0.127 A 
HETATM   15  N   UNL     1     -40.008  52.542 -50.592  1.00  0.00    -0.231 NA
HETATM   16  C   UNL     1     -39.913  51.707 -51.680  1.00  0.00     0.085 A 
HETATM   17  C   UNL     1     -40.199  52.389 -52.857  1.00  0.00     0.062 A 
HETATM   18  C   UNL     1     -39.583  50.345 -51.739  1.00  0.00     0.034 A 
HETATM   19  N   UNL     1     -40.476  53.668 -52.449  1.00  0.00    -0.341 N 
HETATM   20  C   UNL     1     -40.174  51.788 -54.117  1.00  0.00     0.032 A 
HETATM   21  H   UNL     1     -40.730  54.438 -53.050  1.00  0.00     0.167 HD
HETATM   22  C   UNL     1     -39.840  50.428 -54.158  1.00  0.00     0.002 A 
HETATM   23  C   UNL     1     -39.549  49.717 -52.991  1.00  0.00     0.002 A 
ENDBRANCH   2  14
TORSDOF 4
ENDMDL
MODEL 4
REMARK VINA RESULT:      -7.1      3.196      7.751
REMARK  4 active torsions:
REMARK  status: ('A' for Active; 'I' for Inactive)
REMARK    1  A    between atoms: C_2  and  N_3 
REMARK    2  A    between atoms: C_2  and  C_13 
REMARK       I    between atoms: N_3  and  C_4 
REMARK    3  A    between atoms: C_4  and  C_5 
REMARK    4  A    between atoms: C_6  and  C_7 
ROOT
HETATM    1  C   UNL     1     -42.269  59.073 -56.394  1.00  0.00     0.040 C 
HETATM    2  C   UNL     1     -43.140  57.880 -56.006  1.00  0.00     0.150 C 
ENDROOT
BRANCH   2   3
HETATM    3  N   UNL     1     -42.370  56.870 -55.310  1.00  0.00    -0.346 N 
HETATM    4  C   UNL     1     -42.883  56.155 -54.265  1.00  0.00     0.241 C 
HETATM    5  O   UNL     1     -44.032  56.269 -53.857  1.00  0.00    -0.269 OA
HETATM    6  H   UNL     1     -41.402  56.776 -55.600  1.00  0.00     0.163 HD
BRANCH   4   7
HETATM    7  C   UNL     1     -41.901  55.223 -53.661  1.00  0.00     0.075 C 
HETATM    8  C   UNL     1     -41.825  53.959 -54.106  1.00  0.00     0.017 C 
BRANCH   8   9
HETATM    9  C   UNL     1     -40.935  52.946 -53.619  1.00  0.00    -0.029 A 
HETATM   10  C   UNL     1     -40.511  52.929 -52.304  1.00  0.00     0.061 A 
HETATM   11  S   UNL     1     -39.455  51.625 -51.971  1.00  0.00    -0.113 SA
HETATM   12  C   UNL     1     -39.558  51.063 -53.582  1.00  0.00     0.050 A 
HETATM   13  C   UNL     1     -40.378  51.856 -54.356  1.00  0.00     0.019 A 
ENDBRANCH   8   9
ENDBRANCH   4   7
ENDBRANCH   2   3
BRANCH   2  14
HETATM   14  C   UNL     1     -43.714  57.228 -57.228  1.00  0.00     0.127 A 
HETATM   15  N   UNL     1     -43.144  56.290 -57.966  1.00  0.00    -0.231 NA
HETATM   16  C   UNL     1     -44.038  56.023 -58.975  1.00  0.00     0.085 A 
HETATM   17  C   UNL     1     -45.181  56.804 -58.847  1.00  0.00     0.062 A 
HETATM   18  C   UNL     1     -43.940  55.121 -60.044  1.00  0.00     0.034 A 
HETATM   19  N   UNL     1     -44.954  57.554 -57.722  1.00  0.00    -0.341 N 
HETATM   20  C   UNL     1     -46.255  56.743 -59.737  1.00  0.00     0.032 A 
HETATM   21  H   UNL     1     -45.587  58.235 -57.329  1.00  0.00     0.167 HD
HETATM   22  C   UNL     1     -46.139  55.839 -60.800  1.00  0.00     0.002 A 
HETATM   23  C   UNL     1     -45.002  55.041 -60.954  1.00  0.00     0.002 A 
ENDBRANCH   2  14
TORSDOF 4
ENDMDL
MODEL 5
REMARK VINA RESULT:      -7.0      4.697      5.338
REMARK  4 active torsions:
REMARK  status: ('A' for Active; 'I' for Inactive)
REMARK    1  A    between atoms: C_2  and  N_3 
REMARK    2  A    between atoms: C_2  and  C_13 
REMARK       I    between atoms: N_3  and  C_4 
REMARK    3  A    between atoms: C_4  and  C_5 
REMARK    4  A    between atoms: C_6  and  C_7 
ROOT
HETATM    1  C   UNL     1     -40.858  54.525 -48.830  1.00  0.00     0.040 C 
HETATM    2  C   UNL     1     -40.550  54.994 -50.251  1.00  0.00     0.150 C 
ENDROOT
BRANCH   2   3
HETATM    3  N   UNL     1     -41.641  55.777 -50.794  1.00  0.00    -0.346 N 
HETATM    4  C   UNL     1     -41.550  57.129 -50.968  1.00  0.00     0.241 C 
HETATM    5  O   UNL     1     -40.543  57.783 -50.726  1.00  0.00    -0.269 OA
HETATM    6  H   UNL     1     -42.503  55.270 -50.972  1.00  0.00     0.163 HD
BRANCH   4   7
HETATM    7  C   UNL     1     -42.804  57.735 -51.475  1.00  0.00     0.075 C 
HETATM    8  C   UNL     1     -43.058  59.032 -51.237  1.00  0.00     0.017 C 
BRANCH   8   9
HETATM    9  C   UNL     1     -44.224  59.753 -51.656  1.00  0.00    -0.029 A 
HETATM   10  C   UNL     1     -44.974  60.494 -50.763  1.00  0.00     0.061 A 
HETATM   11  S   UNL     1     -46.315  61.256 -51.506  1.00  0.00    -0.113 SA
HETATM   12  C   UNL     1     -45.902  60.608 -53.033  1.00  0.00     0.050 A 
HETATM   13  C   UNL     1     -44.769  59.825 -52.975  1.00  0.00     0.019 A 
ENDBRANCH   8   9
ENDBRANCH   4   7
ENDBRANCH   2   3
BRANCH   2  14
HETATM   14  C   UNL     1     -40.359  53.818 -51.163  1.00  0.00     0.127 A 
HETATM   15  N   UNL     1     -40.539  53.797 -52.472  1.00  0.00    -0.231 NA
HETATM   16  C   UNL     1     -40.259  52.508 -52.859  1.00  0.00     0.085 A 
HETATM   17  C   UNL     1     -39.890  51.730 -51.769  1.00  0.00     0.062 A 
HETATM   18  C   UNL     1     -40.299  51.926 -54.135  1.00  0.00     0.034 A 
HETATM   19  N   UNL     1     -39.952  52.590 -50.703  1.00  0.00    -0.341 N 
HETATM   20  C   UNL     1     -39.554  50.378 -51.870  1.00  0.00     0.032 A 
HETATM   21  H   UNL     1     -39.742  52.357 -49.743  1.00  0.00     0.167 HD
HETATM   22  C   UNL     1     -39.602  49.813 -53.150  1.00  0.00     0.002 A 
HETATM   23  C   UNL     1     -39.969  50.571 -54.265  1.00  0.00     0.002 A 
ENDBRANCH   2  14
TORSDOF 4
ENDMDL
MODEL 6
REMARK VINA RESULT:      -6.8      3.200      7.397
REMARK  4 active torsions:
REMARK  status: ('A' for Active; 'I' for Inactive)
REMARK    1  A    between atoms: C_2  and  N_3 
REMARK    2  A    between atoms: C_2  and  C_13 
REMARK       I    between atoms: N_3  and  C_4 
REMARK    3  A    between atoms: C_4  and  C_5 
REMARK    4  A    between atoms: C_6  and  C_7 
ROOT
HETATM    1  C   UNL     1     -42.576  58.453 -53.481  1.00  0.00     0.040 C 
HETATM    2  C   UNL     1     -43.216  57.181 -54.034  1.00  0.00     0.150 C 
ENDROOT
BRANCH   2   3
HETATM    3  N   UNL     1     -42.614  55.996 -53.458  1.00  0.00    -0.346 N 
HETATM    4  C   UNL     1     -41.286  55.709 -53.604  1.00  0.00     0.241 C 
HETATM    5  O   UNL     1     -40.490  56.435 -54.187  1.00  0.00    -0.269 OA
HETATM    6  H   UNL     1     -43.254  55.355 -52.999  1.00  0.00     0.163 HD
BRANCH   4   7
HETATM    7  C   UNL     1     -40.900  54.417 -52.990  1.00  0.00     0.075 C 
HETATM    8  C   UNL     1     -40.553  53.385 -53.777  1.00  0.00     0.017 C 
BRANCH   8   9
HETATM    9  C   UNL     1     -40.165  52.079 -53.331  1.00  0.00    -0.029 A 
HETATM   10  C   UNL     1     -39.811  51.840 -52.017  1.00  0.00     0.061 A 
HETATM   11  S   UNL     1     -39.386  50.206 -51.738  1.00  0.00    -0.113 SA
HETATM   12  C   UNL     1     -39.677  49.798 -53.373  1.00  0.00     0.050 A 
HETATM   13  C   UNL     1     -40.086  50.886 -54.114  1.00  0.00     0.019 A 
ENDBRANCH   8   9
ENDBRANCH   4   7
ENDBRANCH   2   3
BRANCH   2  14
HETATM   14  C   UNL     1     -43.018  57.095 -55.518  1.00  0.00     0.127 A 
HETATM   15  N   UNL     1     -43.390  56.103 -56.308  1.00  0.00    -0.231 NA
HETATM   16  C   UNL     1     -42.983  56.467 -57.570  1.00  0.00     0.085 A 
HETATM   17  C   UNL     1     -42.359  57.708 -57.552  1.00  0.00     0.062 A 
HETATM   18  C   UNL     1     -43.112  55.781 -58.786  1.00  0.00     0.034 A 
HETATM   19  N   UNL     1     -42.403  58.091 -56.237  1.00  0.00    -0.341 N 
HETATM   20  C   UNL     1     -41.843  58.323 -58.695  1.00  0.00     0.032 A 
HETATM   21  H   UNL     1     -42.039  58.955 -55.861  1.00  0.00     0.167 HD
HETATM   22  C   UNL     1     -41.978  57.623 -59.900  1.00  0.00     0.002 A 
HETATM   23  C   UNL     1     -42.601  56.373 -59.948  1.00  0.00     0.002 A 
ENDBRANCH   2  14
TORSDOF 4
ENDMDL
MODEL 7
REMARK VINA RESULT:      -6.8      3.074      7.541
REMARK  4 active torsions:
REMARK  status: ('A' for Active; 'I' for Inactive)
REMARK    1  A    between atoms: C_2  and  N_3 
REMARK    2  A    between atoms: C_2  and  C_13 
REMARK       I    between atoms: N_3  and  C_4 
REMARK    3  A    between atoms: C_4  and  C_5 
REMARK    4  A    between atoms: C_6  and  C_7 
ROOT
HETATM    1  C   UNL     1     -42.176  58.442 -53.812  1.00  0.00     0.040 C 
HETATM    2  C   UNL     1     -42.972  57.261 -54.363  1.00  0.00     0.150 C 
ENDROOT
BRANCH   2   3
HETATM    3  N   UNL     1     -42.430  56.000 -53.902  1.00  0.00    -0.346 N 
HETATM    4  C   UNL     1     -42.784  55.452 -52.701  1.00  0.00     0.241 C 
HETATM    5  O   UNL     1     -43.608  55.945 -51.940  1.00  0.00    -0.269 OA
HETATM    6  H   UNL     1     -41.718  55.583 -54.492  1.00  0.00     0.163 HD
BRANCH   4   7
HETATM    7  C   UNL     1     -42.061  54.193 -52.401  1.00  0.00     0.075 C 
HETATM    8  C   UNL     1     -41.301  53.622 -53.349  1.00  0.00     0.017 C 
BRANCH   8   9
HETATM    9  C   UNL     1     -40.552  52.408 -53.211  1.00  0.00    -0.029 A 
HETATM   10  C   UNL     1     -40.421  51.516 -54.258  1.00  0.00     0.061 A 
HETATM   11  S   UNL     1     -39.484  50.146 -53.841  1.00  0.00    -0.113 SA
HETATM   12  C   UNL     1     -39.238  50.733 -52.255  1.00  0.00     0.050 A 
HETATM   13  C   UNL     1     -39.859  51.946 -52.049  1.00  0.00     0.019 A 
ENDBRANCH   8   9
ENDBRANCH   4   7
ENDBRANCH   2   3
BRANCH   2  14
HETATM   14  C   UNL     1     -42.913  57.240 -55.862  1.00  0.00     0.127 A 
HETATM   15  N   UNL     1     -42.382  58.164 -56.645  1.00  0.00    -0.231 NA
HETATM   16  C   UNL     1     -42.581  57.715 -57.928  1.00  0.00     0.085 A 
HETATM   17  C   UNL     1     -43.235  56.489 -57.931  1.00  0.00     0.062 A 
HETATM   18  C   UNL     1     -42.227  58.306 -59.150  1.00  0.00     0.034 A 
HETATM   19  N   UNL     1     -43.427  56.204 -56.603  1.00  0.00    -0.341 N 
HETATM   20  C   UNL     1     -43.569  55.800 -59.099  1.00  0.00     0.032 A 
HETATM   21  H   UNL     1     -43.875  55.378 -56.235  1.00  0.00     0.167 HD
HETATM   22  C   UNL     1     -43.211  56.407 -60.309  1.00  0.00     0.002 A 
HETATM   23  C   UNL     1     -42.552  57.638 -60.337  1.00  0.00     0.002 A 
ENDBRANCH   2  14
TORSDOF 4
ENDMDL
MODEL 8
REMARK VINA RESULT:      -6.7      3.242      4.236
REMARK  4 active torsions:
REMARK  status: ('A' for Active; 'I' for Inactive)
REMARK    1  A    between atoms: C_2  and  N_3 
REMARK    2  A    between atoms: C_2  and  C_13 
REMARK       I    between atoms: N_3  and  C_4 
REMARK    3  A    between atoms: C_4  and  C_5 
REMARK    4  A    between atoms: C_6  and  C_7 
ROOT
HETATM    1  C   UNL     1     -40.894  54.430 -48.740  1.00  0.00     0.040 C 
HETATM    2  C   UNL     1     -40.446  54.903 -50.122  1.00  0.00     0.150 C 
ENDROOT
BRANCH   2   3
HETATM    3  N   UNL     1     -41.434  55.775 -50.725  1.00  0.00    -0.346 N 
HETATM    4  C   UNL     1     -42.766  55.473 -50.727  1.00  0.00     0.241 C 
HETATM    5  O   UNL     1     -43.243  54.480 -50.191  1.00  0.00    -0.269 OA
HETATM    6  H   UNL     1     -41.067  56.588 -51.210  1.00  0.00     0.163 HD
BRANCH   4   7
HETATM    7  C   UNL     1     -43.587  56.470 -51.456  1.00  0.00     0.075 C 
HETATM    8  C   UNL     1     -43.411  56.637 -52.776  1.00  0.00     0.017 C 
BRANCH   8   9
HETATM    9  C   UNL     1     -44.120  57.562 -53.610  1.00  0.00    -0.029 A 
HETATM   10  C   UNL     1     -44.419  57.265 -54.926  1.00  0.00     0.061 A 
HETATM   11  S   UNL     1     -45.267  58.530 -55.708  1.00  0.00    -0.113 SA
HETATM   12  C   UNL     1     -45.249  59.487 -54.292  1.00  0.00     0.050 A 
HETATM   13  C   UNL     1     -44.607  58.856 -53.247  1.00  0.00     0.019 A 
ENDBRANCH   8   9
ENDBRANCH   4   7
ENDBRANCH   2   3
BRANCH   2  14
HETATM   14  C   UNL     1     -40.269  53.736 -51.046  1.00  0.00     0.127 A 
HETATM   15  N   UNL     1     -40.400  53.743 -52.362  1.00  0.00    -0.231 NA
HETATM   16  C   UNL     1     -40.159  52.450 -52.761  1.00  0.00     0.085 A 
HETATM   17  C   UNL     1     -39.866  51.639 -51.670  1.00  0.00     0.062 A 
HETATM   18  C   UNL     1     -40.174  51.890 -54.047  1.00  0.00     0.034 A 
HETATM   19  N   UNL     1     -39.933  52.484 -50.593  1.00  0.00    -0.341 N 
HETATM   20  C   UNL     1     -39.582  50.276 -51.782  1.00  0.00     0.032 A 
HETATM   21  H   UNL     1     -39.770  52.226 -49.630  1.00  0.00     0.167 HD
HETATM   22  C   UNL     1     -39.605  49.734 -53.073  1.00  0.00     0.002 A 
HETATM   23  C   UNL     1     -39.896  50.525 -54.188  1.00  0.00     0.002 A 
ENDBRANCH   2  14
TORSDOF 4
ENDMDL
MODEL 9
REMARK VINA RESULT:      -6.7      2.561      3.453
REMARK  4 active torsions:
REMARK  status: ('A' for Active; 'I' for Inactive)
REMARK    1  A    between atoms: C_2  and  N_3 
REMARK    2  A    between atoms: C_2  and  C_13 
REMARK       I    between atoms: N_3  and  C_4 
REMARK    3  A    between atoms: C_4  and  C_5 
REMARK    4  A    between atoms: C_6  and  C_7 
ROOT
HETATM    1  C   UNL     1     -44.121  58.482 -51.522  1.00  0.00     0.040 C 
HETATM    2  C   UNL     1     -42.716  58.288 -52.089  1.00  0.00     0.150 C 
ENDROOT
BRANCH   2   3
HETATM    3  N   UNL     1     -42.743  58.161 -53.531  1.00  0.00    -0.346 N 
HETATM    4  C   UNL     1     -41.907  58.877 -54.341  1.00  0.00     0.241 C 
HETATM    5  O   UNL     1     -41.046  59.643 -53.928  1.00  0.00    -0.269 OA
HETATM    6  H   UNL     1     -43.470  57.560 -53.908  1.00  0.00     0.163 HD
BRANCH   4   7
HETATM    7  C   UNL     1     -42.151  58.639 -55.783  1.00  0.00     0.075 C 
HETATM    8  C   UNL     1     -42.702  57.481 -56.182  1.00  0.00     0.017 C 
BRANCH   8   9
HETATM    9  C   UNL     1     -42.991  57.107 -57.535  1.00  0.00    -0.029 A 
HETATM   10  C   UNL     1     -43.195  58.055 -58.519  1.00  0.00     0.061 A 
HETATM   11  S   UNL     1     -43.525  57.356 -60.046  1.00  0.00    -0.113 SA
HETATM   12  C   UNL     1     -43.391  55.776 -59.409  1.00  0.00     0.050 A 
HETATM   13  C   UNL     1     -43.105  55.782 -58.060  1.00  0.00     0.019 A 
ENDBRANCH   8   9
ENDBRANCH   4   7
ENDBRANCH   2   3
BRANCH   2  14
HETATM   14  C   UNL     1     -42.100  57.032 -51.550  1.00  0.00     0.127 A 
HETATM   15  N   UNL     1     -41.617  56.023 -52.255  1.00  0.00    -0.231 NA
HETATM   16  C   UNL     1     -41.179  55.106 -51.330  1.00  0.00     0.085 A 
HETATM   17  C   UNL     1     -41.388  55.566 -50.035  1.00  0.00     0.062 A 
HETATM   18  C   UNL     1     -40.590  53.848 -51.524  1.00  0.00     0.034 A 
HETATM   19  N   UNL     1     -41.966  56.798 -50.203  1.00  0.00    -0.341 N 
HETATM   20  C   UNL     1     -41.040  54.837 -48.896  1.00  0.00     0.032 A 
HETATM   21  H   UNL     1     -42.250  57.423 -49.462  1.00  0.00     0.167 HD
HETATM   22  C   UNL     1     -40.455  53.582 -49.108  1.00  0.00     0.002 A 
HETATM   23  C   UNL     1     -40.233  53.094 -50.398  1.00  0.00     0.002 A 
ENDBRANCH   2  14
TORSDOF 4
ENDMDL
MODEL 10
REMARK VINA RESULT:      -6.3      2.751      3.350
REMARK  4 active torsions:
REMARK  status: ('A' for Active; 'I' for Inactive)
REMARK    1  A    between atoms: C_2  and  N_3 
REMARK    2  A    between atoms: C_2  and  C_13 
REMARK       I    between atoms: N_3  and  C_4 
REMARK    3  A    between atoms: C_4  and  C_5 
REMARK    4  A    between atoms: C_6  and  C_7 
ROOT
HETATM    1  C   UNL     1     -44.149  57.294 -52.684  1.00  0.00     0.040 C 
HETATM    2  C   UNL     1     -42.687  57.499 -53.075  1.00  0.00     0.150 C 
ENDROOT
BRANCH   2   3
HETATM    3  N   UNL     1     -42.573  58.150 -54.364  1.00  0.00    -0.346 N 
HETATM    4  C   UNL     1     -41.924  59.342 -54.523  1.00  0.00     0.241 C 
HETATM    5  O   UNL     1     -41.352  59.935 -53.617  1.00  0.00    -0.269 OA
HETATM    6  H   UNL     1     -43.066  57.702 -55.129  1.00  0.00     0.163 HD
BRANCH   4   7
HETATM    7  C   UNL     1     -41.985  59.856 -55.911  1.00  0.00     0.075 C 
HETATM    8  C   UNL     1     -41.960  58.994 -56.940  1.00  0.00     0.017 C 
BRANCH   8   9
HETATM    9  C   UNL     1     -42.005  59.339 -58.331  1.00  0.00    -0.029 A 
HETATM   10  C   UNL     1     -41.988  60.656 -58.748  1.00  0.00     0.061 A 
HETATM   11  S   UNL     1     -42.053  60.806 -60.452  1.00  0.00    -0.113 SA
HETATM   12  C   UNL     1     -42.098  59.109 -60.651  1.00  0.00     0.050 A 
HETATM   13  C   UNL     1     -42.068  58.444 -59.443  1.00  0.00     0.019 A 
ENDBRANCH   8   9
ENDBRANCH   4   7
ENDBRANCH   2   3
BRANCH   2  14
HETATM   14  C   UNL     1     -41.982  56.180 -53.186  1.00  0.00     0.127 A 
HETATM   15  N   UNL     1     -41.598  55.581 -54.301  1.00  0.00    -0.231 NA
HETATM   16  C   UNL     1     -41.016  54.402 -53.901  1.00  0.00     0.085 A 
HETATM   17  C   UNL     1     -41.034  54.282 -52.516  1.00  0.00     0.062 A 
HETATM   18  C   UNL     1     -40.447  53.377 -54.670  1.00  0.00     0.034 A 
HETATM   19  N   UNL     1     -41.645  55.431 -52.085  1.00  0.00    -0.341 N 
HETATM   20  C   UNL     1     -40.512  53.181 -51.835  1.00  0.00     0.032 A 
HETATM   21  H   UNL     1     -41.823  55.680 -51.123  1.00  0.00     0.167 HD
HETATM   22  C   UNL     1     -39.950  52.166 -52.619  1.00  0.00     0.002 A 
HETATM   23  C   UNL     1     -39.917  52.259 -54.012  1.00  0.00     0.002 A 
ENDBRANCH   2  14
TORSDOF 4
ENDMDL
