MODEL 1
REMARK VINA RESULT:      -8.5      0.000      0.000
REMARK  3 active torsions:
REMARK  status: ('A' for Active; 'I' for Inactive)
REMARK    1  A    between atoms: N_4  and  C_5 
REMARK    2  A    between atoms: C_15  and  C_16 
REMARK       I    between atoms: C_16  and  N_17 
REMARK    3  A    between atoms: N_17  and  C_18 
ROOT
HETATM    1  C   UNL     1     -42.106  59.647 -55.297  1.00  0.00     0.073 C 
HETATM    2  C   UNL     1     -42.495  59.548 -53.869  1.00  0.00     0.069 A 
HETATM    3  N   UNL     1     -42.683  60.656 -53.138  1.00  0.00    -0.170 NA
HETATM    4  N   UNL     1     -43.071  60.217 -51.902  1.00  0.00    -0.216 N 
HETATM    5  C   UNL     1     -42.982  58.834 -51.839  1.00  0.00     0.145 A 
HETATM    6  C   UNL     1     -42.663  58.385 -53.099  1.00  0.00     0.087 A 
HETATM    7  N   UNL     1     -43.104  58.000 -50.778  1.00  0.00    -0.349 N 
HETATM    8  C   UNL     1     -42.879  56.648 -50.983  1.00  0.00     0.111 A 
HETATM    9  C   UNL     1     -42.602  56.081 -52.180  1.00  0.00     0.098 A 
HETATM   10  C   UNL     1     -42.507  56.974 -53.387  1.00  0.00     0.205 A 
HETATM   11  O   UNL     1     -42.299  56.532 -54.513  1.00  0.00    -0.286 OA
HETATM   12  H   UNL     1     -43.090  58.315 -49.809  1.00  0.00     0.167 HD
ENDROOT
BRANCH   9  13
HETATM   13  C   UNL     1     -42.367  54.603 -52.223  1.00  0.00     0.261 C 
HETATM   14  N   UNL     1     -41.149  54.229 -52.752  1.00  0.00    -0.323 N 
HETATM   15  H   UNL     1     -40.545  54.980 -53.092  1.00  0.00     0.169 HD
HETATM   16  O   UNL     1     -43.232  53.834 -51.810  1.00  0.00    -0.267 OA
BRANCH  14  17
HETATM   17  C   UNL     1     -40.621  52.927 -52.873  1.00  0.00     0.037 A 
HETATM   18  C   UNL     1     -40.031  52.219 -51.826  1.00  0.00     0.071 A 
HETATM   19  C   UNL     1     -39.522  50.944 -52.055  1.00  0.00     0.118 A 
HETATM   20  F   UNL     1     -38.947  50.274 -51.047  1.00  0.00    -0.206 F 
HETATM   21  C   UNL     1     -39.592  50.350 -53.310  1.00  0.00     0.042 A 
HETATM   22  C   UNL     1     -40.181  51.046 -54.360  1.00  0.00     0.005 A 
HETATM   23  C   UNL     1     -40.689  52.330 -54.142  1.00  0.00     0.029 A 
ENDBRANCH  14  17
ENDBRANCH   9  13
BRANCH   4  24
HETATM   24  C   UNL     1     -43.495  61.152 -50.916  1.00  0.00     0.060 A 
HETATM   25  C   UNL     1     -44.593  60.902 -50.084  1.00  0.00     0.031 A 
HETATM   26  C   UNL     1     -44.978  61.846 -49.126  1.00  0.00     0.002 A 
HETATM   27  C   UNL     1     -44.278  63.044 -48.999  1.00  0.00     0.000 A 
HETATM   28  C   UNL     1     -43.201  63.312 -49.840  1.00  0.00     0.002 A 
HETATM   29  C   UNL     1     -42.815  62.376 -50.801  1.00  0.00     0.031 A 
ENDBRANCH   4  24
TORSDOF 3
ENDMDL
MODEL 2
REMARK VINA RESULT:      -8.4      3.234      9.280
REMARK  3 active torsions:
REMARK  status: ('A' for Active; 'I' for Inactive)
REMARK    1  A    between atoms: N_4  and  C_5 
REMARK    2  A    between atoms: C_15  and  C_16 
REMARK       I    between atoms: C_16  and  N_17 
REMARK    3  A    between atoms: N_17  and  C_18 
ROOT
HETATM    1  C   UNL     1     -40.412  54.238 -48.244  1.00  0.00     0.073 C 
HETATM    2  C   UNL     1     -40.442  53.989 -49.706  1.00  0.00     0.069 A 
HETATM    3  N   UNL     1     -40.019  52.819 -50.205  1.00  0.00    -0.170 NA
HETATM    4  N   UNL     1     -40.222  52.903 -51.556  1.00  0.00    -0.216 N 
HETATM    5  C   UNL     1     -40.637  54.182 -51.896  1.00  0.00     0.145 A 
HETATM    6  C   UNL     1     -40.831  54.876 -50.724  1.00  0.00     0.087 A 
HETATM    7  N   UNL     1     -40.791  54.754 -53.114  1.00  0.00    -0.349 N 
HETATM    8  C   UNL     1     -41.140  56.094 -53.165  1.00  0.00     0.111 A 
HETATM    9  C   UNL     1     -41.398  56.870 -52.088  1.00  0.00     0.098 A 
HETATM   10  C   UNL     1     -41.283  56.252 -50.721  1.00  0.00     0.205 A 
HETATM   11  O   UNL     1     -41.540  56.878 -49.697  1.00  0.00    -0.286 OA
HETATM   12  H   UNL     1     -40.421  54.353 -53.975  1.00  0.00     0.167 HD
ENDROOT
BRANCH   9  13
HETATM   13  C   UNL     1     -41.745  58.308 -52.320  1.00  0.00     0.261 C 
HETATM   14  N   UNL     1     -42.628  58.842 -51.405  1.00  0.00    -0.323 N 
HETATM   15  H   UNL     1     -42.985  58.209 -50.687  1.00  0.00     0.169 HD
HETATM   16  O   UNL     1     -41.253  58.909 -53.272  1.00  0.00    -0.267 OA
BRANCH  14  17
HETATM   17  C   UNL     1     -43.096  60.170 -51.328  1.00  0.00     0.037 A 
HETATM   18  C   UNL     1     -42.458  61.187 -50.618  1.00  0.00     0.071 A 
HETATM   19  C   UNL     1     -43.014  62.463 -50.589  1.00  0.00     0.118 A 
HETATM   20  F   UNL     1     -42.401  63.433 -49.897  1.00  0.00    -0.206 F 
HETATM   21  C   UNL     1     -44.197  62.754 -51.259  1.00  0.00     0.042 A 
HETATM   22  C   UNL     1     -44.840  61.747 -51.972  1.00  0.00     0.005 A 
HETATM   23  C   UNL     1     -44.293  60.461 -52.002  1.00  0.00     0.029 A 
ENDBRANCH  14  17
ENDBRANCH   9  13
BRANCH   4  24
HETATM   24  C   UNL     1     -40.011  51.760 -52.379  1.00  0.00     0.060 A 
HETATM   25  C   UNL     1     -39.654  50.519 -51.840  1.00  0.00     0.031 A 
HETATM   26  C   UNL     1     -39.456  49.419 -52.682  1.00  0.00     0.002 A 
HETATM   27  C   UNL     1     -39.606  49.554 -54.061  1.00  0.00     0.000 A 
HETATM   28  C   UNL     1     -39.936  50.792 -54.606  1.00  0.00     0.002 A 
HETATM   29  C   UNL     1     -40.129  51.894 -53.772  1.00  0.00     0.031 A 
ENDBRANCH   4  24
TORSDOF 3
ENDMDL
MODEL 3
REMARK VINA RESULT:      -8.4      5.522      9.150
REMARK  3 active torsions:
REMARK  status: ('A' for Active; 'I' for Inactive)
REMARK    1  A    between atoms: N_4  and  C_5 
REMARK    2  A    between atoms: C_15  and  C_16 
REMARK       I    between atoms: C_16  and  N_17 
REMARK    3  A    between atoms: N_17  and  C_18 
ROOT
HETATM    1  C   UNL     1     -41.520  59.086 -53.733  1.00  0.00     0.073 C 
HETATM    2  C   UNL     1     -41.574  57.686 -54.219  1.00  0.00     0.069 A 
HETATM    3  N   UNL     1     -40.891  56.721 -53.588  1.00  0.00    -0.170 NA
HETATM    4  N   UNL     1     -41.192  55.564 -54.254  1.00  0.00    -0.216 N 
HETATM    5  C   UNL     1     -41.947  55.848 -55.382  1.00  0.00     0.145 A 
HETATM    6  C   UNL     1     -42.243  57.191 -55.352  1.00  0.00     0.087 A 
HETATM    7  N   UNL     1     -42.320  55.045 -56.408  1.00  0.00    -0.349 N 
HETATM    8  C   UNL     1     -43.010  55.615 -57.465  1.00  0.00     0.111 A 
HETATM    9  C   UNL     1     -43.395  56.911 -57.531  1.00  0.00     0.098 A 
HETATM   10  C   UNL     1     -43.038  57.819 -56.386  1.00  0.00     0.205 A 
HETATM   11  O   UNL     1     -43.386  58.996 -56.353  1.00  0.00    -0.286 OA
HETATM   12  H   UNL     1     -41.912  54.127 -56.581  1.00  0.00     0.167 HD
ENDROOT
BRANCH   9  13
HETATM   13  C   UNL     1     -44.118  57.369 -58.759  1.00  0.00     0.261 C 
HETATM   14  N   UNL     1     -45.473  57.108 -58.759  1.00  0.00    -0.323 N 
HETATM   15  H   UNL     1     -45.844  56.603 -57.952  1.00  0.00     0.169 HD
HETATM   16  O   UNL     1     -43.499  57.924 -59.663  1.00  0.00    -0.267 OA
BRANCH  14  17
HETATM   17  C   UNL     1     -46.423  57.464 -59.739  1.00  0.00     0.037 A 
HETATM   18  C   UNL     1     -47.006  56.563 -60.630  1.00  0.00     0.071 A 
HETATM   19  C   UNL     1     -47.921  57.020 -61.575  1.00  0.00     0.118 A 
HETATM   20  F   UNL     1     -48.470  56.151 -62.434  1.00  0.00    -0.206 F 
HETATM   21  C   UNL     1     -48.276  58.362 -61.650  1.00  0.00     0.042 A 
HETATM   22  C   UNL     1     -47.702  59.269 -60.764  1.00  0.00     0.005 A 
HETATM   23  C   UNL     1     -46.777  58.821 -59.817  1.00  0.00     0.029 A 
ENDBRANCH  14  17
ENDBRANCH   9  13
BRANCH   4  24
HETATM   24  C   UNL     1     -40.741  54.313 -53.746  1.00  0.00     0.060 A 
HETATM   25  C   UNL     1     -40.304  53.287 -54.592  1.00  0.00     0.031 A 
HETATM   26  C   UNL     1     -39.868  52.071 -54.055  1.00  0.00     0.002 A 
HETATM   27  C   UNL     1     -39.873  51.871 -52.676  1.00  0.00     0.000 A 
HETATM   28  C   UNL     1     -40.330  52.877 -51.829  1.00  0.00     0.002 A 
HETATM   29  C   UNL     1     -40.772  54.090 -52.359  1.00  0.00     0.031 A 
ENDBRANCH   4  24
TORSDOF 3
ENDMDL
MODEL 4
REMARK VINA RESULT:      -8.4      2.720      5.041
REMARK  3 active torsions:
REMARK  status: ('A' for Active; 'I' for Inactive)
REMARK    1  A    between atoms: N_4  and  C_5 
REMARK    2  A    between atoms: C_15  and  C_16 
REMARK       I    between atoms: C_16  and  N_17 
REMARK    3  A    between atoms: N_17  and  C_18 
ROOT
HETATM    1  C   UNL     1     -41.738  59.928 -52.843  1.00  0.00     0.073 C 
HETATM    2  C   UNL     1     -41.849  59.292 -54.178  1.00  0.00     0.069 A 
HETATM    3  N   UNL     1     -42.105  60.033 -55.265  1.00  0.00    -0.170 NA
HETATM    4  N   UNL     1     -42.096  59.156 -56.316  1.00  0.00    -0.216 N 
HETATM    5  C   UNL     1     -41.975  57.856 -55.850  1.00  0.00     0.145 A 
HETATM    6  C   UNL     1     -41.767  57.924 -54.492  1.00  0.00     0.087 A 
HETATM    7  N   UNL     1     -42.089  56.678 -56.509  1.00  0.00    -0.349 N 
HETATM    8  C   UNL     1     -42.008  55.507 -55.773  1.00  0.00     0.111 A 
HETATM    9  C   UNL     1     -41.764  55.443 -54.443  1.00  0.00     0.098 A 
HETATM   10  C   UNL     1     -41.585  56.733 -53.689  1.00  0.00     0.205 A 
HETATM   11  O   UNL     1     -41.322  56.757 -52.490  1.00  0.00    -0.286 OA
HETATM   12  H   UNL     1     -42.484  56.593 -57.445  1.00  0.00     0.167 HD
ENDROOT
BRANCH   9  13
HETATM   13  C   UNL     1     -41.727  54.093 -53.798  1.00  0.00     0.261 C 
HETATM   14  N   UNL     1     -40.586  53.362 -54.059  1.00  0.00    -0.323 N 
HETATM   15  H   UNL     1     -39.901  53.787 -54.686  1.00  0.00     0.169 HD
HETATM   16  O   UNL     1     -42.670  53.720 -53.106  1.00  0.00    -0.267 OA
BRANCH  14  17
HETATM   17  C   UNL     1     -40.238  52.092 -53.555  1.00  0.00     0.037 A 
HETATM   18  C   UNL     1     -39.921  51.838 -52.220  1.00  0.00     0.071 A 
HETATM   19  C   UNL     1     -39.571  50.548 -51.827  1.00  0.00     0.118 A 
HETATM   20  F   UNL     1     -39.257  50.314 -50.546  1.00  0.00    -0.206 F 
HETATM   21  C   UNL     1     -39.535  49.498 -52.736  1.00  0.00     0.042 A 
HETATM   22  C   UNL     1     -39.852  49.740 -54.069  1.00  0.00     0.005 A 
HETATM   23  C   UNL     1     -40.198  51.032 -54.475  1.00  0.00     0.029 A 
ENDBRANCH  14  17
ENDBRANCH   9  13
BRANCH   4  24
HETATM   24  C   UNL     1     -42.192  59.644 -57.650  1.00  0.00     0.060 A 
HETATM   25  C   UNL     1     -43.090  59.097 -58.574  1.00  0.00     0.031 A 
HETATM   26  C   UNL     1     -43.155  59.605 -59.876  1.00  0.00     0.002 A 
HETATM   27  C   UNL     1     -42.322  60.652 -60.264  1.00  0.00     0.000 A 
HETATM   28  C   UNL     1     -41.408  61.185 -59.359  1.00  0.00     0.002 A 
HETATM   29  C   UNL     1     -41.334  60.679 -58.060  1.00  0.00     0.031 A 
ENDBRANCH   4  24
TORSDOF 3
ENDMDL
MODEL 5
REMARK VINA RESULT:      -8.3      4.769      8.971
REMARK  3 active torsions:
REMARK  status: ('A' for Active; 'I' for Inactive)
REMARK    1  A    between atoms: N_4  and  C_5 
REMARK    2  A    between atoms: C_15  and  C_16 
REMARK       I    between atoms: C_16  and  N_17 
REMARK    3  A    between atoms: N_17  and  C_18 
ROOT
HETATM    1  C   UNL     1     -41.330  56.403 -50.738  1.00  0.00     0.073 C 
HETATM    2  C   UNL     1     -41.191  55.358 -51.781  1.00  0.00     0.069 A 
HETATM    3  N   UNL     1     -40.589  54.195 -51.501  1.00  0.00    -0.170 NA
HETATM    4  N   UNL     1     -40.670  53.454 -52.649  1.00  0.00    -0.216 N 
HETATM    5  C   UNL     1     -41.197  54.225 -53.675  1.00  0.00     0.145 A 
HETATM    6  C   UNL     1     -41.582  55.428 -53.130  1.00  0.00     0.087 A 
HETATM    7  N   UNL     1     -41.300  53.961 -55.000  1.00  0.00    -0.349 N 
HETATM    8  C   UNL     1     -41.796  54.956 -55.826  1.00  0.00     0.111 A 
HETATM    9  C   UNL     1     -42.246  56.161 -55.405  1.00  0.00     0.098 A 
HETATM   10  C   UNL     1     -42.191  56.467 -53.933  1.00  0.00     0.205 A 
HETATM   11  O   UNL     1     -42.615  57.521 -53.468  1.00  0.00    -0.286 OA
HETATM   12  H   UNL     1     -40.805  53.199 -55.462  1.00  0.00     0.167 HD
ENDROOT
BRANCH   9  13
HETATM   13  C   UNL     1     -42.734  57.131 -56.436  1.00  0.00     0.261 C 
HETATM   14  N   UNL     1     -41.750  57.640 -57.257  1.00  0.00    -0.323 N 
HETATM   15  H   UNL     1     -40.791  57.341 -57.067  1.00  0.00     0.169 HD
HETATM   16  O   UNL     1     -43.927  57.415 -56.491  1.00  0.00    -0.267 OA
BRANCH  14  17
HETATM   17  C   UNL     1     -41.903  58.523 -58.346  1.00  0.00     0.037 A 
HETATM   18  C   UNL     1     -41.824  59.912 -58.247  1.00  0.00     0.071 A 
HETATM   19  C   UNL     1     -42.010  60.697 -59.383  1.00  0.00     0.118 A 
HETATM   20  F   UNL     1     -41.943  62.031 -59.278  1.00  0.00    -0.206 F 
HETATM   21  C   UNL     1     -42.269  60.127 -60.624  1.00  0.00     0.042 A 
HETATM   22  C   UNL     1     -42.347  58.743 -60.734  1.00  0.00     0.005 A 
HETATM   23  C   UNL     1     -42.169  57.946 -59.599  1.00  0.00     0.029 A 
ENDBRANCH  14  17
ENDBRANCH   9  13
BRANCH   4  24
HETATM   24  C   UNL     1     -40.249  52.094 -52.650  1.00  0.00     0.060 A 
HETATM   25  C   UNL     1     -40.210  51.334 -53.825  1.00  0.00     0.031 A 
HETATM   26  C   UNL     1     -39.790  50.001 -53.785  1.00  0.00     0.002 A 
HETATM   27  C   UNL     1     -39.415  49.418 -52.576  1.00  0.00     0.000 A 
HETATM   28  C   UNL     1     -39.475  50.160 -51.399  1.00  0.00     0.002 A 
HETATM   29  C   UNL     1     -39.899  51.490 -51.431  1.00  0.00     0.031 A 
ENDBRANCH   4  24
TORSDOF 3
ENDMDL
MODEL 6
REMARK VINA RESULT:      -8.3      3.601      8.804
REMARK  3 active torsions:
REMARK  status: ('A' for Active; 'I' for Inactive)
REMARK    1  A    between atoms: N_4  and  C_5 
REMARK    2  A    between atoms: C_15  and  C_16 
REMARK       I    between atoms: C_16  and  N_17 
REMARK    3  A    between atoms: N_17  and  C_18 
ROOT
HETATM    1  C   UNL     1     -42.414  58.122 -55.779  1.00  0.00     0.073 C 
HETATM    2  C   UNL     1     -42.373  57.151 -54.658  1.00  0.00     0.069 A 
HETATM    3  N   UNL     1     -41.746  55.975 -54.800  1.00  0.00    -0.170 NA
HETATM    4  N   UNL     1     -41.855  55.353 -53.586  1.00  0.00    -0.216 N 
HETATM    5  C   UNL     1     -42.674  56.092 -52.745  1.00  0.00     0.145 A 
HETATM    6  C   UNL     1     -42.975  57.268 -53.393  1.00  0.00     0.087 A 
HETATM    7  N   UNL     1     -43.187  55.780 -51.531  1.00  0.00    -0.349 N 
HETATM    8  C   UNL     1     -44.059  56.680 -50.940  1.00  0.00     0.111 A 
HETATM    9  C   UNL     1     -44.398  57.884 -51.456  1.00  0.00     0.098 A 
HETATM   10  C   UNL     1     -43.808  58.282 -52.782  1.00  0.00     0.205 A 
HETATM   11  O   UNL     1     -44.035  59.373 -53.296  1.00  0.00    -0.286 OA
HETATM   12  H   UNL     1     -43.187  54.836 -51.146  1.00  0.00     0.167 HD
ENDROOT
BRANCH   9  13
HETATM   13  C   UNL     1     -45.371  58.728 -50.695  1.00  0.00     0.261 C 
HETATM   14  N   UNL     1     -44.825  59.855 -50.115  1.00  0.00    -0.323 N 
HETATM   15  H   UNL     1     -43.818  59.987 -50.228  1.00  0.00     0.169 HD
HETATM   16  O   UNL     1     -46.550  58.390 -50.623  1.00  0.00    -0.267 OA
BRANCH  14  17
HETATM   17  C   UNL     1     -45.490  60.864 -49.389  1.00  0.00     0.037 A 
HETATM   18  C   UNL     1     -45.534  60.929 -47.997  1.00  0.00     0.071 A 
HETATM   19  C   UNL     1     -46.237  61.959 -47.375  1.00  0.00     0.118 A 
HETATM   20  F   UNL     1     -46.284  62.009 -46.037  1.00  0.00    -0.206 F 
HETATM   21  C   UNL     1     -46.896  62.935 -48.113  1.00  0.00     0.042 A 
HETATM   22  C   UNL     1     -46.855  62.881 -49.502  1.00  0.00     0.005 A 
HETATM   23  C   UNL     1     -46.159  61.848 -50.136  1.00  0.00     0.029 A 
ENDBRANCH  14  17
ENDBRANCH   9  13
BRANCH   4  24
HETATM   24  C   UNL     1     -41.164  54.131 -53.348  1.00  0.00     0.060 A 
HETATM   25  C   UNL     1     -40.601  53.832 -52.102  1.00  0.00     0.031 A 
HETATM   26  C   UNL     1     -39.930  52.620 -51.908  1.00  0.00     0.002 A 
HETATM   27  C   UNL     1     -39.812  51.707 -52.954  1.00  0.00     0.000 A 
HETATM   28  C   UNL     1     -40.348  52.008 -54.203  1.00  0.00     0.002 A 
HETATM   29  C   UNL     1     -41.013  53.218 -54.405  1.00  0.00     0.031 A 
ENDBRANCH   4  24
TORSDOF 3
ENDMDL
MODEL 7
REMARK VINA RESULT:      -8.1      3.137      8.892
REMARK  3 active torsions:
REMARK  status: ('A' for Active; 'I' for Inactive)
REMARK    1  A    between atoms: N_4  and  C_5 
REMARK    2  A    between atoms: C_15  and  C_16 
REMARK       I    between atoms: C_16  and  N_17 
REMARK    3  A    between atoms: N_17  and  C_18 
ROOT
HETATM    1  C   UNL     1     -42.869  56.136 -55.795  1.00  0.00     0.073 C 
HETATM    2  C   UNL     1     -42.177  55.511 -54.641  1.00  0.00     0.069 A 
HETATM    3  N   UNL     1     -41.892  54.202 -54.648  1.00  0.00    -0.170 NA
HETATM    4  N   UNL     1     -41.225  53.967 -53.476  1.00  0.00    -0.216 N 
HETATM    5  C   UNL     1     -41.231  55.108 -52.689  1.00  0.00     0.145 A 
HETATM    6  C   UNL     1     -41.791  56.120 -53.434  1.00  0.00     0.087 A 
HETATM    7  N   UNL     1     -40.843  55.283 -51.402  1.00  0.00    -0.349 N 
HETATM    8  C   UNL     1     -41.040  56.527 -50.825  1.00  0.00     0.111 A 
HETATM    9  C   UNL     1     -41.540  57.609 -51.465  1.00  0.00     0.098 A 
HETATM   10  C   UNL     1     -41.936  57.461 -52.910  1.00  0.00     0.205 A 
HETATM   11  O   UNL     1     -42.360  58.405 -53.570  1.00  0.00    -0.286 OA
HETATM   12  H   UNL     1     -40.664  54.513 -50.759  1.00  0.00     0.167 HD
ENDROOT
BRANCH   9  13
HETATM   13  C   UNL     1     -41.706  58.876 -50.686  1.00  0.00     0.261 C 
HETATM   14  N   UNL     1     -42.878  59.558 -50.939  1.00  0.00    -0.323 N 
HETATM   15  H   UNL     1     -43.497  59.161 -51.649  1.00  0.00     0.169 HD
HETATM   16  O   UNL     1     -40.830  59.230 -49.902  1.00  0.00    -0.267 OA
BRANCH  14  17
HETATM   17  C   UNL     1     -43.341  60.741 -50.327  1.00  0.00     0.037 A 
HETATM   18  C   UNL     1     -44.372  60.788 -49.389  1.00  0.00     0.071 A 
HETATM   19  C   UNL     1     -44.767  62.013 -48.858  1.00  0.00     0.118 A 
HETATM   20  F   UNL     1     -45.765  62.052 -47.964  1.00  0.00    -0.206 F 
HETATM   21  C   UNL     1     -44.152  63.200 -49.237  1.00  0.00     0.042 A 
HETATM   22  C   UNL     1     -43.121  63.164 -50.170  1.00  0.00     0.005 A 
HETATM   23  C   UNL     1     -42.721  61.940 -50.715  1.00  0.00     0.029 A 
ENDBRANCH  14  17
ENDBRANCH   9  13
BRANCH   4  24
HETATM   24  C   UNL     1     -40.646  52.690 -53.232  1.00  0.00     0.060 A 
HETATM   25  C   UNL     1     -40.079  52.360 -51.994  1.00  0.00     0.031 A 
HETATM   26  C   UNL     1     -39.520  51.094 -51.793  1.00  0.00     0.002 A 
HETATM   27  C   UNL     1     -39.515  50.156 -52.823  1.00  0.00     0.000 A 
HETATM   28  C   UNL     1     -40.053  50.484 -54.064  1.00  0.00     0.002 A 
HETATM   29  C   UNL     1     -40.609  51.748 -54.274  1.00  0.00     0.031 A 
ENDBRANCH   4  24
TORSDOF 3
ENDMDL
MODEL 8
REMARK VINA RESULT:      -8.1      4.890      6.888
REMARK  3 active torsions:
REMARK  status: ('A' for Active; 'I' for Inactive)
REMARK    1  A    between atoms: N_4  and  C_5 
REMARK    2  A    between atoms: C_15  and  C_16 
REMARK       I    between atoms: C_16  and  N_17 
REMARK    3  A    between atoms: N_17  and  C_18 
ROOT
HETATM    1  C   UNL     1     -44.575  54.064 -59.734  1.00  0.00     0.073 C 
HETATM    2  C   UNL     1     -43.971  55.379 -59.412  1.00  0.00     0.069 A 
HETATM    3  N   UNL     1     -43.902  56.341 -60.343  1.00  0.00    -0.170 NA
HETATM    4  N   UNL     1     -43.341  57.420 -59.713  1.00  0.00    -0.216 N 
HETATM    5  C   UNL     1     -42.937  57.067 -58.435  1.00  0.00     0.145 A 
HETATM    6  C   UNL     1     -43.373  55.782 -58.205  1.00  0.00     0.087 A 
HETATM    7  N   UNL     1     -42.197  57.755 -57.532  1.00  0.00    -0.349 N 
HETATM    8  C   UNL     1     -41.861  57.123 -56.347  1.00  0.00     0.111 A 
HETATM    9  C   UNL     1     -42.264  55.882 -55.988  1.00  0.00     0.098 A 
HETATM   10  C   UNL     1     -43.127  55.109 -56.948  1.00  0.00     0.205 A 
HETATM   11  O   UNL     1     -43.566  53.994 -56.679  1.00  0.00    -0.286 OA
HETATM   12  H   UNL     1     -41.658  58.589 -57.765  1.00  0.00     0.167 HD
ENDROOT
BRANCH   9  13
HETATM   13  C   UNL     1     -41.793  55.339 -54.675  1.00  0.00     0.261 C 
HETATM   14  N   UNL     1     -41.269  54.064 -54.734  1.00  0.00    -0.323 N 
HETATM   15  H   UNL     1     -41.284  53.603 -55.646  1.00  0.00     0.169 HD
HETATM   16  O   UNL     1     -41.897  56.021 -53.659  1.00  0.00    -0.267 OA
BRANCH  14  17
HETATM   17  C   UNL     1     -40.700  53.313 -53.685  1.00  0.00     0.037 A 
HETATM   18  C   UNL     1     -40.588  53.763 -52.369  1.00  0.00     0.071 A 
HETATM   19  C   UNL     1     -39.990  52.949 -51.410  1.00  0.00     0.118 A 
HETATM   20  F   UNL     1     -39.877  53.391 -50.150  1.00  0.00    -0.206 F 
HETATM   21  C   UNL     1     -39.504  51.687 -51.731  1.00  0.00     0.042 A 
HETATM   22  C   UNL     1     -39.613  51.229 -53.040  1.00  0.00     0.005 A 
HETATM   23  C   UNL     1     -40.205  52.040 -54.012  1.00  0.00     0.029 A 
ENDBRANCH  14  17
ENDBRANCH   9  13
BRANCH   4  24
HETATM   24  C   UNL     1     -43.258  58.672 -60.386  1.00  0.00     0.060 A 
HETATM   25  C   UNL     1     -44.400  59.418 -60.701  1.00  0.00     0.031 A 
HETATM   26  C   UNL     1     -44.278  60.644 -61.362  1.00  0.00     0.002 A 
HETATM   27  C   UNL     1     -43.020  61.128 -61.719  1.00  0.00     0.000 A 
HETATM   28  C   UNL     1     -41.881  60.379 -61.432  1.00  0.00     0.002 A 
HETATM   29  C   UNL     1     -41.997  59.152 -60.777  1.00  0.00     0.031 A 
ENDBRANCH   4  24
TORSDOF 3
ENDMDL
MODEL 9
REMARK VINA RESULT:      -8.1      4.786      9.057
REMARK  3 active torsions:
REMARK  status: ('A' for Active; 'I' for Inactive)
REMARK    1  A    between atoms: N_4  and  C_5 
REMARK    2  A    between atoms: C_15  and  C_16 
REMARK       I    between atoms: C_16  and  N_17 
REMARK    3  A    between atoms: N_17  and  C_18 
ROOT
HETATM    1  C   UNL     1     -41.229  56.391 -50.636  1.00  0.00     0.073 C 
HETATM    2  C   UNL     1     -41.179  55.419 -51.755  1.00  0.00     0.069 A 
HETATM    3  N   UNL     1     -40.550  54.244 -51.607  1.00  0.00    -0.170 NA
HETATM    4  N   UNL     1     -40.729  53.581 -52.791  1.00  0.00    -0.216 N 
HETATM    5  C   UNL     1     -41.347  54.413 -53.713  1.00  0.00     0.145 A 
HETATM    6  C   UNL     1     -41.686  55.574 -53.057  1.00  0.00     0.087 A 
HETATM    7  N   UNL     1     -41.565  54.237 -55.038  1.00  0.00    -0.349 N 
HETATM    8  C   UNL     1     -42.135  55.281 -55.750  1.00  0.00     0.111 A 
HETATM    9  C   UNL     1     -42.550  56.451 -55.211  1.00  0.00     0.098 A 
HETATM   10  C   UNL     1     -42.366  56.659 -53.732  1.00  0.00     0.205 A 
HETATM   11  O   UNL     1     -42.752  57.676 -53.163  1.00  0.00    -0.286 OA
HETATM   12  H   UNL     1     -41.110  53.512 -55.592  1.00  0.00     0.167 HD
ENDROOT
BRANCH   9  13
HETATM   13  C   UNL     1     -43.129  57.483 -56.128  1.00  0.00     0.261 C 
HETATM   14  N   UNL     1     -44.231  57.062 -56.844  1.00  0.00    -0.323 N 
HETATM   15  H   UNL     1     -44.523  56.091 -56.711  1.00  0.00     0.169 HD
HETATM   16  O   UNL     1     -42.616  58.596 -56.198  1.00  0.00    -0.267 OA
BRANCH  14  17
HETATM   17  C   UNL     1     -45.022  57.814 -57.737  1.00  0.00     0.037 A 
HETATM   18  C   UNL     1     -46.249  58.388 -57.406  1.00  0.00     0.071 A 
HETATM   19  C   UNL     1     -46.963  59.097 -58.369  1.00  0.00     0.118 A 
HETATM   20  F   UNL     1     -48.145  59.638 -58.047  1.00  0.00    -0.206 F 
HETATM   21  C   UNL     1     -46.476  59.254 -59.662  1.00  0.00     0.042 A 
HETATM   22  C   UNL     1     -45.252  58.688 -60.001  1.00  0.00     0.005 A 
HETATM   23  C   UNL     1     -44.531  57.968 -59.044  1.00  0.00     0.029 A 
ENDBRANCH  14  17
ENDBRANCH   9  13
BRANCH   4  24
HETATM   24  C   UNL     1     -40.306  52.228 -52.919  1.00  0.00     0.060 A 
HETATM   25  C   UNL     1     -40.361  51.550 -54.143  1.00  0.00     0.031 A 
HETATM   26  C   UNL     1     -39.935  50.221 -54.229  1.00  0.00     0.002 A 
HETATM   27  C   UNL     1     -39.461  49.560 -53.098  1.00  0.00     0.000 A 
HETATM   28  C   UNL     1     -39.428  50.219 -51.871  1.00  0.00     0.002 A 
HETATM   29  C   UNL     1     -39.857  51.544 -51.778  1.00  0.00     0.031 A 
ENDBRANCH   4  24
TORSDOF 3
ENDMDL
MODEL 10
REMARK VINA RESULT:      -8.1      4.198      9.130
REMARK  3 active torsions:
REMARK  status: ('A' for Active; 'I' for Inactive)
REMARK    1  A    between atoms: N_4  and  C_5 
REMARK    2  A    between atoms: C_15  and  C_16 
REMARK       I    between atoms: C_16  and  N_17 
REMARK    3  A    between atoms: N_17  and  C_18 
ROOT
HETATM    1  C   UNL     1     -41.202  55.115 -49.057  1.00  0.00     0.073 C 
HETATM    2  C   UNL     1     -40.933  54.638 -50.435  1.00  0.00     0.069 A 
HETATM    3  N   UNL     1     -40.531  53.378 -50.651  1.00  0.00    -0.170 NA
HETATM    4  N   UNL     1     -40.420  53.257 -52.010  1.00  0.00    -0.216 N 
HETATM    5  C   UNL     1     -40.618  54.490 -52.614  1.00  0.00     0.145 A 
HETATM    6  C   UNL     1     -40.995  55.374 -51.631  1.00  0.00     0.087 A 
HETATM    7  N   UNL     1     -40.440  54.868 -53.903  1.00  0.00    -0.349 N 
HETATM    8  C   UNL     1     -40.631  56.203 -54.223  1.00  0.00     0.111 A 
HETATM    9  C   UNL     1     -41.042  57.157 -53.356  1.00  0.00     0.098 A 
HETATM   10  C   UNL     1     -41.295  56.759 -51.927  1.00  0.00     0.205 A 
HETATM   11  O   UNL     1     -41.707  57.558 -51.090  1.00  0.00    -0.286 OA
HETATM   12  H   UNL     1     -39.931  54.311 -54.588  1.00  0.00     0.167 HD
ENDROOT
BRANCH   9  13
HETATM   13  C   UNL     1     -41.181  58.558 -53.863  1.00  0.00     0.261 C 
HETATM   14  N   UNL     1     -42.095  58.712 -54.885  1.00  0.00    -0.323 N 
HETATM   15  H   UNL     1     -42.559  57.865 -55.219  1.00  0.00     0.169 HD
HETATM   16  O   UNL     1     -40.502  59.457 -53.372  1.00  0.00    -0.267 OA
BRANCH  14  17
HETATM   17  C   UNL     1     -42.484  59.906 -55.526  1.00  0.00     0.037 A 
HETATM   18  C   UNL     1     -43.293  60.882 -54.944  1.00  0.00     0.071 A 
HETATM   19  C   UNL     1     -43.635  62.020 -55.671  1.00  0.00     0.118 A 
HETATM   20  F   UNL     1     -44.421  62.948 -55.109  1.00  0.00    -0.206 F 
HETATM   21  C   UNL     1     -43.183  62.212 -56.971  1.00  0.00     0.042 A 
HETATM   22  C   UNL     1     -42.374  61.246 -57.560  1.00  0.00     0.005 A 
HETATM   23  C   UNL     1     -42.030  60.098 -56.841  1.00  0.00     0.029 A 
ENDBRANCH  14  17
ENDBRANCH   9  13
BRANCH   4  24
HETATM   24  C   UNL     1     -40.149  51.986 -52.592  1.00  0.00     0.060 A 
HETATM   25  C   UNL     1     -40.342  51.743 -53.957  1.00  0.00     0.031 A 
HETATM   26  C   UNL     1     -40.064  50.480 -54.491  1.00  0.00     0.002 A 
HETATM   27  C   UNL     1     -39.601  49.455 -53.668  1.00  0.00     0.000 A 
HETATM   28  C   UNL     1     -39.432  49.682 -52.304  1.00  0.00     0.002 A 
HETATM   29  C   UNL     1     -39.713  50.938 -51.764  1.00  0.00     0.031 A 
ENDBRANCH   4  24
TORSDOF 3
ENDMDL
