MODEL 1
REMARK VINA RESULT:      -6.8      0.000      0.000
REMARK  3 active torsions:
REMARK  status: ('A' for Active; 'I' for Inactive)
REMARK    1  A    between atoms: C_2  and  N_3 
REMARK    2  A    between atoms: N_3  and  C_4 
REMARK    3  A    between atoms: C_12  and  C_13 
ROOT
HETATM    1  C   UNL     1     -42.499  55.675 -55.433  1.00  0.00     0.139 A 
HETATM    2  N   UNL     1     -42.881  55.080 -56.584  1.00  0.00    -0.224 NA
HETATM    3  C   UNL     1     -43.100  55.824 -57.675  1.00  0.00     0.236 A 
HETATM    4  N   UNL     1     -42.982  57.145 -57.790  1.00  0.00    -0.234 NA
HETATM    5  C   UNL     1     -42.585  57.720 -56.644  1.00  0.00     0.113 A 
HETATM    6  C   UNL     1     -42.316  57.084 -55.439  1.00  0.00     0.055 A 
HETATM    7  S   UNL     1     -42.363  59.404 -56.578  1.00  0.00    -0.081 SA
HETATM    8  C   UNL     1     -41.887  59.335 -54.944  1.00  0.00     0.062 A 
HETATM    9  C   UNL     1     -41.885  58.050 -54.427  1.00  0.00    -0.003 A 
ENDROOT
BRANCH   9  10
HETATM   10  C   UNL     1     -41.492  57.678 -53.004  1.00  0.00     0.188 C 
HETATM   11  O   UNL     1     -42.618  57.147 -52.275  1.00  0.00    -0.336 OA
HETATM   12  C   UNL     1     -43.378  58.132 -51.703  1.00  0.00     0.103 A 
HETATM   13  C   UNL     1     -42.924  59.440 -51.516  1.00  0.00     0.102 A 
HETATM   14  C   UNL     1     -44.665  57.774 -51.303  1.00  0.00     0.040 A 
HETATM   15  O   UNL     1     -41.669  59.861 -51.866  1.00  0.00    -0.345 OA
HETATM   16  C   UNL     1     -43.773  60.399 -50.966  1.00  0.00     0.039 A 
HETATM   17  C   UNL     1     -40.801  58.762 -52.170  1.00  0.00     0.213 C 
HETATM   18  C   UNL     1     -45.066  60.046 -50.579  1.00  0.00     0.003 A 
HETATM   19  C   UNL     1     -45.511  58.732 -50.743  1.00  0.00     0.003 A 
ENDBRANCH   9  10
BRANCH   1  20
HETATM   20  N   UNL     1     -42.285  54.911 -54.290  1.00  0.00    -0.366 N 
HETATM   21  H   UNL     1     -43.154  54.458 -54.012  1.00  0.00     0.162 HD
BRANCH  20  22
HETATM   22  C   UNL     1     -41.118  54.033 -54.108  1.00  0.00     0.021 C 
HETATM   23  C   UNL     1     -39.914  54.482 -54.948  1.00  0.00     0.037 C 
HETATM   24  C   UNL     1     -41.482  52.568 -54.382  1.00  0.00     0.037 C 
HETATM   25  C   UNL     1     -40.716  54.160 -52.621  1.00  0.00     0.037 C 
ENDBRANCH  20  22
ENDBRANCH   1  20
TORSDOF 3
ENDMDL
MODEL 2
REMARK VINA RESULT:      -6.6      2.756      5.004
REMARK  3 active torsions:
REMARK  status: ('A' for Active; 'I' for Inactive)
REMARK    1  A    between atoms: C_2  and  N_3 
REMARK    2  A    between atoms: N_3  and  C_4 
REMARK    3  A    between atoms: C_12  and  C_13 
ROOT
HETATM    1  C   UNL     1     -42.281  58.011 -57.609  1.00  0.00     0.139 A 
HETATM    2  N   UNL     1     -41.901  59.119 -58.281  1.00  0.00    -0.224 NA
HETATM    3  C   UNL     1     -41.668  60.255 -57.611  1.00  0.00     0.236 A 
HETATM    4  N   UNL     1     -41.762  60.453 -56.299  1.00  0.00    -0.234 NA
HETATM    5  C   UNL     1     -42.124  59.340 -55.643  1.00  0.00     0.113 A 
HETATM    6  C   UNL     1     -42.394  58.094 -56.194  1.00  0.00     0.055 A 
HETATM    7  S   UNL     1     -42.292  59.374 -53.951  1.00  0.00    -0.081 SA
HETATM    8  C   UNL     1     -42.715  57.726 -53.902  1.00  0.00     0.062 A 
HETATM    9  C   UNL     1     -42.733  57.126 -55.150  1.00  0.00    -0.003 A 
ENDROOT
BRANCH   9  10
HETATM   10  C   UNL     1     -43.060  55.663 -55.417  1.00  0.00     0.188 C 
HETATM   11  O   UNL     1     -43.712  55.059 -54.281  1.00  0.00    -0.336 OA
HETATM   12  C   UNL     1     -42.816  54.589 -53.357  1.00  0.00     0.103 A 
HETATM   13  C   UNL     1     -41.466  54.369 -53.640  1.00  0.00     0.102 A 
HETATM   14  C   UNL     1     -43.314  54.333 -52.080  1.00  0.00     0.040 A 
HETATM   15  O   UNL     1     -40.909  54.579 -54.874  1.00  0.00    -0.345 OA
HETATM   16  C   UNL     1     -40.607  53.930 -52.635  1.00  0.00     0.039 A 
HETATM   17  C   UNL     1     -41.907  54.770 -55.885  1.00  0.00     0.213 C 
HETATM   18  C   UNL     1     -41.100  53.688 -51.352  1.00  0.00     0.003 A 
HETATM   19  C   UNL     1     -42.455  53.885 -51.076  1.00  0.00     0.003 A 
ENDBRANCH   9  10
BRANCH   1  20
HETATM   20  N   UNL     1     -42.542  56.831 -58.298  1.00  0.00    -0.366 N 
HETATM   21  H   UNL     1     -42.277  56.032 -57.723  1.00  0.00     0.162 HD
BRANCH  20  22
HETATM   22  C   UNL     1     -43.783  56.588 -59.050  1.00  0.00     0.021 C 
HETATM   23  C   UNL     1     -44.979  57.350 -58.461  1.00  0.00     0.037 C 
HETATM   24  C   UNL     1     -44.073  55.085 -59.165  1.00  0.00     0.037 C 
HETATM   25  C   UNL     1     -43.537  57.141 -60.471  1.00  0.00     0.037 C 
ENDBRANCH  20  22
ENDBRANCH   1  20
TORSDOF 3
ENDMDL
MODEL 3
REMARK VINA RESULT:      -6.5     17.020     18.884
REMARK  3 active torsions:
REMARK  status: ('A' for Active; 'I' for Inactive)
REMARK    1  A    between atoms: C_2  and  N_3 
REMARK    2  A    between atoms: N_3  and  C_4 
REMARK    3  A    between atoms: C_12  and  C_13 
ROOT
HETATM    1  C   UNL     1     -34.514  40.723 -52.798  1.00  0.00     0.139 A 
HETATM    2  N   UNL     1     -33.461  40.838 -51.960  1.00  0.00    -0.224 NA
HETATM    3  C   UNL     1     -32.218  40.665 -52.427  1.00  0.00     0.236 A 
HETATM    4  N   UNL     1     -31.857  40.382 -53.676  1.00  0.00    -0.234 NA
HETATM    5  C   UNL     1     -32.911  40.288 -54.501  1.00  0.00     0.113 A 
HETATM    6  C   UNL     1     -34.250  40.445 -54.167  1.00  0.00     0.055 A 
HETATM    7  S   UNL     1     -32.667  39.942 -56.147  1.00  0.00    -0.081 SA
HETATM    8  C   UNL     1     -34.338  40.007 -56.468  1.00  0.00     0.062 A 
HETATM    9  C   UNL     1     -35.102  40.291 -55.348  1.00  0.00    -0.003 A 
ENDROOT
BRANCH   9  10
HETATM   10  C   UNL     1     -36.618  40.425 -55.330  1.00  0.00     0.188 C 
HETATM   11  O   UNL     1     -37.225  39.626 -56.365  1.00  0.00    -0.336 OA
HETATM   12  C   UNL     1     -37.278  40.283 -57.566  1.00  0.00     0.103 A 
HETATM   13  C   UNL     1     -37.127  41.666 -57.691  1.00  0.00     0.102 A 
HETATM   14  C   UNL     1     -37.491  39.497 -58.698  1.00  0.00     0.040 A 
HETATM   15  O   UNL     1     -36.934  42.504 -56.624  1.00  0.00    -0.345 OA
HETATM   16  C   UNL     1     -37.150  42.258 -58.952  1.00  0.00     0.039 A 
HETATM   17  C   UNL     1     -37.187  41.848 -55.376  1.00  0.00     0.213 C 
HETATM   18  C   UNL     1     -37.349  41.471 -60.088  1.00  0.00     0.003 A 
HETATM   19  C   UNL     1     -37.524  40.091 -59.960  1.00  0.00     0.003 A 
ENDBRANCH   9  10
BRANCH   1  20
HETATM   20  N   UNL     1     -35.810  40.884 -52.318  1.00  0.00    -0.366 N 
HETATM   21  H   UNL     1     -36.393  41.309 -53.039  1.00  0.00     0.162 HD
BRANCH  20  22
HETATM   22  C   UNL     1     -36.530  39.848 -51.561  1.00  0.00     0.021 C 
HETATM   23  C   UNL     1     -36.395  40.035 -50.044  1.00  0.00     0.037 C 
HETATM   24  C   UNL     1     -36.092  38.443 -51.998  1.00  0.00     0.037 C 
HETATM   25  C   UNL     1     -38.023  40.019 -51.917  1.00  0.00     0.037 C 
ENDBRANCH  20  22
ENDBRANCH   1  20
TORSDOF 3
ENDMDL
MODEL 4
REMARK VINA RESULT:      -6.2      3.023      5.801
REMARK  3 active torsions:
REMARK  status: ('A' for Active; 'I' for Inactive)
REMARK    1  A    between atoms: C_2  and  N_3 
REMARK    2  A    between atoms: N_3  and  C_4 
REMARK    3  A    between atoms: C_12  and  C_13 
ROOT
HETATM    1  C   UNL     1     -43.159  57.152 -52.958  1.00  0.00     0.139 A 
HETATM    2  N   UNL     1     -43.260  56.606 -51.727  1.00  0.00    -0.224 NA
HETATM    3  C   UNL     1     -43.192  55.276 -51.583  1.00  0.00     0.236 A 
HETATM    4  N   UNL     1     -43.027  54.367 -52.540  1.00  0.00    -0.234 NA
HETATM    5  C   UNL     1     -42.911  54.924 -53.755  1.00  0.00     0.113 A 
HETATM    6  C   UNL     1     -42.956  56.278 -54.061  1.00  0.00     0.055 A 
HETATM    7  S   UNL     1     -42.683  53.936 -55.119  1.00  0.00    -0.081 SA
HETATM    8  C   UNL     1     -42.621  55.284 -56.157  1.00  0.00     0.062 A 
HETATM    9  C   UNL     1     -42.767  56.493 -55.497  1.00  0.00    -0.003 A 
ENDROOT
BRANCH   9  10
HETATM   10  C   UNL     1     -42.740  57.863 -56.159  1.00  0.00     0.188 C 
HETATM   11  O   UNL     1     -44.019  58.521 -56.048  1.00  0.00    -0.336 OA
HETATM   12  C   UNL     1     -44.878  58.161 -57.053  1.00  0.00     0.103 A 
HETATM   13  C   UNL     1     -44.459  57.549 -58.237  1.00  0.00     0.102 A 
HETATM   14  C   UNL     1     -46.229  58.432 -56.845  1.00  0.00     0.040 A 
HETATM   15  O   UNL     1     -43.148  57.269 -58.520  1.00  0.00    -0.345 OA
HETATM   16  C   UNL     1     -45.398  57.173 -59.195  1.00  0.00     0.039 A 
HETATM   17  C   UNL     1     -42.253  57.922 -57.611  1.00  0.00     0.213 C 
HETATM   18  C   UNL     1     -46.753  57.430 -58.982  1.00  0.00     0.003 A 
HETATM   19  C   UNL     1     -47.168  58.064 -57.809  1.00  0.00     0.003 A 
ENDBRANCH   9  10
BRANCH   1  20
HETATM   20  N   UNL     1     -43.244  58.531 -53.120  1.00  0.00    -0.366 N 
HETATM   21  H   UNL     1     -44.137  58.865 -52.761  1.00  0.00     0.162 HD
BRANCH  20  22
HETATM   22  C   UNL     1     -42.141  59.453 -52.807  1.00  0.00     0.021 C 
HETATM   23  C   UNL     1     -40.767  58.852 -53.136  1.00  0.00     0.037 C 
HETATM   24  C   UNL     1     -42.215  59.928 -51.350  1.00  0.00     0.037 C 
HETATM   25  C   UNL     1     -42.338  60.681 -53.724  1.00  0.00     0.037 C 
ENDBRANCH  20  22
ENDBRANCH   1  20
TORSDOF 3
ENDMDL
MODEL 5
REMARK VINA RESULT:      -5.9      3.069      5.671
REMARK  3 active torsions:
REMARK  status: ('A' for Active; 'I' for Inactive)
REMARK    1  A    between atoms: C_2  and  N_3 
REMARK    2  A    between atoms: N_3  and  C_4 
REMARK    3  A    between atoms: C_12  and  C_13 
ROOT
HETATM    1  C   UNL     1     -41.615  57.354 -54.455  1.00  0.00     0.139 A 
HETATM    2  N   UNL     1     -40.615  57.440 -53.552  1.00  0.00    -0.224 NA
HETATM    3  C   UNL     1     -40.379  58.603 -52.932  1.00  0.00     0.236 A 
HETATM    4  N   UNL     1     -41.034  59.750 -53.090  1.00  0.00    -0.234 NA
HETATM    5  C   UNL     1     -42.035  59.645 -53.977  1.00  0.00     0.113 A 
HETATM    6  C   UNL     1     -42.403  58.513 -54.692  1.00  0.00     0.055 A 
HETATM    7  S   UNL     1     -43.007  60.998 -54.318  1.00  0.00    -0.081 SA
HETATM    8  C   UNL     1     -43.957  60.111 -55.418  1.00  0.00     0.062 A 
HETATM    9  C   UNL     1     -43.562  58.789 -55.543  1.00  0.00    -0.003 A 
ENDROOT
BRANCH   9  10
HETATM   10  C   UNL     1     -44.229  57.755 -56.438  1.00  0.00     0.188 C 
HETATM   11  O   UNL     1     -43.295  57.212 -57.394  1.00  0.00    -0.336 OA
HETATM   12  C   UNL     1     -43.198  57.983 -58.522  1.00  0.00     0.103 A 
HETATM   13  C   UNL     1     -44.147  58.945 -58.877  1.00  0.00     0.102 A 
HETATM   14  C   UNL     1     -42.081  57.770 -59.329  1.00  0.00     0.040 A 
HETATM   15  O   UNL     1     -45.277  59.197 -58.146  1.00  0.00    -0.345 OA
HETATM   16  C   UNL     1     -43.957  59.721 -60.019  1.00  0.00     0.039 A 
HETATM   17  C   UNL     1     -45.511  58.186 -57.158  1.00  0.00     0.213 C 
HETATM   18  C   UNL     1     -42.831  59.519 -60.820  1.00  0.00     0.003 A 
HETATM   19  C   UNL     1     -41.896  58.541 -60.477  1.00  0.00     0.003 A 
ENDBRANCH   9  10
BRANCH   1  20
HETATM   20  N   UNL     1     -41.857  56.154 -55.117  1.00  0.00    -0.366 N 
HETATM   21  H   UNL     1     -41.058  55.917 -55.704  1.00  0.00     0.162 HD
BRANCH  20  22
HETATM   22  C   UNL     1     -42.435  54.969 -54.462  1.00  0.00     0.021 C 
HETATM   23  C   UNL     1     -41.378  54.142 -53.718  1.00  0.00     0.037 C 
HETATM   24  C   UNL     1     -43.220  54.112 -55.464  1.00  0.00     0.037 C 
HETATM   25  C   UNL     1     -43.428  55.506 -53.407  1.00  0.00     0.037 C 
ENDBRANCH  20  22
ENDBRANCH   1  20
TORSDOF 3
ENDMDL
MODEL 6
REMARK VINA RESULT:      -5.9      2.625      5.103
REMARK  3 active torsions:
REMARK  status: ('A' for Active; 'I' for Inactive)
REMARK    1  A    between atoms: C_2  and  N_3 
REMARK    2  A    between atoms: N_3  and  C_4 
REMARK    3  A    between atoms: C_12  and  C_13 
ROOT
HETATM    1  C   UNL     1     -42.199  56.384 -52.410  1.00  0.00     0.139 A 
HETATM    2  N   UNL     1     -41.368  56.214 -51.359  1.00  0.00    -0.224 NA
HETATM    3  C   UNL     1     -40.963  57.278 -50.654  1.00  0.00     0.236 A 
HETATM    4  N   UNL     1     -41.288  58.552 -50.855  1.00  0.00    -0.234 NA
HETATM    5  C   UNL     1     -42.128  58.704 -51.891  1.00  0.00     0.113 A 
HETATM    6  C   UNL     1     -42.636  57.703 -52.709  1.00  0.00     0.055 A 
HETATM    7  S   UNL     1     -42.677  60.257 -52.312  1.00  0.00    -0.081 SA
HETATM    8  C   UNL     1     -43.621  59.641 -53.588  1.00  0.00     0.062 A 
HETATM    9  C   UNL     1     -43.540  58.263 -53.715  1.00  0.00    -0.003 A 
ENDROOT
BRANCH   9  10
HETATM   10  C   UNL     1     -44.282  57.433 -54.752  1.00  0.00     0.188 C 
HETATM   11  O   UNL     1     -43.396  56.999 -55.804  1.00  0.00    -0.336 OA
HETATM   12  C   UNL     1     -43.265  57.938 -56.793  1.00  0.00     0.103 A 
HETATM   13  C   UNL     1     -44.155  59.001 -56.965  1.00  0.00     0.102 A 
HETATM   14  C   UNL     1     -42.174  57.794 -57.649  1.00  0.00     0.040 A 
HETATM   15  O   UNL     1     -45.258  59.197 -56.177  1.00  0.00    -0.345 OA
HETATM   16  C   UNL     1     -43.931  59.941 -57.968  1.00  0.00     0.039 A 
HETATM   17  C   UNL     1     -45.544  58.053 -55.363  1.00  0.00     0.213 C 
HETATM   18  C   UNL     1     -42.830  59.807 -58.816  1.00  0.00     0.003 A 
HETATM   19  C   UNL     1     -41.954  58.731 -58.659  1.00  0.00     0.003 A 
ENDBRANCH   9  10
BRANCH   1  20
HETATM   20  N   UNL     1     -42.613  55.286 -53.159  1.00  0.00    -0.366 N 
HETATM   21  H   UNL     1     -43.469  55.516 -53.661  1.00  0.00     0.162 HD
BRANCH  20  22
HETATM   22  C   UNL     1     -41.697  54.466 -53.968  1.00  0.00     0.021 C 
HETATM   23  C   UNL     1     -41.106  53.295 -53.172  1.00  0.00     0.037 C 
HETATM   24  C   UNL     1     -40.598  55.329 -54.602  1.00  0.00     0.037 C 
HETATM   25  C   UNL     1     -42.554  53.866 -55.105  1.00  0.00     0.037 C 
ENDBRANCH  20  22
ENDBRANCH   1  20
TORSDOF 3
ENDMDL
MODEL 7
REMARK VINA RESULT:      -5.6      3.299      6.012
REMARK  3 active torsions:
REMARK  status: ('A' for Active; 'I' for Inactive)
REMARK    1  A    between atoms: C_2  and  N_3 
REMARK    2  A    between atoms: N_3  and  C_4 
REMARK    3  A    between atoms: C_12  and  C_13 
ROOT
HETATM    1  C   UNL     1     -43.346  56.381 -56.939  1.00  0.00     0.139 A 
HETATM    2  N   UNL     1     -42.835  55.153 -56.701  1.00  0.00    -0.224 NA
HETATM    3  C   UNL     1     -41.958  54.981 -55.704  1.00  0.00     0.236 A 
HETATM    4  N   UNL     1     -41.496  55.904 -54.865  1.00  0.00    -0.234 NA
HETATM    5  C   UNL     1     -42.025  57.115 -55.102  1.00  0.00     0.113 A 
HETATM    6  C   UNL     1     -42.943  57.447 -56.089  1.00  0.00     0.055 A 
HETATM    7  S   UNL     1     -41.574  58.437 -54.133  1.00  0.00    -0.081 SA
HETATM    8  C   UNL     1     -42.602  59.490 -54.990  1.00  0.00     0.062 A 
HETATM    9  C   UNL     1     -43.299  58.865 -56.012  1.00  0.00    -0.003 A 
ENDROOT
BRANCH   9  10
HETATM   10  C   UNL     1     -44.298  59.546 -56.936  1.00  0.00     0.188 C 
HETATM   11  O   UNL     1     -43.858  59.494 -58.309  1.00  0.00    -0.336 OA
HETATM   12  C   UNL     1     -43.013  60.525 -58.624  1.00  0.00     0.103 A 
HETATM   13  C   UNL     1     -42.895  61.683 -57.852  1.00  0.00     0.102 A 
HETATM   14  C   UNL     1     -42.246  60.372 -59.779  1.00  0.00     0.040 A 
HETATM   15  O   UNL     1     -43.627  61.912 -56.717  1.00  0.00    -0.345 OA
HETATM   16  C   UNL     1     -41.980  62.670 -58.213  1.00  0.00     0.039 A 
HETATM   17  C   UNL     1     -44.706  60.979 -56.580  1.00  0.00     0.213 C 
HETATM   18  C   UNL     1     -41.201  62.512 -59.361  1.00  0.00     0.003 A 
HETATM   19  C   UNL     1     -41.337  61.365 -60.146  1.00  0.00     0.003 A 
ENDBRANCH   9  10
BRANCH   1  20
HETATM   20  N   UNL     1     -44.245  56.573 -57.982  1.00  0.00    -0.366 N 
HETATM   21  H   UNL     1     -44.653  57.505 -57.918  1.00  0.00     0.162 HD
BRANCH  20  22
HETATM   22  C   UNL     1     -43.968  56.184 -59.374  1.00  0.00     0.021 C 
HETATM   23  C   UNL     1     -44.256  54.699 -59.633  1.00  0.00     0.037 C 
HETATM   24  C   UNL     1     -42.535  56.559 -59.776  1.00  0.00     0.037 C 
HETATM   25  C   UNL     1     -44.943  57.003 -60.249  1.00  0.00     0.037 C 
ENDBRANCH  20  22
ENDBRANCH   1  20
TORSDOF 3
ENDMDL
MODEL 8
REMARK VINA RESULT:      -5.6      2.842      5.638
REMARK  3 active torsions:
REMARK  status: ('A' for Active; 'I' for Inactive)
REMARK    1  A    between atoms: C_2  and  N_3 
REMARK    2  A    between atoms: N_3  and  C_4 
REMARK    3  A    between atoms: C_12  and  C_13 
ROOT
HETATM    1  C   UNL     1     -42.185  56.669 -53.314  1.00  0.00     0.139 A 
HETATM    2  N   UNL     1     -42.363  56.702 -51.976  1.00  0.00    -0.224 NA
HETATM    3  C   UNL     1     -43.359  57.432 -51.456  1.00  0.00     0.236 A 
HETATM    4  N   UNL     1     -44.249  58.169 -52.115  1.00  0.00    -0.234 NA
HETATM    5  C   UNL     1     -44.070  58.113 -53.444  1.00  0.00     0.113 A 
HETATM    6  C   UNL     1     -43.093  57.401 -54.127  1.00  0.00     0.055 A 
HETATM    7  S   UNL     1     -45.111  58.978 -54.472  1.00  0.00    -0.081 SA
HETATM    8  C   UNL     1     -44.299  58.418 -55.860  1.00  0.00     0.062 A 
HETATM    9  C   UNL     1     -43.240  57.573 -55.573  1.00  0.00    -0.003 A 
ENDROOT
BRANCH   9  10
HETATM   10  C   UNL     1     -42.342  56.908 -56.607  1.00  0.00     0.188 C 
HETATM   11  O   UNL     1     -41.734  57.886 -57.476  1.00  0.00    -0.336 OA
HETATM   12  C   UNL     1     -42.542  58.216 -58.532  1.00  0.00     0.103 A 
HETATM   13  C   UNL     1     -43.631  57.440 -58.937  1.00  0.00     0.102 A 
HETATM   14  C   UNL     1     -42.231  59.394 -59.211  1.00  0.00     0.040 A 
HETATM   15  O   UNL     1     -43.986  56.263 -58.332  1.00  0.00    -0.345 OA
HETATM   16  C   UNL     1     -44.433  57.864 -59.995  1.00  0.00     0.039 A 
HETATM   17  C   UNL     1     -42.965  55.788 -57.447  1.00  0.00     0.213 C 
HETATM   18  C   UNL     1     -44.132  59.050 -60.666  1.00  0.00     0.003 A 
HETATM   19  C   UNL     1     -43.029  59.813 -60.277  1.00  0.00     0.003 A 
ENDBRANCH   9  10
BRANCH   1  20
HETATM   20  N   UNL     1     -41.144  55.927 -53.862  1.00  0.00    -0.366 N 
HETATM   21  H   UNL     1     -40.253  56.264 -53.500  1.00  0.00     0.162 HD
BRANCH  20  22
HETATM   22  C   UNL     1     -41.172  54.461 -53.989  1.00  0.00     0.021 C 
HETATM   23  C   UNL     1     -40.235  53.953 -55.093  1.00  0.00     0.037 C 
HETATM   24  C   UNL     1     -42.606  53.952 -54.188  1.00  0.00     0.037 C 
HETATM   25  C   UNL     1     -40.647  53.906 -52.646  1.00  0.00     0.037 C 
ENDBRANCH  20  22
ENDBRANCH   1  20
TORSDOF 3
ENDMDL
MODEL 9
REMARK VINA RESULT:      -5.5      2.395      3.626
REMARK  3 active torsions:
REMARK  status: ('A' for Active; 'I' for Inactive)
REMARK    1  A    between atoms: C_2  and  N_3 
REMARK    2  A    between atoms: N_3  and  C_4 
REMARK    3  A    between atoms: C_12  and  C_13 
ROOT
HETATM    1  C   UNL     1     -43.318  57.764 -55.151  1.00  0.00     0.139 A 
HETATM    2  N   UNL     1     -44.409  57.831 -55.945  1.00  0.00    -0.224 NA
HETATM    3  C   UNL     1     -45.449  58.593 -55.583  1.00  0.00     0.236 A 
HETATM    4  N   UNL     1     -45.561  59.339 -54.487  1.00  0.00    -0.234 NA
HETATM    5  C   UNL     1     -44.464  59.277 -53.716  1.00  0.00     0.113 A 
HETATM    6  C   UNL     1     -43.312  58.540 -53.959  1.00  0.00     0.055 A 
HETATM    7  S   UNL     1     -44.397  60.167 -52.270  1.00  0.00    -0.081 SA
HETATM    8  C   UNL     1     -42.824  59.609 -51.931  1.00  0.00     0.062 A 
HETATM    9  C   UNL     1     -42.326  58.751 -52.898  1.00  0.00    -0.003 A 
ENDROOT
BRANCH   9  10
HETATM   10  C   UNL     1     -40.948  58.107 -52.874  1.00  0.00     0.188 C 
HETATM   11  O   UNL     1     -41.036  56.678 -53.048  1.00  0.00    -0.336 OA
HETATM   12  C   UNL     1     -41.256  56.022 -51.865  1.00  0.00     0.103 A 
HETATM   13  C   UNL     1     -41.038  56.604 -50.614  1.00  0.00     0.102 A 
HETATM   14  C   UNL     1     -41.723  54.712 -51.956  1.00  0.00     0.040 A 
HETATM   15  O   UNL     1     -40.563  57.877 -50.446  1.00  0.00    -0.345 OA
HETATM   16  C   UNL     1     -41.326  55.887 -49.454  1.00  0.00     0.039 A 
HETATM   17  C   UNL     1     -40.055  58.425 -51.669  1.00  0.00     0.213 C 
HETATM   18  C   UNL     1     -41.808  54.580 -49.544  1.00  0.00     0.003 A 
HETATM   19  C   UNL     1     -42.003  53.991 -50.795  1.00  0.00     0.003 A 
ENDBRANCH   9  10
BRANCH   1  20
HETATM   20  N   UNL     1     -42.240  56.963 -55.511  1.00  0.00    -0.366 N 
HETATM   21  H   UNL     1     -41.471  57.108 -54.858  1.00  0.00     0.162 HD
BRANCH  20  22
HETATM   22  C   UNL     1     -42.374  55.551 -55.904  1.00  0.00     0.021 C 
HETATM   23  C   UNL     1     -41.081  54.757 -55.676  1.00  0.00     0.037 C 
HETATM   24  C   UNL     1     -42.866  55.426 -57.352  1.00  0.00     0.037 C 
HETATM   25  C   UNL     1     -43.454  54.950 -54.975  1.00  0.00     0.037 C 
ENDBRANCH  20  22
ENDBRANCH   1  20
TORSDOF 3
ENDMDL
MODEL 10
REMARK VINA RESULT:      -5.4      2.935      6.307
REMARK  3 active torsions:
REMARK  status: ('A' for Active; 'I' for Inactive)
REMARK    1  A    between atoms: C_2  and  N_3 
REMARK    2  A    between atoms: N_3  and  C_4 
REMARK    3  A    between atoms: C_12  and  C_13 
ROOT
HETATM    1  C   UNL     1     -44.205  57.176 -52.413  1.00  0.00     0.139 A 
HETATM    2  N   UNL     1     -44.056  56.622 -51.190  1.00  0.00    -0.224 NA
HETATM    3  C   UNL     1     -43.464  55.427 -51.070  1.00  0.00     0.236 A 
HETATM    4  N   UNL     1     -42.972  54.667 -52.046  1.00  0.00    -0.234 NA
HETATM    5  C   UNL     1     -43.112  55.237 -53.253  1.00  0.00     0.113 A 
HETATM    6  C   UNL     1     -43.696  56.466 -53.534  1.00  0.00     0.055 A 
HETATM    7  S   UNL     1     -42.539  54.434 -54.637  1.00  0.00    -0.081 SA
HETATM    8  C   UNL     1     -43.038  55.707 -55.653  1.00  0.00     0.062 A 
HETATM    9  C   UNL     1     -43.638  56.752 -54.969  1.00  0.00    -0.003 A 
ENDROOT
BRANCH   9  10
HETATM   10  C   UNL     1     -44.169  58.027 -55.607  1.00  0.00     0.188 C 
HETATM   11  O   UNL     1     -44.842  57.747 -56.852  1.00  0.00    -0.336 OA
HETATM   12  C   UNL     1     -43.975  57.695 -57.911  1.00  0.00     0.103 A 
HETATM   13  C   UNL     1     -42.681  58.220 -57.870  1.00  0.00     0.102 A 
HETATM   14  C   UNL     1     -44.442  57.076 -59.069  1.00  0.00     0.040 A 
HETATM   15  O   UNL     1     -42.159  58.858 -56.776  1.00  0.00    -0.345 OA
HETATM   16  C   UNL     1     -41.842  58.090 -58.974  1.00  0.00     0.039 A 
HETATM   17  C   UNL     1     -43.168  59.171 -55.807  1.00  0.00     0.213 C 
HETATM   18  C   UNL     1     -42.303  57.457 -60.130  1.00  0.00     0.003 A 
HETATM   19  C   UNL     1     -43.605  56.954 -60.179  1.00  0.00     0.003 A 
ENDBRANCH   9  10
BRANCH   1  20
HETATM   20  N   UNL     1     -44.833  58.410 -52.550  1.00  0.00    -0.366 N 
HETATM   21  H   UNL     1     -45.824  58.318 -52.330  1.00  0.00     0.162 HD
BRANCH  20  22
HETATM   22  C   UNL     1     -44.266  59.669 -52.039  1.00  0.00     0.021 C 
HETATM   23  C   UNL     1     -42.733  59.694 -52.124  1.00  0.00     0.037 C 
HETATM   24  C   UNL     1     -44.757  59.957 -50.614  1.00  0.00     0.037 C 
HETATM   25  C   UNL     1     -44.798  60.784 -52.966  1.00  0.00     0.037 C 
ENDBRANCH  20  22
ENDBRANCH   1  20
TORSDOF 3
ENDMDL
