MODEL 1
REMARK VINA RESULT:      -8.8      0.000      0.000
REMARK  3 active torsions:
REMARK  status: ('A' for Active; 'I' for Inactive)
REMARK    1  A    between atoms: C_4  and  N_5 
REMARK       I    between atoms: N_5  and  C_6 
REMARK    2  A    between atoms: C_6  and  C_7 
REMARK    3  A    between atoms: C_7  and  N_8 
ROOT
HETATM    1  N   UNL     1     -42.455  57.531 -55.388  1.00  0.00    -0.224 N 
HETATM    2  N   UNL     1     -42.708  56.680 -56.480  1.00  0.00    -0.180 NA
HETATM    3  C   UNL     1     -42.606  57.152 -57.691  1.00  0.00     0.153 A 
HETATM    4  C   UNL     1     -42.259  58.526 -57.926  1.00  0.00     0.028 A 
HETATM    5  C   UNL     1     -42.034  59.343 -56.847  1.00  0.00     0.116 A 
HETATM    6  N   UNL     1     -41.713  60.588 -57.304  1.00  0.00    -0.350 N 
HETATM    7  H   UNL     1     -41.487  61.378 -56.715  1.00  0.00     0.166 HD
HETATM    8  C   UNL     1     -41.740  60.593 -58.684  1.00  0.00     0.044 A 
HETATM    9  C   UNL     1     -42.083  59.301 -59.102  1.00  0.00     0.005 A 
HETATM   10  C   UNL     1     -41.486  61.636 -59.583  1.00  0.00     0.030 A 
HETATM   11  C   UNL     1     -41.589  61.352 -60.947  1.00  0.00     0.002 A 
HETATM   12  C   UNL     1     -41.930  60.078 -61.394  1.00  0.00     0.001 A 
HETATM   13  C   UNL     1     -42.179  59.043 -60.484  1.00  0.00     0.014 A 
HETATM   14  C   UNL     1     -42.130  58.897 -55.491  1.00  0.00     0.291 A 
HETATM   15  O   UNL     1     -41.962  59.643 -54.530  1.00  0.00    -0.264 OA
ENDROOT
BRANCH   1  16
HETATM   16  C   UNL     1     -42.531  56.949 -54.056  1.00  0.00     0.258 C 
BRANCH  16  17
HETATM   17  C   UNL     1     -41.551  55.772 -53.910  1.00  0.00     0.244 C 
HETATM   18  N   UNL     1     -42.078  54.583 -53.362  1.00  0.00    -0.320 N 
HETATM   19  C   UNL     1     -43.506  54.407 -53.113  1.00  0.00     0.159 C 
HETATM   20  O   UNL     1     -40.383  55.875 -54.297  1.00  0.00    -0.271 OA
BRANCH  18  21
HETATM   21  C   UNL     1     -41.192  53.516 -52.969  1.00  0.00     0.043 A 
HETATM   22  C   UNL     1     -40.974  52.464 -53.884  1.00  0.00     0.037 A 
HETATM   23  C   UNL     1     -40.073  51.423 -53.624  1.00  0.00    -0.060 A 
HETATM   24  C   UNL     1     -39.866  50.319 -54.619  1.00  0.00     0.048 C 
HETATM   25  C   UNL     1     -39.353  51.438 -52.432  1.00  0.00     0.007 A 
HETATM   26  C   UNL     1     -39.561  52.458 -51.505  1.00  0.00     0.009 A 
HETATM   27  C   UNL     1     -40.492  53.490 -51.742  1.00  0.00    -0.035 A 
HETATM   28  C   UNL     1     -40.713  54.471 -50.624  1.00  0.00     0.050 C 
ENDBRANCH  18  21
ENDBRANCH  16  17
ENDBRANCH   1  16
TORSDOF 3
ENDMDL
MODEL 2
REMARK VINA RESULT:      -8.8      3.769      9.050
REMARK  3 active torsions:
REMARK  status: ('A' for Active; 'I' for Inactive)
REMARK    1  A    between atoms: C_4  and  N_5 
REMARK       I    between atoms: N_5  and  C_6 
REMARK    2  A    between atoms: C_6  and  C_7 
REMARK    3  A    between atoms: C_7  and  N_8 
ROOT
HETATM    1  N   UNL     1     -40.967  55.581 -50.932  1.00  0.00    -0.224 N 
HETATM    2  N   UNL     1     -41.135  55.673 -52.327  1.00  0.00    -0.180 NA
HETATM    3  C   UNL     1     -40.924  54.619 -53.064  1.00  0.00     0.153 A 
HETATM    4  C   UNL     1     -40.505  53.375 -52.479  1.00  0.00     0.028 A 
HETATM    5  C   UNL     1     -40.331  53.312 -51.119  1.00  0.00     0.116 A 
HETATM    6  N   UNL     1     -39.946  52.045 -50.790  1.00  0.00    -0.350 N 
HETATM    7  H   UNL     1     -39.763  51.725 -49.848  1.00  0.00     0.166 HD
HETATM    8  C   UNL     1     -39.854  51.279 -51.934  1.00  0.00     0.044 A 
HETATM    9  C   UNL     1     -40.203  52.097 -53.016  1.00  0.00     0.005 A 
HETATM   10  C   UNL     1     -39.495  49.935 -52.087  1.00  0.00     0.030 A 
HETATM   11  C   UNL     1     -39.488  49.412 -53.384  1.00  0.00     0.002 A 
HETATM   12  C   UNL     1     -39.828  50.200 -54.480  1.00  0.00     0.001 A 
HETATM   13  C   UNL     1     -40.188  51.543 -54.311  1.00  0.00     0.014 A 
HETATM   14  C   UNL     1     -40.541  54.427 -50.248  1.00  0.00     0.291 A 
HETATM   15  O   UNL     1     -40.349  54.372 -49.037  1.00  0.00    -0.264 OA
ENDROOT
BRANCH   1  16
HETATM   16  C   UNL     1     -41.264  56.768 -50.145  1.00  0.00     0.258 C 
BRANCH  16  17
HETATM   17  C   UNL     1     -42.052  57.798 -50.971  1.00  0.00     0.244 C 
HETATM   18  N   UNL     1     -41.358  58.972 -51.336  1.00  0.00    -0.320 N 
HETATM   19  C   UNL     1     -39.926  59.132 -51.105  1.00  0.00     0.159 C 
HETATM   20  O   UNL     1     -43.215  57.568 -51.320  1.00  0.00    -0.271 OA
BRANCH  18  21
HETATM   21  C   UNL     1     -42.076  60.088 -51.900  1.00  0.00     0.043 A 
HETATM   22  C   UNL     1     -42.645  61.027 -51.014  1.00  0.00     0.037 A 
HETATM   23  C   UNL     1     -43.295  62.183 -51.466  1.00  0.00    -0.060 A 
HETATM   24  C   UNL     1     -43.890  63.160 -50.496  1.00  0.00     0.048 C 
HETATM   25  C   UNL     1     -43.365  62.421 -52.836  1.00  0.00     0.007 A 
HETATM   26  C   UNL     1     -42.825  61.502 -53.734  1.00  0.00     0.009 A 
HETATM   27  C   UNL     1     -42.200  60.319 -53.288  1.00  0.00    -0.035 A 
HETATM   28  C   UNL     1     -41.756  59.349 -54.348  1.00  0.00     0.050 C 
ENDBRANCH  18  21
ENDBRANCH  16  17
ENDBRANCH   1  16
TORSDOF 3
ENDMDL
MODEL 3
REMARK VINA RESULT:      -8.7      4.008      5.579
REMARK  3 active torsions:
REMARK  status: ('A' for Active; 'I' for Inactive)
REMARK    1  A    between atoms: C_4  and  N_5 
REMARK       I    between atoms: N_5  and  C_6 
REMARK    2  A    between atoms: C_6  and  C_7 
REMARK    3  A    between atoms: C_7  and  N_8 
ROOT
HETATM    1  N   UNL     1     -43.832  56.991 -53.679  1.00  0.00    -0.224 N 
HETATM    2  N   UNL     1     -43.356  57.000 -52.355  1.00  0.00    -0.180 NA
HETATM    3  C   UNL     1     -43.763  57.932 -51.540  1.00  0.00     0.153 A 
HETATM    4  C   UNL     1     -44.671  58.957 -51.976  1.00  0.00     0.028 A 
HETATM    5  C   UNL     1     -45.109  58.939 -53.276  1.00  0.00     0.116 A 
HETATM    6  N   UNL     1     -45.960  59.988 -53.461  1.00  0.00    -0.350 N 
HETATM    7  H   UNL     1     -46.436  60.199 -54.329  1.00  0.00     0.166 HD
HETATM    8  C   UNL     1     -46.072  60.704 -52.287  1.00  0.00     0.044 A 
HETATM    9  C   UNL     1     -45.266  60.072 -51.332  1.00  0.00     0.005 A 
HETATM   10  C   UNL     1     -46.823  61.851 -52.003  1.00  0.00     0.030 A 
HETATM   11  C   UNL     1     -46.745  62.369 -50.707  1.00  0.00     0.002 A 
HETATM   12  C   UNL     1     -45.951  61.765 -49.736  1.00  0.00     0.001 A 
HETATM   13  C   UNL     1     -45.207  60.616 -50.033  1.00  0.00     0.014 A 
HETATM   14  C   UNL     1     -44.704  57.950 -54.227  1.00  0.00     0.291 A 
HETATM   15  O   UNL     1     -45.073  57.962 -55.399  1.00  0.00    -0.264 OA
ENDROOT
BRANCH   1  16
HETATM   16  C   UNL     1     -43.391  55.902 -54.539  1.00  0.00     0.258 C 
BRANCH  16  17
HETATM   17  C   UNL     1     -42.801  54.748 -53.711  1.00  0.00     0.244 C 
HETATM   18  N   UNL     1     -41.406  54.554 -53.812  1.00  0.00    -0.320 N 
HETATM   19  C   UNL     1     -40.539  55.496 -54.513  1.00  0.00     0.159 C 
HETATM   20  O   UNL     1     -43.523  54.068 -52.974  1.00  0.00    -0.271 OA
BRANCH  18  21
HETATM   21  C   UNL     1     -40.803  53.363 -53.267  1.00  0.00     0.043 A 
HETATM   22  C   UNL     1     -40.630  52.256 -54.124  1.00  0.00     0.037 A 
HETATM   23  C   UNL     1     -39.986  51.083 -53.708  1.00  0.00    -0.060 A 
HETATM   24  C   UNL     1     -39.820  49.923 -54.646  1.00  0.00     0.048 C 
HETATM   25  C   UNL     1     -39.483  51.016 -52.412  1.00  0.00     0.007 A 
HETATM   26  C   UNL     1     -39.654  52.090 -51.540  1.00  0.00     0.009 A 
HETATM   27  C   UNL     1     -40.332  53.261 -51.940  1.00  0.00    -0.035 A 
HETATM   28  C   UNL     1     -40.555  54.307 -50.882  1.00  0.00     0.050 C 
ENDBRANCH  18  21
ENDBRANCH  16  17
ENDBRANCH   1  16
TORSDOF 3
ENDMDL
MODEL 4
REMARK VINA RESULT:      -8.7      3.787      8.663
REMARK  3 active torsions:
REMARK  status: ('A' for Active; 'I' for Inactive)
REMARK    1  A    between atoms: C_4  and  N_5 
REMARK       I    between atoms: N_5  and  C_6 
REMARK    2  A    between atoms: C_6  and  C_7 
REMARK    3  A    between atoms: C_7  and  N_8 
ROOT
HETATM    1  N   UNL     1     -41.138  55.762 -51.330  1.00  0.00    -0.224 N 
HETATM    2  N   UNL     1     -41.209  55.708 -52.734  1.00  0.00    -0.180 NA
HETATM    3  C   UNL     1     -40.934  54.589 -53.342  1.00  0.00     0.153 A 
HETATM    4  C   UNL     1     -40.543  53.419 -52.605  1.00  0.00     0.028 A 
HETATM    5  C   UNL     1     -40.464  53.498 -51.238  1.00  0.00     0.116 A 
HETATM    6  N   UNL     1     -40.088  52.279 -50.754  1.00  0.00    -0.350 N 
HETATM    7  H   UNL     1     -39.968  52.060 -49.773  1.00  0.00     0.166 HD
HETATM    8  C   UNL     1     -39.908  51.402 -51.803  1.00  0.00     0.044 A 
HETATM    9  C   UNL     1     -40.190  52.099 -52.985  1.00  0.00     0.005 A 
HETATM   10  C   UNL     1     -39.523  50.057 -51.792  1.00  0.00     0.030 A 
HETATM   11  C   UNL     1     -39.419  49.404 -53.024  1.00  0.00     0.002 A 
HETATM   12  C   UNL     1     -39.691  50.070 -54.217  1.00  0.00     0.001 A 
HETATM   13  C   UNL     1     -40.077  51.416 -54.213  1.00  0.00     0.014 A 
HETATM   14  C   UNL     1     -40.748  54.692 -50.503  1.00  0.00     0.291 A 
HETATM   15  O   UNL     1     -40.640  54.765 -49.282  1.00  0.00    -0.264 OA
ENDROOT
BRANCH   1  16
HETATM   16  C   UNL     1     -41.503  57.018 -50.691  1.00  0.00     0.258 C 
BRANCH  16  17
HETATM   17  C   UNL     1     -42.192  57.966 -51.687  1.00  0.00     0.244 C 
HETATM   18  N   UNL     1     -43.591  57.825 -51.821  1.00  0.00    -0.320 N 
HETATM   19  C   UNL     1     -44.372  56.962 -50.942  1.00  0.00     0.159 C 
HETATM   20  O   UNL     1     -41.541  58.823 -52.294  1.00  0.00    -0.271 OA
BRANCH  18  21
HETATM   21  C   UNL     1     -44.284  58.497 -52.891  1.00  0.00     0.043 A 
HETATM   22  C   UNL     1     -44.774  59.798 -52.650  1.00  0.00     0.037 A 
HETATM   23  C   UNL     1     -45.393  60.560 -53.650  1.00  0.00    -0.060 A 
HETATM   24  C   UNL     1     -45.904  61.940 -53.358  1.00  0.00     0.048 C 
HETATM   25  C   UNL     1     -45.510  60.023 -54.929  1.00  0.00     0.007 A 
HETATM   26  C   UNL     1     -45.047  58.734 -55.190  1.00  0.00     0.009 A 
HETATM   27  C   UNL     1     -44.455  57.947 -54.181  1.00  0.00    -0.035 A 
HETATM   28  C   UNL     1     -44.098  56.533 -54.550  1.00  0.00     0.050 C 
ENDBRANCH  18  21
ENDBRANCH  16  17
ENDBRANCH   1  16
TORSDOF 3
ENDMDL
MODEL 5
REMARK VINA RESULT:      -8.5      2.541      8.547
REMARK  3 active torsions:
REMARK  status: ('A' for Active; 'I' for Inactive)
REMARK    1  A    between atoms: C_4  and  N_5 
REMARK       I    between atoms: N_5  and  C_6 
REMARK    2  A    between atoms: C_6  and  C_7 
REMARK    3  A    between atoms: C_7  and  N_8 
ROOT
HETATM    1  N   UNL     1     -41.542  56.009 -54.378  1.00  0.00    -0.224 N 
HETATM    2  N   UNL     1     -41.370  55.174 -55.497  1.00  0.00    -0.180 NA
HETATM    3  C   UNL     1     -40.983  53.942 -55.317  1.00  0.00     0.153 A 
HETATM    4  C   UNL     1     -40.713  53.432 -54.002  1.00  0.00     0.028 A 
HETATM    5  C   UNL     1     -40.870  54.269 -52.926  1.00  0.00     0.116 A 
HETATM    6  N   UNL     1     -40.571  53.576 -51.789  1.00  0.00    -0.350 N 
HETATM    7  H   UNL     1     -40.619  53.955 -50.853  1.00  0.00     0.166 HD
HETATM    8  C   UNL     1     -40.204  52.287 -52.119  1.00  0.00     0.044 A 
HETATM    9  C   UNL     1     -40.285  52.171 -53.512  1.00  0.00     0.005 A 
HETATM   10  C   UNL     1     -39.813  51.227 -51.294  1.00  0.00     0.030 A 
HETATM   11  C   UNL     1     -39.492  50.013 -51.909  1.00  0.00     0.002 A 
HETATM   12  C   UNL     1     -39.560  49.867 -53.292  1.00  0.00     0.001 A 
HETATM   13  C   UNL     1     -39.956  50.936 -54.106  1.00  0.00     0.014 A 
HETATM   14  C   UNL     1     -41.289  55.632 -53.046  1.00  0.00     0.291 A 
HETATM   15  O   UNL     1     -41.394  56.384 -52.081  1.00  0.00    -0.264 OA
ENDROOT
BRANCH   1  16
HETATM   16  C   UNL     1     -42.025  57.361 -54.622  1.00  0.00     0.258 C 
BRANCH  16  17
HETATM   17  C   UNL     1     -43.384  57.342 -55.340  1.00  0.00     0.244 C 
HETATM   18  N   UNL     1     -43.420  57.917 -56.629  1.00  0.00    -0.320 N 
HETATM   19  C   UNL     1     -42.210  58.345 -57.323  1.00  0.00     0.159 C 
HETATM   20  O   UNL     1     -44.367  56.808 -54.814  1.00  0.00    -0.271 OA
BRANCH  18  21
HETATM   21  C   UNL     1     -44.686  58.158 -57.276  1.00  0.00     0.043 A 
HETATM   22  C   UNL     1     -45.057  57.313 -58.343  1.00  0.00     0.037 A 
HETATM   23  C   UNL     1     -46.299  57.420 -58.983  1.00  0.00    -0.060 A 
HETATM   24  C   UNL     1     -46.660  56.506 -60.117  1.00  0.00     0.048 C 
HETATM   25  C   UNL     1     -47.204  58.379 -58.538  1.00  0.00     0.007 A 
HETATM   26  C   UNL     1     -46.857  59.236 -57.495  1.00  0.00     0.009 A 
HETATM   27  C   UNL     1     -45.596  59.159 -56.869  1.00  0.00    -0.035 A 
HETATM   28  C   UNL     1     -45.290  60.208 -55.834  1.00  0.00     0.050 C 
ENDBRANCH  18  21
ENDBRANCH  16  17
ENDBRANCH   1  16
TORSDOF 3
ENDMDL
MODEL 6
REMARK VINA RESULT:      -8.3      1.573      8.292
REMARK  3 active torsions:
REMARK  status: ('A' for Active; 'I' for Inactive)
REMARK    1  A    between atoms: C_4  and  N_5 
REMARK       I    between atoms: N_5  and  C_6 
REMARK    2  A    between atoms: C_6  and  C_7 
REMARK    3  A    between atoms: C_7  and  N_8 
ROOT
HETATM    1  N   UNL     1     -42.004  56.188 -53.330  1.00  0.00    -0.224 N 
HETATM    2  N   UNL     1     -42.155  55.560 -54.581  1.00  0.00    -0.180 NA
HETATM    3  C   UNL     1     -41.734  54.336 -54.732  1.00  0.00     0.153 A 
HETATM    4  C   UNL     1     -41.105  53.627 -53.652  1.00  0.00     0.028 A 
HETATM    5  C   UNL     1     -40.953  54.264 -52.446  1.00  0.00     0.116 A 
HETATM    6  N   UNL     1     -40.347  53.406 -51.576  1.00  0.00    -0.350 N 
HETATM    7  H   UNL     1     -40.128  53.622 -50.612  1.00  0.00     0.166 HD
HETATM    8  C   UNL     1     -40.088  52.210 -52.213  1.00  0.00     0.044 A 
HETATM    9  C   UNL     1     -40.559  52.324 -53.527  1.00  0.00     0.005 A 
HETATM   10  C   UNL     1     -39.482  51.046 -51.725  1.00  0.00     0.030 A 
HETATM   11  C   UNL     1     -39.349  49.969 -52.606  1.00  0.00     0.002 A 
HETATM   12  C   UNL     1     -39.805  50.053 -53.919  1.00  0.00     0.001 A 
HETATM   13  C   UNL     1     -40.412  51.222 -54.393  1.00  0.00     0.014 A 
HETATM   14  C   UNL     1     -41.386  55.606 -52.207  1.00  0.00     0.291 A 
HETATM   15  O   UNL     1     -41.214  56.182 -51.136  1.00  0.00    -0.264 OA
ENDROOT
BRANCH   1  16
HETATM   16  C   UNL     1     -42.534  57.537 -53.193  1.00  0.00     0.258 C 
BRANCH  16  17
HETATM   17  C   UNL     1     -42.150  58.408 -54.401  1.00  0.00     0.244 C 
HETATM   18  N   UNL     1     -43.149  58.594 -55.382  1.00  0.00    -0.320 N 
HETATM   19  C   UNL     1     -44.523  58.144 -55.187  1.00  0.00     0.159 C 
HETATM   20  O   UNL     1     -41.036  58.938 -54.466  1.00  0.00    -0.271 OA
BRANCH  18  21
HETATM   21  C   UNL     1     -42.810  59.190 -56.650  1.00  0.00     0.043 A 
HETATM   22  C   UNL     1     -42.438  58.333 -57.707  1.00  0.00     0.037 A 
HETATM   23  C   UNL     1     -42.165  58.811 -58.996  1.00  0.00    -0.060 A 
HETATM   24  C   UNL     1     -41.770  57.872 -60.097  1.00  0.00     0.048 C 
HETATM   25  C   UNL     1     -42.286  60.175 -59.246  1.00  0.00     0.007 A 
HETATM   26  C   UNL     1     -42.637  61.046 -58.215  1.00  0.00     0.009 A 
HETATM   27  C   UNL     1     -42.879  60.577 -56.907  1.00  0.00    -0.035 A 
HETATM   28  C   UNL     1     -43.139  61.619 -55.854  1.00  0.00     0.050 C 
ENDBRANCH  18  21
ENDBRANCH  16  17
ENDBRANCH   1  16
TORSDOF 3
ENDMDL
MODEL 7
REMARK VINA RESULT:      -8.2      2.302      2.873
REMARK  3 active torsions:
REMARK  status: ('A' for Active; 'I' for Inactive)
REMARK    1  A    between atoms: C_4  and  N_5 
REMARK       I    between atoms: N_5  and  C_6 
REMARK    2  A    between atoms: C_6  and  C_7 
REMARK    3  A    between atoms: C_7  and  N_8 
ROOT
HETATM    1  N   UNL     1     -42.752  57.155 -54.784  1.00  0.00    -0.224 N 
HETATM    2  N   UNL     1     -42.045  57.048 -55.996  1.00  0.00    -0.180 NA
HETATM    3  C   UNL     1     -42.667  57.281 -57.118  1.00  0.00     0.153 A 
HETATM    4  C   UNL     1     -44.062  57.626 -57.136  1.00  0.00     0.028 A 
HETATM    5  C   UNL     1     -44.736  57.707 -55.944  1.00  0.00     0.116 A 
HETATM    6  N   UNL     1     -46.030  58.054 -56.201  1.00  0.00    -0.350 N 
HETATM    7  H   UNL     1     -46.741  58.195 -55.494  1.00  0.00     0.166 HD
HETATM    8  C   UNL     1     -46.211  58.187 -57.562  1.00  0.00     0.044 A 
HETATM    9  C   UNL     1     -44.980  57.921 -58.176  1.00  0.00     0.005 A 
HETATM   10  C   UNL     1     -47.360  58.524 -58.287  1.00  0.00     0.030 A 
HETATM   11  C   UNL     1     -47.251  58.586 -59.679  1.00  0.00     0.002 A 
HETATM   12  C   UNL     1     -46.042  58.325 -60.319  1.00  0.00     0.001 A 
HETATM   13  C   UNL     1     -44.899  57.993 -59.581  1.00  0.00     0.014 A 
HETATM   14  C   UNL     1     -44.121  57.463 -54.676  1.00  0.00     0.291 A 
HETATM   15  O   UNL     1     -44.740  57.503 -53.616  1.00  0.00    -0.264 OA
ENDROOT
BRANCH   1  16
HETATM   16  C   UNL     1     -42.004  56.936 -53.554  1.00  0.00     0.258 C 
BRANCH  16  17
HETATM   17  C   UNL     1     -41.209  55.621 -53.617  1.00  0.00     0.244 C 
HETATM   18  N   UNL     1     -41.765  54.519 -52.932  1.00  0.00    -0.320 N 
HETATM   19  C   UNL     1     -43.102  54.561 -52.348  1.00  0.00     0.159 C 
HETATM   20  O   UNL     1     -40.165  55.548 -54.273  1.00  0.00    -0.271 OA
BRANCH  18  21
HETATM   21  C   UNL     1     -40.984  53.323 -52.736  1.00  0.00     0.043 A 
HETATM   22  C   UNL     1     -40.970  52.363 -53.770  1.00  0.00     0.037 A 
HETATM   23  C   UNL     1     -40.182  51.206 -53.704  1.00  0.00    -0.060 A 
HETATM   24  C   UNL     1     -40.192  50.205 -54.821  1.00  0.00     0.048 C 
HETATM   25  C   UNL     1     -39.371  51.008 -52.590  1.00  0.00     0.007 A 
HETATM   26  C   UNL     1     -39.377  51.934 -51.548  1.00  0.00     0.009 A 
HETATM   27  C   UNL     1     -40.194  53.082 -51.590  1.00  0.00    -0.035 A 
HETATM   28  C   UNL     1     -40.204  53.950 -50.361  1.00  0.00     0.050 C 
ENDBRANCH  18  21
ENDBRANCH  16  17
ENDBRANCH   1  16
TORSDOF 3
ENDMDL
MODEL 8
REMARK VINA RESULT:      -8.2      1.432      8.495
REMARK  3 active torsions:
REMARK  status: ('A' for Active; 'I' for Inactive)
REMARK    1  A    between atoms: C_4  and  N_5 
REMARK       I    between atoms: N_5  and  C_6 
REMARK    2  A    between atoms: C_6  and  C_7 
REMARK    3  A    between atoms: C_7  and  N_8 
ROOT
HETATM    1  N   UNL     1     -42.658  56.894 -54.793  1.00  0.00    -0.224 N 
HETATM    2  N   UNL     1     -42.450  56.009 -55.867  1.00  0.00    -0.180 NA
HETATM    3  C   UNL     1     -41.855  54.870 -55.647  1.00  0.00     0.153 A 
HETATM    4  C   UNL     1     -41.393  54.515 -54.333  1.00  0.00     0.028 A 
HETATM    5  C   UNL     1     -41.590  55.401 -53.304  1.00  0.00     0.116 A 
HETATM    6  N   UNL     1     -41.085  54.855 -52.160  1.00  0.00    -0.350 N 
HETATM    7  H   UNL     1     -41.112  55.296 -51.250  1.00  0.00     0.166 HD
HETATM    8  C   UNL     1     -40.544  53.617 -52.439  1.00  0.00     0.044 A 
HETATM    9  C   UNL     1     -40.726  53.379 -53.808  1.00  0.00     0.005 A 
HETATM   10  C   UNL     1     -39.916  52.699 -51.589  1.00  0.00     0.030 A 
HETATM   11  C   UNL     1     -39.458  51.505 -52.153  1.00  0.00     0.002 A 
HETATM   12  C   UNL     1     -39.622  51.240 -53.510  1.00  0.00     0.001 A 
HETATM   13  C   UNL     1     -40.254  52.166 -54.349  1.00  0.00     0.014 A 
HETATM   14  C   UNL     1     -42.232  56.668 -53.471  1.00  0.00     0.291 A 
HETATM   15  O   UNL     1     -42.373  57.470 -52.552  1.00  0.00    -0.264 OA
ENDROOT
BRANCH   1  16
HETATM   16  C   UNL     1     -43.372  58.130 -55.077  1.00  0.00     0.258 C 
BRANCH  16  17
HETATM   17  C   UNL     1     -42.802  58.825 -56.325  1.00  0.00     0.244 C 
HETATM   18  N   UNL     1     -43.626  58.829 -57.471  1.00  0.00    -0.320 N 
HETATM   19  C   UNL     1     -45.010  58.365 -57.435  1.00  0.00     0.159 C 
HETATM   20  O   UNL     1     -41.698  59.378 -56.288  1.00  0.00    -0.271 OA
BRANCH  18  21
HETATM   21  C   UNL     1     -43.089  59.241 -58.744  1.00  0.00     0.043 A 
HETATM   22  C   UNL     1     -43.134  60.613 -59.070  1.00  0.00     0.037 A 
HETATM   23  C   UNL     1     -42.570  61.119 -60.248  1.00  0.00    -0.060 A 
HETATM   24  C   UNL     1     -42.638  62.584 -60.565  1.00  0.00     0.048 C 
HETATM   25  C   UNL     1     -41.926  60.242 -61.116  1.00  0.00     0.007 A 
HETATM   26  C   UNL     1     -41.880  58.880 -60.825  1.00  0.00     0.009 A 
HETATM   27  C   UNL     1     -42.476  58.356 -59.659  1.00  0.00    -0.035 A 
HETATM   28  C   UNL     1     -42.463  56.860 -59.507  1.00  0.00     0.050 C 
ENDBRANCH  18  21
ENDBRANCH  16  17
ENDBRANCH   1  16
TORSDOF 3
ENDMDL
MODEL 9
REMARK VINA RESULT:      -8.1      3.810      5.846
REMARK  3 active torsions:
REMARK  status: ('A' for Active; 'I' for Inactive)
REMARK    1  A    between atoms: C_4  and  N_5 
REMARK       I    between atoms: N_5  and  C_6 
REMARK    2  A    between atoms: C_6  and  C_7 
REMARK    3  A    between atoms: C_7  and  N_8 
ROOT
HETATM    1  N   UNL     1     -43.171  58.148 -53.393  1.00  0.00    -0.224 N 
HETATM    2  N   UNL     1     -44.144  57.595 -52.540  1.00  0.00    -0.180 NA
HETATM    3  C   UNL     1     -44.596  58.306 -51.546  1.00  0.00     0.153 A 
HETATM    4  C   UNL     1     -44.104  59.633 -51.297  1.00  0.00     0.028 A 
HETATM    5  C   UNL     1     -43.143  60.147 -52.131  1.00  0.00     0.116 A 
HETATM    6  N   UNL     1     -42.838  61.410 -51.716  1.00  0.00    -0.350 N 
HETATM    7  H   UNL     1     -42.166  62.018 -52.166  1.00  0.00     0.166 HD
HETATM    8  C   UNL     1     -43.588  61.722 -50.601  1.00  0.00     0.044 A 
HETATM    9  C   UNL     1     -44.398  60.615 -50.316  1.00  0.00     0.005 A 
HETATM   10  C   UNL     1     -43.612  62.893 -49.835  1.00  0.00     0.030 A 
HETATM   11  C   UNL     1     -44.484  62.934 -48.743  1.00  0.00     0.002 A 
HETATM   12  C   UNL     1     -45.300  61.848 -48.433  1.00  0.00     0.001 A 
HETATM   13  C   UNL     1     -45.268  60.684 -49.210  1.00  0.00     0.014 A 
HETATM   14  C   UNL     1     -42.598  59.424 -53.240  1.00  0.00     0.291 A 
HETATM   15  O   UNL     1     -41.713  59.877 -53.960  1.00  0.00    -0.264 OA
ENDROOT
BRANCH   1  16
HETATM   16  C   UNL     1     -42.733  57.336 -54.520  1.00  0.00     0.258 C 
BRANCH  16  17
HETATM   17  C   UNL     1     -41.751  56.243 -54.066  1.00  0.00     0.244 C 
HETATM   18  N   UNL     1     -42.288  54.949 -53.897  1.00  0.00    -0.320 N 
HETATM   19  C   UNL     1     -43.650  54.614 -54.300  1.00  0.00     0.159 C 
HETATM   20  O   UNL     1     -40.553  56.501 -53.905  1.00  0.00    -0.271 OA
BRANCH  18  21
HETATM   21  C   UNL     1     -41.507  53.923 -53.253  1.00  0.00     0.043 A 
HETATM   22  C   UNL     1     -41.032  52.855 -54.043  1.00  0.00     0.037 A 
HETATM   23  C   UNL     1     -40.204  51.852 -53.524  1.00  0.00    -0.060 A 
HETATM   24  C   UNL     1     -39.718  50.730 -54.394  1.00  0.00     0.048 C 
HETATM   25  C   UNL     1     -39.820  51.922 -52.188  1.00  0.00     0.007 A 
HETATM   26  C   UNL     1     -40.287  52.958 -51.381  1.00  0.00     0.009 A 
HETATM   27  C   UNL     1     -41.150  53.952 -51.886  1.00  0.00    -0.035 A 
HETATM   28  C   UNL     1     -41.680  54.954 -50.897  1.00  0.00     0.050 C 
ENDBRANCH  18  21
ENDBRANCH  16  17
ENDBRANCH   1  16
TORSDOF 3
ENDMDL
MODEL 10
REMARK VINA RESULT:      -8.0      4.548      6.850
REMARK  3 active torsions:
REMARK  status: ('A' for Active; 'I' for Inactive)
REMARK    1  A    between atoms: C_4  and  N_5 
REMARK       I    between atoms: N_5  and  C_6 
REMARK    2  A    between atoms: C_6  and  C_7 
REMARK    3  A    between atoms: C_7  and  N_8 
ROOT
HETATM    1  N   UNL     1     -43.515  58.738 -52.731  1.00  0.00    -0.224 N 
HETATM    2  N   UNL     1     -42.839  59.951 -52.964  1.00  0.00    -0.180 NA
HETATM    3  C   UNL     1     -42.990  60.934 -52.121  1.00  0.00     0.153 A 
HETATM    4  C   UNL     1     -43.846  60.805 -50.974  1.00  0.00     0.028 A 
HETATM    5  C   UNL     1     -44.509  59.621 -50.776  1.00  0.00     0.116 A 
HETATM    6  N   UNL     1     -45.247  59.722 -49.633  1.00  0.00    -0.350 N 
HETATM    7  H   UNL     1     -45.821  58.983 -49.250  1.00  0.00     0.166 HD
HETATM    8  C   UNL     1     -45.080  60.978 -49.087  1.00  0.00     0.044 A 
HETATM    9  C   UNL     1     -44.198  61.683 -49.917  1.00  0.00     0.005 A 
HETATM   10  C   UNL     1     -45.637  61.534 -47.930  1.00  0.00     0.030 A 
HETATM   11  C   UNL     1     -45.286  62.850 -47.612  1.00  0.00     0.002 A 
HETATM   12  C   UNL     1     -44.414  63.577 -48.418  1.00  0.00     0.001 A 
HETATM   13  C   UNL     1     -43.862  63.007 -49.572  1.00  0.00     0.014 A 
HETATM   14  C   UNL     1     -44.395  58.500 -51.659  1.00  0.00     0.291 A 
HETATM   15  O   UNL     1     -45.019  57.455 -51.494  1.00  0.00    -0.264 OA
ENDROOT
BRANCH   1  16
HETATM   16  C   UNL     1     -43.278  57.652 -53.671  1.00  0.00     0.258 C 
BRANCH  16  17
HETATM   17  C   UNL     1     -42.134  56.743 -53.188  1.00  0.00     0.244 C 
HETATM   18  N   UNL     1     -42.391  55.355 -53.195  1.00  0.00    -0.320 N 
HETATM   19  C   UNL     1     -43.598  54.791 -53.791  1.00  0.00     0.159 C 
HETATM   20  O   UNL     1     -41.045  57.224 -52.858  1.00  0.00    -0.271 OA
BRANCH  18  21
HETATM   21  C   UNL     1     -41.477  54.450 -52.544  1.00  0.00     0.043 A 
HETATM   22  C   UNL     1     -41.438  54.447 -51.134  1.00  0.00     0.037 A 
HETATM   23  C   UNL     1     -40.640  53.552 -50.410  1.00  0.00    -0.060 A 
HETATM   24  C   UNL     1     -40.621  53.578 -48.910  1.00  0.00     0.048 C 
HETATM   25  C   UNL     1     -39.874  52.621 -51.106  1.00  0.00     0.007 A 
HETATM   26  C   UNL     1     -39.883  52.612 -52.500  1.00  0.00     0.009 A 
HETATM   27  C   UNL     1     -40.656  53.533 -53.237  1.00  0.00    -0.035 A 
HETATM   28  C   UNL     1     -40.499  53.503 -54.733  1.00  0.00     0.050 C 
ENDBRANCH  18  21
ENDBRANCH  16  17
ENDBRANCH   1  16
TORSDOF 3
ENDMDL
