MODEL 1
REMARK VINA RESULT:      -8.7      0.000      0.000
REMARK  8 active torsions:
REMARK  status: ('A' for Active; 'I' for Inactive)
REMARK    1  A    between atoms: C_2  and  C_3 
REMARK    2  A    between atoms: C_3  and  O_4 
REMARK    3  A    between atoms: O_4  and  C_5 
REMARK    4  A    between atoms: C_7  and  C_8 
REMARK    5  A    between atoms: N_9  and  C_10 
REMARK    6  A    between atoms: C_10  and  C_11 
REMARK    7  A    between atoms: C_24  and  C_25 
REMARK    8  A    between atoms: C_26  and  O_27 
ROOT
HETATM    1  C   UNL     1     -42.749  54.368 -53.350  1.00  0.00     0.159 A 
HETATM    2  N   UNL     1     -43.208  55.452 -54.263  1.00  0.00    -0.329 N 
HETATM    3  C   UNL     1     -42.411  55.614 -55.398  1.00  0.00     0.273 A 
HETATM    4  O   UNL     1     -42.563  56.383 -56.330  1.00  0.00    -0.266 OA
HETATM    5  C   UNL     1     -41.392  54.651 -55.225  1.00  0.00     0.129 A 
HETATM    6  C   UNL     1     -41.548  53.914 -54.087  1.00  0.00     0.034 A 
HETATM    7  N   UNL     1     -40.287  54.223 -55.851  1.00  0.00    -0.272 N 
HETATM    8  H   UNL     1     -39.873  54.549 -56.720  1.00  0.00     0.189 HD
HETATM    9  N   UNL     1     -39.683  53.221 -55.161  1.00  0.00    -0.173 NA
HETATM   10  C   UNL     1     -40.491  52.986 -54.092  1.00  0.00     0.101 A 
ENDROOT
BRANCH   1  11
HETATM   11  C   UNL     1     -42.292  54.871 -52.001  1.00  0.00    -0.028 A 
HETATM   12  C   UNL     1     -41.472  56.011 -51.928  1.00  0.00     0.046 A 
HETATM   13  C   UNL     1     -41.040  56.524 -50.700  1.00  0.00     0.069 A 
HETATM   14  C   UNL     1     -41.415  55.884 -49.520  1.00  0.00     0.037 A 
HETATM   15  C   UNL     1     -42.220  54.745 -49.570  1.00  0.00     0.003 A 
HETATM   16  C   UNL     1     -42.656  54.243 -50.797  1.00  0.00     0.010 A 
BRANCH  13  17
HETATM   17  O   UNL     1     -40.261  57.644 -50.795  1.00  0.00    -0.348 OA
BRANCH  17  18
HETATM   18  C   UNL     1     -40.843  58.874 -50.367  1.00  0.00     0.202 C 
BRANCH  18  19
HETATM   19  C   UNL     1     -39.741  59.888 -50.285  1.00  0.00    -0.011 C 
HETATM   20  C   UNL     1     -38.434  59.604 -50.363  1.00  0.00     0.009 C 
ENDBRANCH  18  19
ENDBRANCH  17  18
ENDBRANCH  13  17
ENDBRANCH   1  11
BRANCH   2  21
HETATM   21  C   UNL     1     -44.461  56.147 -54.067  1.00  0.00     0.165 C 
BRANCH  21  22
HETATM   22  C   UNL     1     -44.286  57.410 -53.265  1.00  0.00    -0.037 A 
HETATM   23  C   UNL     1     -44.772  57.506 -51.958  1.00  0.00     0.028 A 
HETATM   24  C   UNL     1     -44.589  58.694 -51.268  1.00  0.00     0.116 A 
HETATM   25  N   UNL     1     -43.971  59.777 -51.785  1.00  0.00    -0.273 NA
HETATM   26  C   UNL     1     -43.507  59.665 -53.049  1.00  0.00     0.116 A 
HETATM   27  C   UNL     1     -43.637  58.520 -53.816  1.00  0.00     0.028 A 
ENDBRANCH  21  22
ENDBRANCH   2  21
BRANCH  10  28
HETATM   28  C   UNL     1     -40.177  51.917 -53.140  1.00  0.00     0.028 A 
HETATM   29  C   UNL     1     -39.960  50.595 -53.570  1.00  0.00     0.078 A 
HETATM   30  C   UNL     1     -39.631  49.585 -52.668  1.00  0.00     0.037 A 
HETATM   31  C   UNL     1     -39.538  49.875 -51.308  1.00  0.00     0.003 A 
HETATM   32  C   UNL     1     -39.778  51.171 -50.856  1.00  0.00     0.001 A 
HETATM   33  C   UNL     1     -40.099  52.185 -51.766  1.00  0.00     0.017 A 
BRANCH  29  34
HETATM   34  O   UNL     1     -40.066  50.224 -54.886  1.00  0.00    -0.360 OA
HETATM   35  H   UNL     1     -39.635  50.941 -55.405  1.00  0.00     0.217 HD
ENDBRANCH  29  34
ENDBRANCH  10  28
TORSDOF 8
ENDMDL
MODEL 2
REMARK VINA RESULT:      -7.9      2.885      6.804
REMARK  8 active torsions:
REMARK  status: ('A' for Active; 'I' for Inactive)
REMARK    1  A    between atoms: C_2  and  C_3 
REMARK    2  A    between atoms: C_3  and  O_4 
REMARK    3  A    between atoms: O_4  and  C_5 
REMARK    4  A    between atoms: C_7  and  C_8 
REMARK    5  A    between atoms: N_9  and  C_10 
REMARK    6  A    between atoms: C_10  and  C_11 
REMARK    7  A    between atoms: C_24  and  C_25 
REMARK    8  A    between atoms: C_26  and  O_27 
ROOT
HETATM    1  C   UNL     1     -44.336  56.789 -54.259  1.00  0.00     0.159 A 
HETATM    2  N   UNL     1     -44.519  57.598 -53.022  1.00  0.00    -0.329 N 
HETATM    3  C   UNL     1     -44.698  58.962 -53.257  1.00  0.00     0.273 A 
HETATM    4  O   UNL     1     -44.910  59.851 -52.452  1.00  0.00    -0.266 OA
HETATM    5  C   UNL     1     -44.599  59.071 -54.662  1.00  0.00     0.129 A 
HETATM    6  C   UNL     1     -44.407  57.866 -55.274  1.00  0.00     0.034 A 
HETATM    7  N   UNL     1     -44.638  60.018 -55.610  1.00  0.00    -0.272 N 
HETATM    8  H   UNL     1     -44.763  61.021 -55.511  1.00  0.00     0.189 HD
HETATM    9  N   UNL     1     -44.467  59.487 -56.849  1.00  0.00    -0.173 NA
HETATM   10  C   UNL     1     -44.378  58.143 -56.652  1.00  0.00     0.101 A 
ENDROOT
BRANCH   1  11
HETATM   11  C   UNL     1     -42.970  56.153 -54.366  1.00  0.00    -0.028 A 
HETATM   12  C   UNL     1     -42.853  54.752 -54.324  1.00  0.00     0.046 A 
HETATM   13  C   UNL     1     -41.611  54.118 -54.439  1.00  0.00     0.069 A 
HETATM   14  C   UNL     1     -40.459  54.889 -54.582  1.00  0.00     0.037 A 
HETATM   15  C   UNL     1     -40.551  56.281 -54.616  1.00  0.00     0.003 A 
HETATM   16  C   UNL     1     -41.793  56.908 -54.510  1.00  0.00     0.010 A 
BRANCH  13  17
HETATM   17  O   UNL     1     -41.665  52.752 -54.393  1.00  0.00    -0.348 OA
BRANCH  17  18
HETATM   18  C   UNL     1     -40.541  52.080 -53.828  1.00  0.00     0.202 C 
BRANCH  18  19
HETATM   19  C   UNL     1     -40.521  50.689 -54.389  1.00  0.00    -0.011 C 
HETATM   20  C   UNL     1     -39.461  49.871 -54.364  1.00  0.00     0.009 C 
ENDBRANCH  18  19
ENDBRANCH  17  18
ENDBRANCH  13  17
ENDBRANCH   1  11
BRANCH   2  21
HETATM   21  C   UNL     1     -44.671  56.990 -51.719  1.00  0.00     0.165 C 
BRANCH  21  22
HETATM   22  C   UNL     1     -43.345  56.593 -51.124  1.00  0.00    -0.037 A 
HETATM   23  C   UNL     1     -42.296  57.511 -51.025  1.00  0.00     0.028 A 
HETATM   24  C   UNL     1     -41.095  57.089 -50.475  1.00  0.00     0.116 A 
HETATM   25  N   UNL     1     -40.871  55.834 -50.031  1.00  0.00    -0.273 NA
HETATM   26  C   UNL     1     -41.897  54.962 -50.134  1.00  0.00     0.116 A 
HETATM   27  C   UNL     1     -43.134  55.289 -50.664  1.00  0.00     0.028 A 
ENDBRANCH  21  22
ENDBRANCH   2  21
BRANCH  10  28
HETATM   28  C   UNL     1     -44.239  57.231 -57.790  1.00  0.00     0.028 A 
HETATM   29  C   UNL     1     -45.236  57.137 -58.779  1.00  0.00     0.078 A 
HETATM   30  C   UNL     1     -45.090  56.292 -59.876  1.00  0.00     0.037 A 
HETATM   31  C   UNL     1     -43.949  55.501 -59.994  1.00  0.00     0.003 A 
HETATM   32  C   UNL     1     -42.962  55.555 -59.011  1.00  0.00     0.001 A 
HETATM   33  C   UNL     1     -43.108  56.411 -57.915  1.00  0.00     0.017 A 
BRANCH  29  34
HETATM   34  O   UNL     1     -46.401  57.858 -58.717  1.00  0.00    -0.360 OA
HETATM   35  H   UNL     1     -46.423  58.260 -57.819  1.00  0.00     0.217 HD
ENDBRANCH  29  34
ENDBRANCH  10  28
TORSDOF 8
ENDMDL
MODEL 3
REMARK VINA RESULT:      -7.8      2.312      4.871
REMARK  8 active torsions:
REMARK  status: ('A' for Active; 'I' for Inactive)
REMARK    1  A    between atoms: C_2  and  C_3 
REMARK    2  A    between atoms: C_3  and  O_4 
REMARK    3  A    between atoms: O_4  and  C_5 
REMARK    4  A    between atoms: C_7  and  C_8 
REMARK    5  A    between atoms: N_9  and  C_10 
REMARK    6  A    between atoms: C_10  and  C_11 
REMARK    7  A    between atoms: C_24  and  C_25 
REMARK    8  A    between atoms: C_26  and  O_27 
ROOT
HETATM    1  C   UNL     1     -40.656  55.218 -52.381  1.00  0.00     0.159 A 
HETATM    2  N   UNL     1     -40.943  56.328 -51.431  1.00  0.00    -0.329 N 
HETATM    3  C   UNL     1     -41.019  55.927 -50.096  1.00  0.00     0.273 A 
HETATM    4  O   UNL     1     -41.197  56.612 -49.105  1.00  0.00    -0.266 OA
HETATM    5  C   UNL     1     -40.814  54.530 -50.159  1.00  0.00     0.129 A 
HETATM    6  C   UNL     1     -40.592  54.085 -51.430  1.00  0.00     0.034 A 
HETATM    7  N   UNL     1     -40.767  53.475 -49.333  1.00  0.00    -0.272 N 
HETATM    8  H   UNL     1     -40.890  53.442 -48.325  1.00  0.00     0.189 HD
HETATM    9  N   UNL     1     -40.528  52.324 -50.014  1.00  0.00    -0.173 NA
HETATM   10  C   UNL     1     -40.364  52.703 -51.310  1.00  0.00     0.101 A 
ENDROOT
BRANCH   1  11
HETATM   11  C   UNL     1     -41.789  54.941 -53.342  1.00  0.00    -0.028 A 
HETATM   12  C   UNL     1     -41.613  55.200 -54.713  1.00  0.00     0.046 A 
HETATM   13  C   UNL     1     -42.625  54.941 -55.643  1.00  0.00     0.069 A 
HETATM   14  C   UNL     1     -43.844  54.429 -55.203  1.00  0.00     0.037 A 
HETATM   15  C   UNL     1     -44.044  54.173 -53.845  1.00  0.00     0.003 A 
HETATM   16  C   UNL     1     -43.027  54.426 -52.923  1.00  0.00     0.010 A 
BRANCH  13  17
HETATM   17  O   UNL     1     -42.295  55.233 -56.938  1.00  0.00    -0.348 OA
BRANCH  17  18
HETATM   18  C   UNL     1     -43.047  56.261 -57.580  1.00  0.00     0.202 C 
BRANCH  18  19
HETATM   19  C   UNL     1     -43.297  55.821 -58.991  1.00  0.00    -0.011 C 
HETATM   20  C   UNL     1     -44.089  54.801 -59.345  1.00  0.00     0.009 C 
ENDBRANCH  18  19
ENDBRANCH  17  18
ENDBRANCH  13  17
ENDBRANCH   1  11
BRANCH   2  21
HETATM   21  C   UNL     1     -40.966  57.713 -51.845  1.00  0.00     0.165 C 
BRANCH  21  22
HETATM   22  C   UNL     1     -42.299  58.107 -52.425  1.00  0.00    -0.037 A 
HETATM   23  C   UNL     1     -42.390  58.687 -53.693  1.00  0.00     0.028 A 
HETATM   24  C   UNL     1     -43.643  59.035 -54.175  1.00  0.00     0.116 A 
HETATM   25  N   UNL     1     -44.790  58.853 -53.488  1.00  0.00    -0.273 NA
HETATM   26  C   UNL     1     -44.682  58.290 -52.265  1.00  0.00     0.116 A 
HETATM   27  C   UNL     1     -43.479  57.904 -51.700  1.00  0.00     0.028 A 
ENDBRANCH  21  22
ENDBRANCH   2  21
BRANCH  10  28
HETATM   28  C   UNL     1     -40.035  51.714 -52.340  1.00  0.00     0.028 A 
HETATM   29  C   UNL     1     -39.611  50.416 -52.000  1.00  0.00     0.078 A 
HETATM   30  C   UNL     1     -39.326  49.467 -52.979  1.00  0.00     0.037 A 
HETATM   31  C   UNL     1     -39.438  49.807 -54.325  1.00  0.00     0.003 A 
HETATM   32  C   UNL     1     -39.828  51.095 -54.687  1.00  0.00     0.001 A 
HETATM   33  C   UNL     1     -40.121  52.043 -53.700  1.00  0.00     0.017 A 
BRANCH  29  34
HETATM   34  O   UNL     1     -39.444  50.015 -50.698  1.00  0.00    -0.360 OA
HETATM   35  H   UNL     1     -39.393  49.033 -50.722  1.00  0.00     0.217 HD
ENDBRANCH  29  34
ENDBRANCH  10  28
TORSDOF 8
ENDMDL
MODEL 4
REMARK VINA RESULT:      -7.6      2.543      6.738
REMARK  8 active torsions:
REMARK  status: ('A' for Active; 'I' for Inactive)
REMARK    1  A    between atoms: C_2  and  C_3 
REMARK    2  A    between atoms: C_3  and  O_4 
REMARK    3  A    between atoms: O_4  and  C_5 
REMARK    4  A    between atoms: C_7  and  C_8 
REMARK    5  A    between atoms: N_9  and  C_10 
REMARK    6  A    between atoms: C_10  and  C_11 
REMARK    7  A    between atoms: C_24  and  C_25 
REMARK    8  A    between atoms: C_26  and  O_27 
ROOT
HETATM    1  C   UNL     1     -42.337  56.932 -54.700  1.00  0.00     0.159 A 
HETATM    2  N   UNL     1     -43.384  56.722 -55.739  1.00  0.00    -0.329 N 
HETATM    3  C   UNL     1     -44.376  57.704 -55.750  1.00  0.00     0.273 A 
HETATM    4  O   UNL     1     -45.325  57.818 -56.506  1.00  0.00    -0.266 OA
HETATM    5  C   UNL     1     -44.007  58.559 -54.687  1.00  0.00     0.129 A 
HETATM    6  C   UNL     1     -42.853  58.170 -54.072  1.00  0.00     0.034 A 
HETATM    7  N   UNL     1     -44.451  59.667 -54.078  1.00  0.00    -0.272 N 
HETATM    8  H   UNL     1     -45.280  60.221 -54.276  1.00  0.00     0.189 HD
HETATM    9  N   UNL     1     -43.632  60.034 -53.058  1.00  0.00    -0.173 NA
HETATM   10  C   UNL     1     -42.608  59.139 -53.083  1.00  0.00     0.101 A 
ENDROOT
BRANCH   1  11
HETATM   11  C   UNL     1     -42.319  55.856 -53.639  1.00  0.00    -0.028 A 
HETATM   12  C   UNL     1     -41.302  54.885 -53.655  1.00  0.00     0.046 A 
HETATM   13  C   UNL     1     -41.233  53.882 -52.682  1.00  0.00     0.069 A 
HETATM   14  C   UNL     1     -42.201  53.831 -51.681  1.00  0.00     0.037 A 
HETATM   15  C   UNL     1     -43.225  54.779 -51.652  1.00  0.00     0.003 A 
HETATM   16  C   UNL     1     -43.284  55.783 -52.619  1.00  0.00     0.010 A 
BRANCH  13  17
HETATM   17  O   UNL     1     -40.179  53.022 -52.827  1.00  0.00    -0.348 OA
BRANCH  17  18
HETATM   18  C   UNL     1     -40.081  52.325 -54.068  1.00  0.00     0.202 C 
BRANCH  18  19
HETATM   19  C   UNL     1     -39.608  50.934 -53.765  1.00  0.00    -0.011 C 
HETATM   20  C   UNL     1     -39.799  49.872 -54.559  1.00  0.00     0.009 C 
ENDBRANCH  18  19
ENDBRANCH  17  18
ENDBRANCH  13  17
ENDBRANCH   1  11
BRANCH   2  21
HETATM   21  C   UNL     1     -43.275  55.692 -56.747  1.00  0.00     0.165 C 
BRANCH  21  22
HETATM   22  C   UNL     1     -43.149  56.269 -58.132  1.00  0.00    -0.037 A 
HETATM   23  C   UNL     1     -42.215  57.270 -58.413  1.00  0.00     0.028 A 
HETATM   24  C   UNL     1     -42.146  57.769 -59.705  1.00  0.00     0.116 A 
HETATM   25  N   UNL     1     -42.936  57.350 -60.716  1.00  0.00    -0.273 NA
HETATM   26  C   UNL     1     -43.831  56.381 -60.426  1.00  0.00     0.116 A 
HETATM   27  C   UNL     1     -43.973  55.817 -59.169  1.00  0.00     0.028 A 
ENDBRANCH  21  22
ENDBRANCH   2  21
BRANCH  10  28
HETATM   28  C   UNL     1     -41.491  59.258 -52.142  1.00  0.00     0.028 A 
HETATM   29  C   UNL     1     -41.701  59.615 -50.798  1.00  0.00     0.078 A 
HETATM   30  C   UNL     1     -40.642  59.699 -49.896  1.00  0.00     0.037 A 
HETATM   31  C   UNL     1     -39.342  59.450 -50.331  1.00  0.00     0.003 A 
HETATM   32  C   UNL     1     -39.106  59.123 -51.665  1.00  0.00     0.001 A 
HETATM   33  C   UNL     1     -40.173  59.032 -52.566  1.00  0.00     0.017 A 
BRANCH  29  34
HETATM   34  O   UNL     1     -42.946  59.907 -50.301  1.00  0.00    -0.360 OA
HETATM   35  H   UNL     1     -42.871  59.836 -49.323  1.00  0.00     0.217 HD
ENDBRANCH  29  34
ENDBRANCH  10  28
TORSDOF 8
ENDMDL
MODEL 5
REMARK VINA RESULT:      -7.5      2.561      5.875
REMARK  8 active torsions:
REMARK  status: ('A' for Active; 'I' for Inactive)
REMARK    1  A    between atoms: C_2  and  C_3 
REMARK    2  A    between atoms: C_3  and  O_4 
REMARK    3  A    between atoms: O_4  and  C_5 
REMARK    4  A    between atoms: C_7  and  C_8 
REMARK    5  A    between atoms: N_9  and  C_10 
REMARK    6  A    between atoms: C_10  and  C_11 
REMARK    7  A    between atoms: C_24  and  C_25 
REMARK    8  A    between atoms: C_26  and  O_27 
ROOT
HETATM    1  C   UNL     1     -41.131  56.065 -54.504  1.00  0.00     0.159 A 
HETATM    2  N   UNL     1     -41.228  54.631 -54.112  1.00  0.00    -0.329 N 
HETATM    3  C   UNL     1     -42.050  53.869 -54.945  1.00  0.00     0.273 A 
HETATM    4  O   UNL     1     -42.283  52.675 -54.897  1.00  0.00    -0.266 OA
HETATM    5  C   UNL     1     -42.533  54.810 -55.882  1.00  0.00     0.129 A 
HETATM    6  C   UNL     1     -42.030  56.063 -55.681  1.00  0.00     0.034 A 
HETATM    7  N   UNL     1     -43.354  54.856 -56.940  1.00  0.00    -0.272 N 
HETATM    8  H   UNL     1     -43.896  54.109 -57.365  1.00  0.00     0.189 HD
HETATM    9  N   UNL     1     -43.430  56.110 -57.455  1.00  0.00    -0.173 NA
HETATM   10  C   UNL     1     -42.568  56.855 -56.711  1.00  0.00     0.101 A 
ENDROOT
BRANCH   1  11
HETATM   11  C   UNL     1     -41.721  57.009 -53.482  1.00  0.00    -0.028 A 
HETATM   12  C   UNL     1     -40.914  58.017 -52.925  1.00  0.00     0.046 A 
HETATM   13  C   UNL     1     -41.421  58.927 -51.990  1.00  0.00     0.069 A 
HETATM   14  C   UNL     1     -42.751  58.825 -51.588  1.00  0.00     0.037 A 
HETATM   15  C   UNL     1     -43.567  57.826 -52.120  1.00  0.00     0.003 A 
HETATM   16  C   UNL     1     -43.058  56.927 -53.059  1.00  0.00     0.010 A 
BRANCH  13  17
HETATM   17  O   UNL     1     -40.516  59.855 -51.553  1.00  0.00    -0.348 OA
BRANCH  17  18
HETATM   18  C   UNL     1     -39.958  59.652 -50.257  1.00  0.00     0.202 C 
BRANCH  18  19
HETATM   19  C   UNL     1     -38.471  59.543 -50.420  1.00  0.00    -0.011 C 
HETATM   20  C   UNL     1     -37.571  59.930 -49.507  1.00  0.00     0.009 C 
ENDBRANCH  18  19
ENDBRANCH  17  18
ENDBRANCH  13  17
ENDBRANCH   1  11
BRANCH   2  21
HETATM   21  C   UNL     1     -40.407  54.059 -53.069  1.00  0.00     0.165 C 
BRANCH  21  22
HETATM   22  C   UNL     1     -41.011  54.254 -51.703  1.00  0.00    -0.037 A 
HETATM   23  C   UNL     1     -40.227  54.667 -50.622  1.00  0.00     0.028 A 
HETATM   24  C   UNL     1     -40.834  54.826 -49.386  1.00  0.00     0.116 A 
HETATM   25  N   UNL     1     -42.145  54.598 -49.156  1.00  0.00    -0.273 NA
HETATM   26  C   UNL     1     -42.886  54.201 -50.214  1.00  0.00     0.116 A 
HETATM   27  C   UNL     1     -42.373  54.020 -51.487  1.00  0.00     0.028 A 
ENDBRANCH  21  22
ENDBRANCH   2  21
BRANCH  10  28
HETATM   28  C   UNL     1     -42.347  58.270 -57.020  1.00  0.00     0.028 A 
HETATM   29  C   UNL     1     -41.876  58.679 -58.281  1.00  0.00     0.078 A 
HETATM   30  C   UNL     1     -41.694  60.027 -58.583  1.00  0.00     0.037 A 
HETATM   31  C   UNL     1     -41.958  60.995 -57.617  1.00  0.00     0.003 A 
HETATM   32  C   UNL     1     -42.397  60.612 -56.351  1.00  0.00     0.001 A 
HETATM   33  C   UNL     1     -42.587  59.257 -56.053  1.00  0.00     0.017 A 
BRANCH  29  34
HETATM   34  O   UNL     1     -41.562  57.785 -59.273  1.00  0.00    -0.360 OA
HETATM   35  H   UNL     1     -40.989  57.105 -58.853  1.00  0.00     0.217 HD
ENDBRANCH  29  34
ENDBRANCH  10  28
TORSDOF 8
ENDMDL
MODEL 6
REMARK VINA RESULT:      -7.5      2.015      6.960
REMARK  8 active torsions:
REMARK  status: ('A' for Active; 'I' for Inactive)
REMARK    1  A    between atoms: C_2  and  C_3 
REMARK    2  A    between atoms: C_3  and  O_4 
REMARK    3  A    between atoms: O_4  and  C_5 
REMARK    4  A    between atoms: C_7  and  C_8 
REMARK    5  A    between atoms: N_9  and  C_10 
REMARK    6  A    between atoms: C_10  and  C_11 
REMARK    7  A    between atoms: C_24  and  C_25 
REMARK    8  A    between atoms: C_26  and  O_27 
ROOT
HETATM    1  C   UNL     1     -41.704  57.079 -54.511  1.00  0.00     0.159 A 
HETATM    2  N   UNL     1     -41.613  55.603 -54.695  1.00  0.00    -0.329 N 
HETATM    3  C   UNL     1     -42.852  54.967 -54.794  1.00  0.00     0.273 A 
HETATM    4  O   UNL     1     -43.087  53.788 -54.988  1.00  0.00    -0.266 OA
HETATM    5  C   UNL     1     -43.779  56.023 -54.642  1.00  0.00     0.129 A 
HETATM    6  C   UNL     1     -43.176  57.238 -54.492  1.00  0.00     0.034 A 
HETATM    7  N   UNL     1     -45.106  56.207 -54.600  1.00  0.00    -0.272 N 
HETATM    8  H   UNL     1     -45.852  55.522 -54.677  1.00  0.00     0.189 HD
HETATM    9  N   UNL     1     -45.418  57.516 -54.414  1.00  0.00    -0.173 NA
HETATM   10  C   UNL     1     -44.225  58.170 -54.401  1.00  0.00     0.101 A 
ENDROOT
BRANCH   1  11
HETATM   11  C   UNL     1     -41.178  57.553 -53.176  1.00  0.00    -0.028 A 
HETATM   12  C   UNL     1     -41.620  56.929 -51.996  1.00  0.00     0.046 A 
HETATM   13  C   UNL     1     -41.146  57.320 -50.739  1.00  0.00     0.069 A 
HETATM   14  C   UNL     1     -40.227  58.363 -50.649  1.00  0.00     0.037 A 
HETATM   15  C   UNL     1     -39.782  59.003 -51.806  1.00  0.00     0.003 A 
HETATM   16  C   UNL     1     -40.251  58.602 -53.058  1.00  0.00     0.010 A 
BRANCH  13  17
HETATM   17  O   UNL     1     -41.662  56.608 -49.692  1.00  0.00    -0.348 OA
BRANCH  17  18
HETATM   18  C   UNL     1     -41.639  55.186 -49.804  1.00  0.00     0.202 C 
BRANCH  18  19
HETATM   19  C   UNL     1     -40.397  54.701 -49.119  1.00  0.00    -0.011 C 
HETATM   20  C   UNL     1     -40.379  53.927 -48.026  1.00  0.00     0.009 C 
ENDBRANCH  18  19
ENDBRANCH  17  18
ENDBRANCH  13  17
ENDBRANCH   1  11
BRANCH   2  21
HETATM   21  C   UNL     1     -40.354  54.930 -54.921  1.00  0.00     0.165 C 
BRANCH  21  22
HETATM   22  C   UNL     1     -40.225  53.681 -54.090  1.00  0.00    -0.037 A 
HETATM   23  C   UNL     1     -40.301  53.733 -52.695  1.00  0.00     0.028 A 
HETATM   24  C   UNL     1     -40.169  52.553 -51.980  1.00  0.00     0.116 A 
HETATM   25  N   UNL     1     -39.964  51.347 -52.549  1.00  0.00    -0.273 NA
HETATM   26  C   UNL     1     -39.895  51.316 -53.898  1.00  0.00     0.116 A 
HETATM   27  C   UNL     1     -40.019  52.438 -54.699  1.00  0.00     0.028 A 
ENDBRANCH  21  22
ENDBRANCH   2  21
BRANCH  10  28
HETATM   28  C   UNL     1     -44.176  59.628 -54.270  1.00  0.00     0.028 A 
HETATM   29  C   UNL     1     -44.769  60.470 -55.230  1.00  0.00     0.078 A 
HETATM   30  C   UNL     1     -44.748  61.856 -55.090  1.00  0.00     0.037 A 
HETATM   31  C   UNL     1     -44.108  62.430 -53.994  1.00  0.00     0.003 A 
HETATM   32  C   UNL     1     -43.489  61.619 -53.046  1.00  0.00     0.001 A 
HETATM   33  C   UNL     1     -43.519  60.226 -53.185  1.00  0.00     0.017 A 
BRANCH  29  34
HETATM   34  O   UNL     1     -45.388  59.981 -56.352  1.00  0.00    -0.360 OA
HETATM   35  H   UNL     1     -44.890  59.170 -56.604  1.00  0.00     0.217 HD
ENDBRANCH  29  34
ENDBRANCH  10  28
TORSDOF 8
ENDMDL
MODEL 7
REMARK VINA RESULT:      -7.5      2.364      5.228
REMARK  8 active torsions:
REMARK  status: ('A' for Active; 'I' for Inactive)
REMARK    1  A    between atoms: C_2  and  C_3 
REMARK    2  A    between atoms: C_3  and  O_4 
REMARK    3  A    between atoms: O_4  and  C_5 
REMARK    4  A    between atoms: C_7  and  C_8 
REMARK    5  A    between atoms: N_9  and  C_10 
REMARK    6  A    between atoms: C_10  and  C_11 
REMARK    7  A    between atoms: C_24  and  C_25 
REMARK    8  A    between atoms: C_26  and  O_27 
ROOT
HETATM    1  C   UNL     1     -40.974  57.083 -52.875  1.00  0.00     0.159 A 
HETATM    2  N   UNL     1     -41.086  58.303 -52.028  1.00  0.00    -0.329 N 
HETATM    3  C   UNL     1     -41.219  58.036 -50.664  1.00  0.00     0.273 A 
HETATM    4  O   UNL     1     -41.288  58.825 -49.739  1.00  0.00    -0.266 OA
HETATM    5  C   UNL     1     -41.230  56.625 -50.603  1.00  0.00     0.129 A 
HETATM    6  C   UNL     1     -41.080  56.041 -51.827  1.00  0.00     0.034 A 
HETATM    7  N   UNL     1     -41.342  55.652 -49.688  1.00  0.00    -0.272 N 
HETATM    8  H   UNL     1     -41.466  55.727 -48.682  1.00  0.00     0.189 HD
HETATM    9  N   UNL     1     -41.283  54.422 -50.262  1.00  0.00    -0.173 NA
HETATM   10  C   UNL     1     -41.066  54.656 -51.585  1.00  0.00     0.101 A 
ENDROOT
BRANCH   1  11
HETATM   11  C   UNL     1     -42.137  56.897 -53.821  1.00  0.00    -0.028 A 
HETATM   12  C   UNL     1     -41.894  56.750 -55.198  1.00  0.00     0.046 A 
HETATM   13  C   UNL     1     -42.938  56.556 -56.109  1.00  0.00     0.069 A 
HETATM   14  C   UNL     1     -44.252  56.524 -55.648  1.00  0.00     0.037 A 
HETATM   15  C   UNL     1     -44.518  56.678 -54.286  1.00  0.00     0.003 A 
HETATM   16  C   UNL     1     -43.472  56.862 -53.381  1.00  0.00     0.010 A 
BRANCH  13  17
HETATM   17  O   UNL     1     -42.537  56.417 -57.410  1.00  0.00    -0.348 OA
BRANCH  17  18
HETATM   18  C   UNL     1     -43.494  56.736 -58.418  1.00  0.00     0.202 C 
BRANCH  18  19
HETATM   19  C   UNL     1     -43.413  55.669 -59.468  1.00  0.00    -0.011 C 
HETATM   20  C   UNL     1     -44.286  54.662 -59.605  1.00  0.00     0.009 C 
ENDBRANCH  18  19
ENDBRANCH  17  18
ENDBRANCH  13  17
ENDBRANCH   1  11
BRANCH   2  21
HETATM   21  C   UNL     1     -40.898  59.633 -52.562  1.00  0.00     0.165 C 
BRANCH  21  22
HETATM   22  C   UNL     1     -42.179  60.208 -53.108  1.00  0.00    -0.037 A 
HETATM   23  C   UNL     1     -43.236  60.546 -52.258  1.00  0.00     0.028 A 
HETATM   24  C   UNL     1     -44.394  61.066 -52.814  1.00  0.00     0.116 A 
HETATM   25  N   UNL     1     -44.570  61.263 -54.138  1.00  0.00    -0.273 NA
HETATM   26  C   UNL     1     -43.538  60.931 -54.943  1.00  0.00     0.116 A 
HETATM   27  C   UNL     1     -42.340  60.410 -54.483  1.00  0.00     0.028 A 
ENDBRANCH  21  22
ENDBRANCH   2  21
BRANCH  10  28
HETATM   28  C   UNL     1     -40.894  53.542 -52.521  1.00  0.00     0.028 A 
HETATM   29  C   UNL     1     -39.984  52.501 -52.260  1.00  0.00     0.078 A 
HETATM   30  C   UNL     1     -39.842  51.426 -53.136  1.00  0.00     0.037 A 
HETATM   31  C   UNL     1     -40.595  51.384 -54.307  1.00  0.00     0.003 A 
HETATM   32  C   UNL     1     -41.482  52.418 -54.601  1.00  0.00     0.001 A 
HETATM   33  C   UNL     1     -41.628  53.492 -53.715  1.00  0.00     0.017 A 
BRANCH  29  34
HETATM   34  O   UNL     1     -39.184  52.487 -51.146  1.00  0.00    -0.360 OA
HETATM   35  H   UNL     1     -39.016  53.431 -50.922  1.00  0.00     0.217 HD
ENDBRANCH  29  34
ENDBRANCH  10  28
TORSDOF 8
ENDMDL
MODEL 8
REMARK VINA RESULT:      -7.4      2.389      4.258
REMARK  8 active torsions:
REMARK  status: ('A' for Active; 'I' for Inactive)
REMARK    1  A    between atoms: C_2  and  C_3 
REMARK    2  A    between atoms: C_3  and  O_4 
REMARK    3  A    between atoms: O_4  and  C_5 
REMARK    4  A    between atoms: C_7  and  C_8 
REMARK    5  A    between atoms: N_9  and  C_10 
REMARK    6  A    between atoms: C_10  and  C_11 
REMARK    7  A    between atoms: C_24  and  C_25 
REMARK    8  A    between atoms: C_26  and  O_27 
ROOT
HETATM    1  C   UNL     1     -43.856  57.840 -53.451  1.00  0.00     0.159 A 
HETATM    2  N   UNL     1     -44.573  59.117 -53.723  1.00  0.00    -0.329 N 
HETATM    3  C   UNL     1     -44.506  59.532 -55.054  1.00  0.00     0.273 A 
HETATM    4  O   UNL     1     -45.026  60.503 -55.574  1.00  0.00    -0.266 OA
HETATM    5  C   UNL     1     -43.708  58.542 -55.670  1.00  0.00     0.129 A 
HETATM    6  C   UNL     1     -43.328  57.557 -54.805  1.00  0.00     0.034 A 
HETATM    7  N   UNL     1     -43.196  58.260 -56.876  1.00  0.00    -0.272 N 
HETATM    8  H   UNL     1     -43.279  58.777 -57.746  1.00  0.00     0.189 HD
HETATM    9  N   UNL     1     -42.468  57.113 -56.849  1.00  0.00    -0.173 NA
HETATM   10  C   UNL     1     -42.590  56.642 -55.578  1.00  0.00     0.101 A 
ENDROOT
BRANCH   1  11
HETATM   11  C   UNL     1     -42.672  58.000 -52.526  1.00  0.00    -0.028 A 
HETATM   12  C   UNL     1     -42.508  57.109 -51.450  1.00  0.00     0.046 A 
HETATM   13  C   UNL     1     -41.418  57.206 -50.579  1.00  0.00     0.069 A 
HETATM   14  C   UNL     1     -40.479  58.217 -50.768  1.00  0.00     0.037 A 
HETATM   15  C   UNL     1     -40.626  59.119 -51.823  1.00  0.00     0.003 A 
HETATM   16  C   UNL     1     -41.711  59.012 -52.694  1.00  0.00     0.010 A 
BRANCH  13  17
HETATM   17  O   UNL     1     -41.393  56.258 -49.593  1.00  0.00    -0.348 OA
BRANCH  17  18
HETATM   18  C   UNL     1     -41.601  54.905 -49.993  1.00  0.00     0.202 C 
BRANCH  18  19
HETATM   19  C   UNL     1     -40.260  54.233 -50.018  1.00  0.00    -0.011 C 
HETATM   20  C   UNL     1     -39.856  53.368 -50.957  1.00  0.00     0.009 C 
ENDBRANCH  18  19
ENDBRANCH  17  18
ENDBRANCH  13  17
ENDBRANCH   1  11
BRANCH   2  21
HETATM   21  C   UNL     1     -45.402  59.763 -52.730  1.00  0.00     0.165 C 
BRANCH  21  22
HETATM   22  C   UNL     1     -44.615  60.720 -51.874  1.00  0.00    -0.037 A 
HETATM   23  C   UNL     1     -44.395  60.459 -50.519  1.00  0.00     0.028 A 
HETATM   24  C   UNL     1     -43.668  61.378 -49.777  1.00  0.00     0.116 A 
HETATM   25  N   UNL     1     -43.162  62.522 -50.283  1.00  0.00    -0.273 NA
HETATM   26  C   UNL     1     -43.385  62.756 -51.595  1.00  0.00     0.116 A 
HETATM   27  C   UNL     1     -44.093  61.898 -52.419  1.00  0.00     0.028 A 
ENDBRANCH  21  22
ENDBRANCH   2  21
BRANCH  10  28
HETATM   28  C   UNL     1     -41.969  55.373 -55.190  1.00  0.00     0.028 A 
HETATM   29  C   UNL     1     -42.744  54.228 -54.931  1.00  0.00     0.078 A 
HETATM   30  C   UNL     1     -42.150  53.013 -54.591  1.00  0.00     0.037 A 
HETATM   31  C   UNL     1     -40.764  52.928 -54.480  1.00  0.00     0.003 A 
HETATM   32  C   UNL     1     -39.978  54.056 -54.704  1.00  0.00     0.001 A 
HETATM   33  C   UNL     1     -40.577  55.272 -55.053  1.00  0.00     0.017 A 
BRANCH  29  34
HETATM   34  O   UNL     1     -44.114  54.240 -54.987  1.00  0.00    -0.360 OA
HETATM   35  H   UNL     1     -44.345  54.425 -55.926  1.00  0.00     0.217 HD
ENDBRANCH  29  34
ENDBRANCH  10  28
TORSDOF 8
ENDMDL
MODEL 9
REMARK VINA RESULT:      -7.3      2.328      6.718
REMARK  8 active torsions:
REMARK  status: ('A' for Active; 'I' for Inactive)
REMARK    1  A    between atoms: C_2  and  C_3 
REMARK    2  A    between atoms: C_3  and  O_4 
REMARK    3  A    between atoms: O_4  and  C_5 
REMARK    4  A    between atoms: C_7  and  C_8 
REMARK    5  A    between atoms: N_9  and  C_10 
REMARK    6  A    between atoms: C_10  and  C_11 
REMARK    7  A    between atoms: C_24  and  C_25 
REMARK    8  A    between atoms: C_26  and  O_27 
ROOT
HETATM    1  C   UNL     1     -41.622  56.601 -52.940  1.00  0.00     0.159 A 
HETATM    2  N   UNL     1     -41.972  55.383 -52.158  1.00  0.00    -0.329 N 
HETATM    3  C   UNL     1     -43.202  54.820 -52.504  1.00  0.00     0.273 A 
HETATM    4  O   UNL     1     -43.725  53.810 -52.070  1.00  0.00    -0.266 OA
HETATM    5  C   UNL     1     -43.693  55.690 -53.503  1.00  0.00     0.129 A 
HETATM    6  C   UNL     1     -42.828  56.705 -53.793  1.00  0.00     0.034 A 
HETATM    7  N   UNL     1     -44.776  55.831 -54.280  1.00  0.00    -0.272 N 
HETATM    8  H   UNL     1     -45.613  55.257 -54.326  1.00  0.00     0.189 HD
HETATM    9  N   UNL     1     -44.672  56.923 -55.082  1.00  0.00    -0.173 NA
HETATM   10  C   UNL     1     -43.440  57.440 -54.824  1.00  0.00     0.101 A 
ENDROOT
BRANCH   1  11
HETATM   11  C   UNL     1     -41.549  57.855 -52.101  1.00  0.00    -0.028 A 
HETATM   12  C   UNL     1     -42.737  58.457 -51.650  1.00  0.00     0.046 A 
HETATM   13  C   UNL     1     -42.718  59.608 -50.854  1.00  0.00     0.069 A 
HETATM   14  C   UNL     1     -41.496  60.183 -50.512  1.00  0.00     0.037 A 
HETATM   15  C   UNL     1     -40.305  59.608 -50.956  1.00  0.00     0.003 A 
HETATM   16  C   UNL     1     -40.329  58.455 -51.742  1.00  0.00     0.010 A 
BRANCH  13  17
HETATM   17  O   UNL     1     -43.954  60.063 -50.486  1.00  0.00    -0.348 OA
BRANCH  17  18
HETATM   18  C   UNL     1     -45.081  59.333 -50.967  1.00  0.00     0.202 C 
BRANCH  18  19
HETATM   19  C   UNL     1     -45.994  60.311 -51.646  1.00  0.00    -0.011 C 
HETATM   20  C   UNL     1     -45.989  60.578 -52.958  1.00  0.00     0.009 C 
ENDBRANCH  18  19
ENDBRANCH  17  18
ENDBRANCH  13  17
ENDBRANCH   1  11
BRANCH   2  21
HETATM   21  C   UNL     1     -41.039  54.753 -51.250  1.00  0.00     0.165 C 
BRANCH  21  22
HETATM   22  C   UNL     1     -40.505  53.457 -51.800  1.00  0.00    -0.037 A 
HETATM   23  C   UNL     1     -40.096  52.428 -50.947  1.00  0.00     0.028 A 
HETATM   24  C   UNL     1     -39.606  51.258 -51.507  1.00  0.00     0.116 A 
HETATM   25  N   UNL     1     -39.493  51.050 -52.836  1.00  0.00    -0.273 NA
HETATM   26  C   UNL     1     -39.894  52.055 -53.644  1.00  0.00     0.116 A 
HETATM   27  C   UNL     1     -40.401  53.258 -53.181  1.00  0.00     0.028 A 
ENDBRANCH  21  22
ENDBRANCH   2  21
BRANCH  10  28
HETATM   28  C   UNL     1     -42.955  58.612 -55.557  1.00  0.00     0.028 A 
HETATM   29  C   UNL     1     -42.361  58.488 -56.826  1.00  0.00     0.078 A 
HETATM   30  C   UNL     1     -41.927  59.606 -57.535  1.00  0.00     0.037 A 
HETATM   31  C   UNL     1     -42.058  60.875 -56.974  1.00  0.00     0.003 A 
HETATM   32  C   UNL     1     -42.617  61.020 -55.706  1.00  0.00     0.001 A 
HETATM   33  C   UNL     1     -43.059  59.895 -55.000  1.00  0.00     0.017 A 
BRANCH  29  34
HETATM   34  O   UNL     1     -42.167  57.272 -57.430  1.00  0.00    -0.360 OA
HETATM   35  H   UNL     1     -42.504  57.370 -58.350  1.00  0.00     0.217 HD
ENDBRANCH  29  34
ENDBRANCH  10  28
TORSDOF 8
ENDMDL
MODEL 10
REMARK VINA RESULT:      -7.3      3.258      6.465
REMARK  8 active torsions:
REMARK  status: ('A' for Active; 'I' for Inactive)
REMARK    1  A    between atoms: C_2  and  C_3 
REMARK    2  A    between atoms: C_3  and  O_4 
REMARK    3  A    between atoms: O_4  and  C_5 
REMARK    4  A    between atoms: C_7  and  C_8 
REMARK    5  A    between atoms: N_9  and  C_10 
REMARK    6  A    between atoms: C_10  and  C_11 
REMARK    7  A    between atoms: C_24  and  C_25 
REMARK    8  A    between atoms: C_26  and  O_27 
ROOT
HETATM    1  C   UNL     1     -42.106  56.919 -55.595  1.00  0.00     0.159 A 
HETATM    2  N   UNL     1     -42.175  55.711 -54.728  1.00  0.00    -0.329 N 
HETATM    3  C   UNL     1     -42.717  54.589 -55.359  1.00  0.00     0.273 A 
HETATM    4  O   UNL     1     -42.858  53.463 -54.918  1.00  0.00    -0.266 OA
HETATM    5  C   UNL     1     -43.044  55.063 -56.649  1.00  0.00     0.129 A 
HETATM    6  C   UNL     1     -42.705  56.372 -56.834  1.00  0.00     0.034 A 
HETATM    7  N   UNL     1     -43.599  54.612 -57.783  1.00  0.00    -0.272 N 
HETATM    8  H   UNL     1     -43.966  53.688 -57.995  1.00  0.00     0.189 HD
HETATM    9  N   UNL     1     -43.655  55.585 -58.729  1.00  0.00    -0.173 NA
HETATM   10  C   UNL     1     -43.051  56.666 -58.165  1.00  0.00     0.101 A 
ENDROOT
BRANCH   1  11
HETATM   11  C   UNL     1     -42.990  58.050 -55.124  1.00  0.00    -0.028 A 
HETATM   12  C   UNL     1     -42.421  59.127 -54.421  1.00  0.00     0.046 A 
HETATM   13  C   UNL     1     -43.197  60.206 -53.982  1.00  0.00     0.069 A 
HETATM   14  C   UNL     1     -44.568  60.209 -54.230  1.00  0.00     0.037 A 
HETATM   15  C   UNL     1     -45.155  59.145 -54.917  1.00  0.00     0.003 A 
HETATM   16  C   UNL     1     -44.375  58.077 -55.360  1.00  0.00     0.010 A 
BRANCH  13  17
HETATM   17  O   UNL     1     -42.495  61.180 -53.326  1.00  0.00    -0.348 OA
BRANCH  17  18
HETATM   18  C   UNL     1     -43.022  61.626 -52.078  1.00  0.00     0.202 C 
BRANCH  18  19
HETATM   19  C   UNL     1     -42.803  60.529 -51.080  1.00  0.00    -0.011 C 
HETATM   20  C   UNL     1     -41.603  60.103 -50.663  1.00  0.00     0.009 C 
ENDBRANCH  18  19
ENDBRANCH  17  18
ENDBRANCH  13  17
ENDBRANCH   1  11
BRANCH   2  21
HETATM   21  C   UNL     1     -41.573  55.669 -53.414  1.00  0.00     0.165 C 
BRANCH  21  22
HETATM   22  C   UNL     1     -42.609  55.638 -52.320  1.00  0.00    -0.037 A 
HETATM   23  C   UNL     1     -42.889  54.457 -51.627  1.00  0.00     0.028 A 
HETATM   24  C   UNL     1     -43.856  54.484 -50.634  1.00  0.00     0.116 A 
HETATM   25  N   UNL     1     -44.554  55.589 -50.294  1.00  0.00    -0.273 NA
HETATM   26  C   UNL     1     -44.268  56.720 -50.974  1.00  0.00     0.116 A 
HETATM   27  C   UNL     1     -43.318  56.794 -51.978  1.00  0.00     0.028 A 
ENDBRANCH  21  22
ENDBRANCH   2  21
BRANCH  10  28
HETATM   28  C   UNL     1     -42.880  57.906 -58.927  1.00  0.00     0.028 A 
HETATM   29  C   UNL     1     -42.034  57.965 -60.049  1.00  0.00     0.078 A 
HETATM   30  C   UNL     1     -41.895  59.136 -60.791  1.00  0.00     0.037 A 
HETATM   31  C   UNL     1     -42.584  60.284 -60.407  1.00  0.00     0.003 A 
HETATM   32  C   UNL     1     -43.404  60.259 -59.281  1.00  0.00     0.001 A 
HETATM   33  C   UNL     1     -43.549  59.078 -58.543  1.00  0.00     0.017 A 
BRANCH  29  34
HETATM   34  O   UNL     1     -41.298  56.887 -60.471  1.00  0.00    -0.360 OA
HETATM   35  H   UNL     1     -41.049  56.394 -59.656  1.00  0.00     0.217 HD
ENDBRANCH  29  34
ENDBRANCH  10  28
TORSDOF 8
ENDMDL
