MODEL 1
REMARK VINA RESULT:      -8.1      0.000      0.000
REMARK  7 active torsions:
REMARK  status: ('A' for Active; 'I' for Inactive)
REMARK    1  A    between atoms: C_3  and  C_4 
REMARK       I    between atoms: C_4  and  N_5 
REMARK    2  A    between atoms: N_5  and  C_6 
REMARK    3  A    between atoms: C_17  and  S_18 
REMARK    4  A    between atoms: S_18  and  C_19 
REMARK    5  A    between atoms: C_19  and  C_20 
REMARK       I    between atoms: C_20  and  N_21 
REMARK    6  A    between atoms: N_21  and  C_22 
REMARK    7  A    between atoms: C_22  and  C_23 
ROOT
HETATM    1  C   UNL     1     -39.870  49.820 -54.016  1.00  0.00     0.001 A 
HETATM    2  C   UNL     1     -40.250  51.070 -54.497  1.00  0.00     0.018 A 
HETATM    3  C   UNL     1     -40.275  52.181 -53.635  1.00  0.00     0.049 A 
HETATM    4  C   UNL     1     -39.921  52.041 -52.279  1.00  0.00     0.016 A 
HETATM    5  C   UNL     1     -39.556  50.769 -51.813  1.00  0.00     0.019 A 
HETATM    6  C   UNL     1     -39.524  49.669 -52.675  1.00  0.00     0.001 A 
ENDROOT
BRANCH   3   7
HETATM    7  C   UNL     1     -40.703  53.487 -54.197  1.00  0.00     0.257 C 
HETATM    8  N   UNL     1     -42.075  53.665 -54.229  1.00  0.00    -0.323 N 
HETATM    9  H   UNL     1     -42.647  52.905 -53.882  1.00  0.00     0.169 HD
HETATM   10  O   UNL     1     -39.850  54.256 -54.619  1.00  0.00    -0.267 OA
BRANCH   8  11
HETATM   11  C   UNL     1     -42.773  54.757 -54.790  1.00  0.00     0.037 A 
HETATM   12  C   UNL     1     -42.765  55.055 -56.159  1.00  0.00     0.061 A 
HETATM   13  C   UNL     1     -43.519  56.128 -56.571  1.00  0.00     0.065 A 
HETATM   14  C   UNL     1     -44.259  56.909 -55.689  1.00  0.00     0.063 A 
HETATM   15  N   UNL     1     -43.706  56.635 -57.853  1.00  0.00    -0.306 N 
HETATM   16  N   UNL     1     -44.903  57.896 -56.426  1.00  0.00    -0.307 N 
HETATM   17  C   UNL     1     -44.280  56.657 -54.341  1.00  0.00     0.034 A 
HETATM   18  C   UNL     1     -44.570  57.736 -57.781  1.00  0.00     0.325 A 
HETATM   19  H   UNL     1     -45.517  58.616 -56.083  1.00  0.00     0.170 HD
HETATM   20  O   UNL     1     -44.960  58.420 -58.709  1.00  0.00    -0.247 OA
HETATM   21  C   UNL     1     -43.524  55.564 -53.895  1.00  0.00     0.032 A 
HETATM   22  H   UNL     1     -43.303  56.280 -58.706  1.00  0.00     0.170 HD
ENDBRANCH   8  11
ENDBRANCH   3   7
BRANCH   4  23
HETATM   23  S   UNL     1     -39.917  53.365 -51.071  1.00  0.00    -0.120 SA
BRANCH  23  24
HETATM   24  C   UNL     1     -41.709  53.608 -50.838  1.00  0.00     0.182 C 
BRANCH  24  25
HETATM   25  C   UNL     1     -42.054  55.068 -50.603  1.00  0.00     0.227 C 
HETATM   26  N   UNL     1     -41.033  55.967 -50.801  1.00  0.00    -0.354 N 
HETATM   27  H   UNL     1     -40.174  55.665 -51.265  1.00  0.00     0.162 HD
HETATM   28  O   UNL     1     -43.155  55.404 -50.168  1.00  0.00    -0.273 OA
BRANCH  26  29
HETATM   29  C   UNL     1     -41.258  57.382 -50.636  1.00  0.00     0.187 C 
BRANCH  29  30
HETATM   30  C   UNL     1     -41.391  58.057 -51.953  1.00  0.00     0.070 A 
HETATM   31  O   UNL     1     -42.243  59.121 -52.032  1.00  0.00    -0.325 OA
HETATM   32  C   UNL     1     -42.182  59.590 -53.304  1.00  0.00     0.142 A 
HETATM   33  C   UNL     1     -41.294  58.849 -54.047  1.00  0.00     0.027 A 
HETATM   34  C   UNL     1     -40.781  57.858 -53.176  1.00  0.00     0.036 A 
ENDBRANCH  29  30
ENDBRANCH  26  29
ENDBRANCH  24  25
ENDBRANCH  23  24
ENDBRANCH   4  23
TORSDOF 7
ENDMDL
MODEL 2
REMARK VINA RESULT:      -7.9      2.252      5.774
REMARK  7 active torsions:
REMARK  status: ('A' for Active; 'I' for Inactive)
REMARK    1  A    between atoms: C_3  and  C_4 
REMARK       I    between atoms: C_4  and  N_5 
REMARK    2  A    between atoms: N_5  and  C_6 
REMARK    3  A    between atoms: C_17  and  S_18 
REMARK    4  A    between atoms: S_18  and  C_19 
REMARK    5  A    between atoms: C_19  and  C_20 
REMARK       I    between atoms: C_20  and  N_21 
REMARK    6  A    between atoms: N_21  and  C_22 
REMARK    7  A    between atoms: C_22  and  C_23 
ROOT
HETATM    1  C   UNL     1     -40.062  59.016 -52.008  1.00  0.00     0.001 A 
HETATM    2  C   UNL     1     -40.845  58.930 -53.157  1.00  0.00     0.018 A 
HETATM    3  C   UNL     1     -41.920  58.025 -53.213  1.00  0.00     0.049 A 
HETATM    4  C   UNL     1     -42.214  57.197 -52.113  1.00  0.00     0.016 A 
HETATM    5  C   UNL     1     -41.404  57.290 -50.972  1.00  0.00     0.019 A 
HETATM    6  C   UNL     1     -40.341  58.197 -50.917  1.00  0.00     0.001 A 
ENDROOT
BRANCH   3   7
HETATM    7  C   UNL     1     -42.711  57.963 -54.467  1.00  0.00     0.257 C 
HETATM    8  N   UNL     1     -42.102  57.249 -55.485  1.00  0.00    -0.323 N 
HETATM    9  H   UNL     1     -41.192  56.850 -55.287  1.00  0.00     0.169 HD
HETATM   10  O   UNL     1     -43.776  58.564 -54.525  1.00  0.00    -0.267 OA
BRANCH   8  11
HETATM   11  C   UNL     1     -42.567  57.100 -56.810  1.00  0.00     0.037 A 
HETATM   12  C   UNL     1     -43.129  55.915 -57.301  1.00  0.00     0.061 A 
HETATM   13  C   UNL     1     -43.572  55.922 -58.602  1.00  0.00     0.065 A 
HETATM   14  C   UNL     1     -43.471  57.041 -59.423  1.00  0.00     0.063 A 
HETATM   15  N   UNL     1     -44.178  54.907 -59.334  1.00  0.00    -0.306 N 
HETATM   16  N   UNL     1     -44.015  56.717 -60.660  1.00  0.00    -0.307 N 
HETATM   17  C   UNL     1     -42.915  58.215 -58.982  1.00  0.00     0.034 A 
HETATM   18  C   UNL     1     -44.463  55.387 -60.620  1.00  0.00     0.325 A 
HETATM   19  H   UNL     1     -44.097  57.309 -61.469  1.00  0.00     0.170 HD
HETATM   20  O   UNL     1     -44.999  54.774 -61.526  1.00  0.00    -0.247 OA
HETATM   21  C   UNL     1     -42.460  58.235 -57.656  1.00  0.00     0.032 A 
HETATM   22  H   UNL     1     -44.390  53.976 -59.012  1.00  0.00     0.170 HD
ENDBRANCH   8  11
ENDBRANCH   3   7
BRANCH   4  23
HETATM   23  S   UNL     1     -43.544  55.996 -52.051  1.00  0.00    -0.120 SA
BRANCH  23  24
HETATM   24  C   UNL     1     -43.018  54.849 -53.366  1.00  0.00     0.182 C 
BRANCH  24  25
HETATM   25  C   UNL     1     -41.583  54.389 -53.171  1.00  0.00     0.227 C 
HETATM   26  N   UNL     1     -41.359  53.553 -52.105  1.00  0.00    -0.354 N 
HETATM   27  H   UNL     1     -42.150  53.129 -51.617  1.00  0.00     0.162 HD
HETATM   28  O   UNL     1     -40.671  54.823 -53.874  1.00  0.00    -0.273 OA
BRANCH  26  29
HETATM   29  C   UNL     1     -40.039  53.030 -51.845  1.00  0.00     0.187 C 
BRANCH  29  30
HETATM   30  C   UNL     1     -39.844  51.720 -52.516  1.00  0.00     0.070 A 
HETATM   31  O   UNL     1     -39.659  50.626 -51.720  1.00  0.00    -0.325 OA
HETATM   32  C   UNL     1     -39.531  49.551 -52.538  1.00  0.00     0.142 A 
HETATM   33  C   UNL     1     -39.640  49.933 -53.854  1.00  0.00     0.027 A 
HETATM   34  C   UNL     1     -39.843  51.335 -53.843  1.00  0.00     0.036 A 
ENDBRANCH  29  30
ENDBRANCH  26  29
ENDBRANCH  24  25
ENDBRANCH  23  24
ENDBRANCH   4  23
TORSDOF 7
ENDMDL
MODEL 3
REMARK VINA RESULT:      -7.8      2.561      7.376
REMARK  7 active torsions:
REMARK  status: ('A' for Active; 'I' for Inactive)
REMARK    1  A    between atoms: C_3  and  C_4 
REMARK       I    between atoms: C_4  and  N_5 
REMARK    2  A    between atoms: N_5  and  C_6 
REMARK    3  A    between atoms: C_17  and  S_18 
REMARK    4  A    between atoms: S_18  and  C_19 
REMARK    5  A    between atoms: C_19  and  C_20 
REMARK       I    between atoms: C_20  and  N_21 
REMARK    6  A    between atoms: N_21  and  C_22 
REMARK    7  A    between atoms: C_22  and  C_23 
ROOT
HETATM    1  C   UNL     1     -41.362  59.968 -50.474  1.00  0.00     0.001 A 
HETATM    2  C   UNL     1     -40.918  58.797 -51.084  1.00  0.00     0.018 A 
HETATM    3  C   UNL     1     -41.799  58.031 -51.867  1.00  0.00     0.049 A 
HETATM    4  C   UNL     1     -43.137  58.435 -52.039  1.00  0.00     0.016 A 
HETATM    5  C   UNL     1     -43.567  59.609 -51.403  1.00  0.00     0.019 A 
HETATM    6  C   UNL     1     -42.685  60.373 -50.632  1.00  0.00     0.001 A 
ENDROOT
BRANCH   3   7
HETATM    7  C   UNL     1     -41.278  56.784 -52.482  1.00  0.00     0.257 C 
HETATM    8  N   UNL     1     -41.443  55.656 -51.697  1.00  0.00    -0.323 N 
HETATM    9  H   UNL     1     -41.886  55.782 -50.796  1.00  0.00     0.169 HD
HETATM   10  O   UNL     1     -40.719  56.850 -53.569  1.00  0.00    -0.267 OA
BRANCH   8  11
HETATM   11  C   UNL     1     -40.966  54.356 -51.975  1.00  0.00     0.037 A 
HETATM   12  C   UNL     1     -41.169  53.705 -53.198  1.00  0.00     0.061 A 
HETATM   13  C   UNL     1     -40.618  52.454 -53.342  1.00  0.00     0.065 A 
HETATM   14  C   UNL     1     -39.893  51.832 -52.331  1.00  0.00     0.063 A 
HETATM   15  N   UNL     1     -40.647  51.597 -54.437  1.00  0.00    -0.306 N 
HETATM   16  N   UNL     1     -39.475  50.593 -52.801  1.00  0.00    -0.307 N 
HETATM   17  C   UNL     1     -39.684  52.432 -51.115  1.00  0.00     0.034 A 
HETATM   18  C   UNL     1     -39.936  50.432 -54.118  1.00  0.00     0.325 A 
HETATM   19  H   UNL     1     -38.927  49.903 -52.314  1.00  0.00     0.170 HD
HETATM   20  O   UNL     1     -39.749  49.470 -54.839  1.00  0.00    -0.247 OA
HETATM   21  C   UNL     1     -40.232  53.711 -50.944  1.00  0.00     0.032 A 
HETATM   22  H   UNL     1     -41.095  51.768 -55.324  1.00  0.00     0.170 HD
ENDBRANCH   8  11
ENDBRANCH   3   7
BRANCH   4  23
HETATM   23  S   UNL     1     -44.367  57.552 -53.000  1.00  0.00    -0.120 SA
BRANCH  23  24
HETATM   24  C   UNL     1     -43.880  58.035 -54.689  1.00  0.00     0.182 C 
BRANCH  24  25
HETATM   25  C   UNL     1     -43.518  56.829 -55.537  1.00  0.00     0.227 C 
HETATM   26  N   UNL     1     -43.334  57.069 -56.877  1.00  0.00    -0.354 N 
HETATM   27  H   UNL     1     -43.255  58.030 -57.214  1.00  0.00     0.162 HD
HETATM   28  O   UNL     1     -43.491  55.695 -55.059  1.00  0.00    -0.273 OA
BRANCH  26  29
HETATM   29  C   UNL     1     -42.956  56.001 -57.770  1.00  0.00     0.187 C 
BRANCH  29  30
HETATM   30  C   UNL     1     -43.975  55.811 -58.834  1.00  0.00     0.070 A 
HETATM   31  O   UNL     1     -44.879  56.816 -59.028  1.00  0.00    -0.325 OA
HETATM   32  C   UNL     1     -45.684  56.440 -60.054  1.00  0.00     0.142 A 
HETATM   33  C   UNL     1     -45.307  55.208 -60.534  1.00  0.00     0.027 A 
HETATM   34  C   UNL     1     -44.202  54.799 -59.747  1.00  0.00     0.036 A 
ENDBRANCH  29  30
ENDBRANCH  26  29
ENDBRANCH  24  25
ENDBRANCH  23  24
ENDBRANCH   4  23
TORSDOF 7
ENDMDL
MODEL 4
REMARK VINA RESULT:      -7.8      2.504      7.200
REMARK  7 active torsions:
REMARK  status: ('A' for Active; 'I' for Inactive)
REMARK    1  A    between atoms: C_3  and  C_4 
REMARK       I    between atoms: C_4  and  N_5 
REMARK    2  A    between atoms: N_5  and  C_6 
REMARK    3  A    between atoms: C_17  and  S_18 
REMARK    4  A    between atoms: S_18  and  C_19 
REMARK    5  A    between atoms: C_19  and  C_20 
REMARK       I    between atoms: C_20  and  N_21 
REMARK    6  A    between atoms: N_21  and  C_22 
REMARK    7  A    between atoms: C_22  and  C_23 
ROOT
HETATM    1  C   UNL     1     -41.066  59.742 -50.227  1.00  0.00     0.001 A 
HETATM    2  C   UNL     1     -40.980  58.367 -50.432  1.00  0.00     0.018 A 
HETATM    3  C   UNL     1     -42.001  57.692 -51.124  1.00  0.00     0.049 A 
HETATM    4  C   UNL     1     -43.118  58.395 -51.614  1.00  0.00     0.016 A 
HETATM    5  C   UNL     1     -43.191  59.777 -51.382  1.00  0.00     0.019 A 
HETATM    6  C   UNL     1     -42.170  60.446 -50.701  1.00  0.00     0.001 A 
ENDROOT
BRANCH   3   7
HETATM    7  C   UNL     1     -41.867  56.224 -51.301  1.00  0.00     0.257 C 
HETATM    8  N   UNL     1     -41.160  55.853 -52.433  1.00  0.00    -0.323 N 
HETATM    9  H   UNL     1     -40.814  56.598 -53.024  1.00  0.00     0.169 HD
HETATM   10  O   UNL     1     -42.411  55.479 -50.496  1.00  0.00    -0.267 OA
BRANCH   8  11
HETATM   11  C   UNL     1     -40.956  54.539 -52.909  1.00  0.00     0.037 A 
HETATM   12  C   UNL     1     -40.232  53.568 -52.205  1.00  0.00     0.061 A 
HETATM   13  C   UNL     1     -40.142  52.319 -52.773  1.00  0.00     0.065 A 
HETATM   14  C   UNL     1     -40.726  52.007 -53.997  1.00  0.00     0.063 A 
HETATM   15  N   UNL     1     -39.510  51.176 -52.295  1.00  0.00    -0.306 N 
HETATM   16  N   UNL     1     -40.454  50.673 -54.274  1.00  0.00    -0.307 N 
HETATM   17  C   UNL     1     -41.430  52.935 -54.721  1.00  0.00     0.034 A 
HETATM   18  C   UNL     1     -39.697  50.139 -53.219  1.00  0.00     0.325 A 
HETATM   19  H   UNL     1     -40.739  50.142 -55.080  1.00  0.00     0.170 HD
HETATM   20  O   UNL     1     -39.288  48.996 -53.125  1.00  0.00    -0.247 OA
HETATM   21  C   UNL     1     -41.541  54.216 -54.162  1.00  0.00     0.032 A 
HETATM   22  H   UNL     1     -39.002  51.086 -51.430  1.00  0.00     0.170 HD
ENDBRANCH   8  11
ENDBRANCH   3   7
BRANCH   4  23
HETATM   23  S   UNL     1     -44.492  57.662 -52.502  1.00  0.00    -0.120 SA
BRANCH  23  24
HETATM   24  C   UNL     1     -44.273  58.426 -54.143  1.00  0.00     0.182 C 
BRANCH  24  25
HETATM   25  C   UNL     1     -43.307  57.636 -55.008  1.00  0.00     0.227 C 
HETATM   26  N   UNL     1     -43.876  56.831 -55.965  1.00  0.00    -0.354 N 
HETATM   27  H   UNL     1     -44.868  56.931 -56.187  1.00  0.00     0.162 HD
HETATM   28  O   UNL     1     -42.095  57.650 -54.792  1.00  0.00    -0.273 OA
BRANCH  26  29
HETATM   29  C   UNL     1     -43.051  56.061 -56.863  1.00  0.00     0.187 C 
BRANCH  29  30
HETATM   30  C   UNL     1     -43.193  56.541 -58.261  1.00  0.00     0.070 A 
HETATM   31  O   UNL     1     -42.215  57.361 -58.749  1.00  0.00    -0.325 OA
HETATM   32  C   UNL     1     -42.536  57.647 -60.036  1.00  0.00     0.142 A 
HETATM   33  C   UNL     1     -43.704  57.015 -60.392  1.00  0.00     0.027 A 
HETATM   34  C   UNL     1     -44.131  56.300 -59.246  1.00  0.00     0.036 A 
ENDBRANCH  29  30
ENDBRANCH  26  29
ENDBRANCH  24  25
ENDBRANCH  23  24
ENDBRANCH   4  23
TORSDOF 7
ENDMDL
MODEL 5
REMARK VINA RESULT:      -7.8      2.675      7.807
REMARK  7 active torsions:
REMARK  status: ('A' for Active; 'I' for Inactive)
REMARK    1  A    between atoms: C_3  and  C_4 
REMARK       I    between atoms: C_4  and  N_5 
REMARK    2  A    between atoms: N_5  and  C_6 
REMARK    3  A    between atoms: C_17  and  S_18 
REMARK    4  A    between atoms: S_18  and  C_19 
REMARK    5  A    between atoms: C_19  and  C_20 
REMARK       I    between atoms: C_20  and  N_21 
REMARK    6  A    between atoms: N_21  and  C_22 
REMARK    7  A    between atoms: C_22  and  C_23 
ROOT
HETATM    1  C   UNL     1     -42.525  60.081 -51.105  1.00  0.00     0.001 A 
HETATM    2  C   UNL     1     -42.366  58.701 -51.009  1.00  0.00     0.018 A 
HETATM    3  C   UNL     1     -42.745  57.871 -52.078  1.00  0.00     0.049 A 
HETATM    4  C   UNL     1     -43.293  58.423 -53.252  1.00  0.00     0.016 A 
HETATM    5  C   UNL     1     -43.459  59.815 -53.321  1.00  0.00     0.019 A 
HETATM    6  C   UNL     1     -43.072  60.637 -52.259  1.00  0.00     0.001 A 
ENDROOT
BRANCH   3   7
HETATM    7  C   UNL     1     -42.568  56.406 -51.918  1.00  0.00     0.257 C 
HETATM    8  N   UNL     1     -41.329  55.939 -52.322  1.00  0.00    -0.323 N 
HETATM    9  H   UNL     1     -40.676  56.622 -52.688  1.00  0.00     0.169 HD
HETATM   10  O   UNL     1     -43.507  55.738 -51.505  1.00  0.00    -0.267 OA
BRANCH   8  11
HETATM   11  C   UNL     1     -40.909  54.591 -52.377  1.00  0.00     0.037 A 
HETATM   12  C   UNL     1     -40.925  53.826 -53.549  1.00  0.00     0.061 A 
HETATM   13  C   UNL     1     -40.455  52.537 -53.463  1.00  0.00     0.065 A 
HETATM   14  C   UNL     1     -39.985  51.987 -52.274  1.00  0.00     0.063 A 
HETATM   15  N   UNL     1     -40.341  51.571 -54.457  1.00  0.00    -0.306 N 
HETATM   16  N   UNL     1     -39.582  50.683 -52.535  1.00  0.00    -0.307 N 
HETATM   17  C   UNL     1     -39.966  52.701 -51.104  1.00  0.00     0.034 A 
HETATM   18  C   UNL     1     -39.795  50.409 -53.895  1.00  0.00     0.325 A 
HETATM   19  H   UNL     1     -39.192  50.020 -51.886  1.00  0.00     0.170 HD
HETATM   20  O   UNL     1     -39.549  49.365 -54.472  1.00  0.00    -0.247 OA
HETATM   21  C   UNL     1     -40.436  54.021 -51.165  1.00  0.00     0.032 A 
HETATM   22  H   UNL     1     -40.597  51.671 -55.427  1.00  0.00     0.170 HD
ENDBRANCH   8  11
ENDBRANCH   3   7
BRANCH   4  23
HETATM   23  S   UNL     1     -43.828  57.485 -54.683  1.00  0.00    -0.120 SA
BRANCH  23  24
HETATM   24  C   UNL     1     -42.377  57.680 -55.770  1.00  0.00     0.182 C 
BRANCH  24  25
HETATM   25  C   UNL     1     -42.778  57.784 -57.231  1.00  0.00     0.227 C 
HETATM   26  N   UNL     1     -42.124  56.940 -58.096  1.00  0.00    -0.354 N 
HETATM   27  H   UNL     1     -41.561  56.172 -57.727  1.00  0.00     0.162 HD
HETATM   28  O   UNL     1     -43.570  58.643 -57.618  1.00  0.00    -0.273 OA
BRANCH  26  29
HETATM   29  C   UNL     1     -42.448  56.933 -59.502  1.00  0.00     0.187 C 
BRANCH  29  30
HETATM   30  C   UNL     1     -43.496  55.924 -59.802  1.00  0.00     0.070 A 
HETATM   31  O   UNL     1     -44.083  55.972 -61.034  1.00  0.00    -0.325 OA
HETATM   32  C   UNL     1     -44.976  54.952 -61.093  1.00  0.00     0.142 A 
HETATM   33  C   UNL     1     -44.968  54.237 -59.919  1.00  0.00     0.027 A 
HETATM   34  C   UNL     1     -44.011  54.863 -59.082  1.00  0.00     0.036 A 
ENDBRANCH  29  30
ENDBRANCH  26  29
ENDBRANCH  24  25
ENDBRANCH  23  24
ENDBRANCH   4  23
TORSDOF 7
ENDMDL
MODEL 6
REMARK VINA RESULT:      -7.8      2.765      6.499
REMARK  7 active torsions:
REMARK  status: ('A' for Active; 'I' for Inactive)
REMARK    1  A    between atoms: C_3  and  C_4 
REMARK       I    between atoms: C_4  and  N_5 
REMARK    2  A    between atoms: N_5  and  C_6 
REMARK    3  A    between atoms: C_17  and  S_18 
REMARK    4  A    between atoms: S_18  and  C_19 
REMARK    5  A    between atoms: C_19  and  C_20 
REMARK       I    between atoms: C_20  and  N_21 
REMARK    6  A    between atoms: N_21  and  C_22 
REMARK    7  A    between atoms: C_22  and  C_23 
ROOT
HETATM    1  C   UNL     1     -42.988  56.024 -59.675  1.00  0.00     0.001 A 
HETATM    2  C   UNL     1     -42.922  55.447 -58.409  1.00  0.00     0.018 A 
HETATM    3  C   UNL     1     -42.757  56.257 -57.272  1.00  0.00     0.049 A 
HETATM    4  C   UNL     1     -42.653  57.656 -57.400  1.00  0.00     0.016 A 
HETATM    5  C   UNL     1     -42.707  58.214 -58.687  1.00  0.00     0.019 A 
HETATM    6  C   UNL     1     -42.880  57.405 -59.814  1.00  0.00     0.001 A 
ENDROOT
BRANCH   3   7
HETATM    7  C   UNL     1     -42.678  55.590 -55.948  1.00  0.00     0.257 C 
HETATM    8  N   UNL     1     -41.412  55.133 -55.622  1.00  0.00    -0.323 N 
HETATM    9  H   UNL     1     -40.677  55.286 -56.301  1.00  0.00     0.169 HD
HETATM   10  O   UNL     1     -43.702  55.452 -55.293  1.00  0.00    -0.267 OA
BRANCH   8  11
HETATM   11  C   UNL     1     -41.053  54.381 -54.481  1.00  0.00     0.037 A 
HETATM   12  C   UNL     1     -40.594  53.059 -54.542  1.00  0.00     0.061 A 
HETATM   13  C   UNL     1     -40.247  52.460 -53.355  1.00  0.00     0.065 A 
HETATM   14  C   UNL     1     -40.345  53.111 -52.129  1.00  0.00     0.063 A 
HETATM   15  N   UNL     1     -39.752  51.181 -53.123  1.00  0.00    -0.306 N 
HETATM   16  N   UNL     1     -39.911  52.234 -51.141  1.00  0.00    -0.307 N 
HETATM   17  C   UNL     1     -40.802  54.400 -52.028  1.00  0.00     0.034 A 
HETATM   18  C   UNL     1     -39.535  51.025 -51.747  1.00  0.00     0.325 A 
HETATM   19  H   UNL     1     -39.856  52.404 -50.151  1.00  0.00     0.170 HD
HETATM   20  O   UNL     1     -39.101  50.036 -51.184  1.00  0.00    -0.247 OA
HETATM   21  C   UNL     1     -41.159  55.036 -53.225  1.00  0.00     0.032 A 
HETATM   22  H   UNL     1     -39.568  50.472 -53.814  1.00  0.00     0.170 HD
ENDBRANCH   8  11
ENDBRANCH   3   7
BRANCH   4  23
HETATM   23  S   UNL     1     -42.431  58.804 -56.041  1.00  0.00    -0.120 SA
BRANCH  23  24
HETATM   24  C   UNL     1     -44.159  59.018 -55.501  1.00  0.00     0.182 C 
BRANCH  24  25
HETATM   25  C   UNL     1     -44.309  58.820 -54.002  1.00  0.00     0.227 C 
HETATM   26  N   UNL     1     -43.463  57.902 -53.428  1.00  0.00    -0.354 N 
HETATM   27  H   UNL     1     -42.669  57.543 -53.960  1.00  0.00     0.162 HD
HETATM   28  O   UNL     1     -45.203  59.382 -53.369  1.00  0.00    -0.273 OA
BRANCH  26  29
HETATM   29  C   UNL     1     -43.498  57.659 -52.007  1.00  0.00     0.187 C 
BRANCH  29  30
HETATM   30  C   UNL     1     -42.423  58.411 -51.311  1.00  0.00     0.070 A 
HETATM   31  O   UNL     1     -42.620  59.747 -51.107  1.00  0.00    -0.325 OA
HETATM   32  C   UNL     1     -41.535  60.214 -50.439  1.00  0.00     0.142 A 
HETATM   33  C   UNL     1     -40.643  59.197 -50.199  1.00  0.00     0.027 A 
HETATM   34  C   UNL     1     -41.214  58.030 -50.762  1.00  0.00     0.036 A 
ENDBRANCH  29  30
ENDBRANCH  26  29
ENDBRANCH  24  25
ENDBRANCH  23  24
ENDBRANCH   4  23
TORSDOF 7
ENDMDL
MODEL 7
REMARK VINA RESULT:      -7.5      2.685      6.198
REMARK  7 active torsions:
REMARK  status: ('A' for Active; 'I' for Inactive)
REMARK    1  A    between atoms: C_3  and  C_4 
REMARK       I    between atoms: C_4  and  N_5 
REMARK    2  A    between atoms: N_5  and  C_6 
REMARK    3  A    between atoms: C_17  and  S_18 
REMARK    4  A    between atoms: S_18  and  C_19 
REMARK    5  A    between atoms: C_19  and  C_20 
REMARK       I    between atoms: C_20  and  N_21 
REMARK    6  A    between atoms: N_21  and  C_22 
REMARK    7  A    between atoms: C_22  and  C_23 
ROOT
HETATM    1  C   UNL     1     -39.660  52.074 -52.283  1.00  0.00     0.001 A 
HETATM    2  C   UNL     1     -40.321  53.194 -51.783  1.00  0.00     0.018 A 
HETATM    3  C   UNL     1     -41.307  53.834 -52.553  1.00  0.00     0.049 A 
HETATM    4  C   UNL     1     -41.635  53.355 -53.836  1.00  0.00     0.016 A 
HETATM    5  C   UNL     1     -40.946  52.235 -54.326  1.00  0.00     0.019 A 
HETATM    6  C   UNL     1     -39.972  51.596 -53.554  1.00  0.00     0.001 A 
ENDROOT
BRANCH   3   7
HETATM    7  C   UNL     1     -41.969  55.032 -51.977  1.00  0.00     0.257 C 
HETATM    8  N   UNL     1     -41.288  56.216 -52.202  1.00  0.00    -0.323 N 
HETATM    9  H   UNL     1     -40.419  56.157 -52.719  1.00  0.00     0.169 HD
HETATM   10  O   UNL     1     -42.998  54.886 -51.331  1.00  0.00    -0.267 OA
BRANCH   8  11
HETATM   11  C   UNL     1     -41.621  57.492 -51.698  1.00  0.00     0.037 A 
HETATM   12  C   UNL     1     -42.839  58.131 -51.964  1.00  0.00     0.061 A 
HETATM   13  C   UNL     1     -43.044  59.358 -51.379  1.00  0.00     0.065 A 
HETATM   14  C   UNL     1     -42.098  59.967 -50.561  1.00  0.00     0.063 A 
HETATM   15  N   UNL     1     -44.150  60.198 -51.454  1.00  0.00    -0.306 N 
HETATM   16  N   UNL     1     -42.619  61.182 -50.132  1.00  0.00    -0.307 N 
HETATM   17  C   UNL     1     -40.889  59.379 -50.288  1.00  0.00     0.034 A 
HETATM   18  C   UNL     1     -43.903  61.340 -50.679  1.00  0.00     0.325 A 
HETATM   19  H   UNL     1     -42.184  61.858 -49.526  1.00  0.00     0.170 HD
HETATM   20  O   UNL     1     -44.653  62.283 -50.509  1.00  0.00    -0.247 OA
HETATM   21  C   UNL     1     -40.657  58.124 -50.869  1.00  0.00     0.032 A 
HETATM   22  H   UNL     1     -45.000  60.031 -51.969  1.00  0.00     0.170 HD
ENDBRANCH   8  11
ENDBRANCH   3   7
BRANCH   4  23
HETATM   23  S   UNL     1     -42.861  54.077 -54.926  1.00  0.00    -0.120 SA
BRANCH  23  24
HETATM   24  C   UNL     1     -41.839  55.295 -55.816  1.00  0.00     0.182 C 
BRANCH  24  25
HETATM   25  C   UNL     1     -42.689  56.272 -56.611  1.00  0.00     0.227 C 
HETATM   26  N   UNL     1     -42.353  56.423 -57.934  1.00  0.00    -0.354 N 
HETATM   27  H   UNL     1     -41.704  55.766 -58.372  1.00  0.00     0.162 HD
HETATM   28  O   UNL     1     -43.559  56.952 -56.068  1.00  0.00    -0.273 OA
BRANCH  26  29
HETATM   29  C   UNL     1     -43.114  57.301 -58.790  1.00  0.00     0.187 C 
BRANCH  29  30
HETATM   30  C   UNL     1     -44.153  56.548 -59.537  1.00  0.00     0.070 A 
HETATM   31  O   UNL     1     -43.736  55.526 -60.341  1.00  0.00    -0.325 OA
HETATM   32  C   UNL     1     -44.844  54.972 -60.893  1.00  0.00     0.142 A 
HETATM   33  C   UNL     1     -45.975  55.615 -60.450  1.00  0.00     0.027 A 
HETATM   34  C   UNL     1     -45.532  56.634 -59.572  1.00  0.00     0.036 A 
ENDBRANCH  29  30
ENDBRANCH  26  29
ENDBRANCH  24  25
ENDBRANCH  23  24
ENDBRANCH   4  23
TORSDOF 7
ENDMDL
MODEL 8
REMARK VINA RESULT:      -7.5      1.867      2.327
REMARK  7 active torsions:
REMARK  status: ('A' for Active; 'I' for Inactive)
REMARK    1  A    between atoms: C_3  and  C_4 
REMARK       I    between atoms: C_4  and  N_5 
REMARK    2  A    between atoms: N_5  and  C_6 
REMARK    3  A    between atoms: C_17  and  S_18 
REMARK    4  A    between atoms: S_18  and  C_19 
REMARK    5  A    between atoms: C_19  and  C_20 
REMARK       I    between atoms: C_20  and  N_21 
REMARK    6  A    between atoms: N_21  and  C_22 
REMARK    7  A    between atoms: C_22  and  C_23 
ROOT
HETATM    1  C   UNL     1     -39.988  51.345 -53.531  1.00  0.00     0.001 A 
HETATM    2  C   UNL     1     -40.885  52.167 -54.209  1.00  0.00     0.018 A 
HETATM    3  C   UNL     1     -41.266  53.403 -53.658  1.00  0.00     0.049 A 
HETATM    4  C   UNL     1     -40.749  53.820 -52.416  1.00  0.00     0.016 A 
HETATM    5  C   UNL     1     -39.859  52.970 -51.743  1.00  0.00     0.019 A 
HETATM    6  C   UNL     1     -39.476  51.746 -52.299  1.00  0.00     0.001 A 
ENDROOT
BRANCH   3   7
HETATM    7  C   UNL     1     -42.237  54.232 -54.415  1.00  0.00     0.257 C 
HETATM    8  N   UNL     1     -41.657  55.047 -55.373  1.00  0.00    -0.323 N 
HETATM    9  H   UNL     1     -40.649  55.009 -55.462  1.00  0.00     0.169 HD
HETATM   10  O   UNL     1     -43.422  54.176 -54.116  1.00  0.00    -0.267 OA
BRANCH   8  11
HETATM   11  C   UNL     1     -42.312  56.008 -56.175  1.00  0.00     0.037 A 
HETATM   12  C   UNL     1     -42.968  55.694 -57.371  1.00  0.00     0.061 A 
HETATM   13  C   UNL     1     -43.594  56.724 -58.033  1.00  0.00     0.065 A 
HETATM   14  C   UNL     1     -43.584  58.033 -57.561  1.00  0.00     0.063 A 
HETATM   15  N   UNL     1     -44.323  56.699 -59.216  1.00  0.00    -0.306 N 
HETATM   16  N   UNL     1     -44.308  58.816 -58.454  1.00  0.00    -0.307 N 
HETATM   17  C   UNL     1     -42.942  58.381 -56.401  1.00  0.00     0.034 A 
HETATM   18  C   UNL     1     -44.779  57.996 -59.492  1.00  0.00     0.325 A 
HETATM   19  H   UNL     1     -44.492  59.804 -58.396  1.00  0.00     0.170 HD
HETATM   20  O   UNL     1     -45.455  58.346 -60.442  1.00  0.00    -0.247 OA
HETATM   21  C   UNL     1     -42.300  57.348 -55.705  1.00  0.00     0.032 A 
HETATM   22  H   UNL     1     -44.510  55.894 -59.792  1.00  0.00     0.170 HD
ENDBRANCH   8  11
ENDBRANCH   3   7
BRANCH   4  23
HETATM   23  S   UNL     1     -41.155  55.362 -51.595  1.00  0.00    -0.120 SA
BRANCH  23  24
HETATM   24  C   UNL     1     -42.740  54.915 -50.814  1.00  0.00     0.182 C 
BRANCH  24  25
HETATM   25  C   UNL     1     -43.820  55.943 -51.103  1.00  0.00     0.227 C 
HETATM   26  N   UNL     1     -43.624  56.725 -52.216  1.00  0.00    -0.354 N 
HETATM   27  H   UNL     1     -42.899  56.474 -52.891  1.00  0.00     0.162 HD
HETATM   28  O   UNL     1     -44.759  56.122 -50.327  1.00  0.00    -0.273 OA
BRANCH  26  29
HETATM   29  C   UNL     1     -44.602  57.712 -52.603  1.00  0.00     0.187 C 
BRANCH  29  30
HETATM   30  C   UNL     1     -43.960  59.025 -52.862  1.00  0.00     0.070 A 
HETATM   31  O   UNL     1     -42.606  59.106 -52.709  1.00  0.00    -0.325 OA
HETATM   32  C   UNL     1     -42.241  60.375 -53.021  1.00  0.00     0.142 A 
HETATM   33  C   UNL     1     -43.341  61.115 -53.384  1.00  0.00     0.027 A 
HETATM   34  C   UNL     1     -44.454  60.245 -53.283  1.00  0.00     0.036 A 
ENDBRANCH  29  30
ENDBRANCH  26  29
ENDBRANCH  24  25
ENDBRANCH  23  24
ENDBRANCH   4  23
TORSDOF 7
ENDMDL
MODEL 9
REMARK VINA RESULT:      -7.4      3.003      7.010
REMARK  7 active torsions:
REMARK  status: ('A' for Active; 'I' for Inactive)
REMARK    1  A    between atoms: C_3  and  C_4 
REMARK       I    between atoms: C_4  and  N_5 
REMARK    2  A    between atoms: N_5  and  C_6 
REMARK    3  A    between atoms: C_17  and  S_18 
REMARK    4  A    between atoms: S_18  and  C_19 
REMARK    5  A    between atoms: C_19  and  C_20 
REMARK       I    between atoms: C_20  and  N_21 
REMARK    6  A    between atoms: N_21  and  C_22 
REMARK    7  A    between atoms: C_22  and  C_23 
ROOT
HETATM    1  C   UNL     1     -44.802  55.007 -60.787  1.00  0.00     0.001 A 
HETATM    2  C   UNL     1     -43.942  55.051 -59.692  1.00  0.00     0.018 A 
HETATM    3  C   UNL     1     -44.141  56.001 -58.676  1.00  0.00     0.049 A 
HETATM    4  C   UNL     1     -45.206  56.919 -58.754  1.00  0.00     0.016 A 
HETATM    5  C   UNL     1     -46.051  56.867 -59.873  1.00  0.00     0.019 A 
HETATM    6  C   UNL     1     -45.855  55.915 -60.878  1.00  0.00     0.001 A 
ENDROOT
BRANCH   3   7
HETATM    7  C   UNL     1     -43.185  56.014 -57.540  1.00  0.00     0.257 C 
HETATM    8  N   UNL     1     -43.288  54.916 -56.703  1.00  0.00    -0.323 N 
HETATM    9  H   UNL     1     -43.992  54.225 -56.933  1.00  0.00     0.169 HD
HETATM   10  O   UNL     1     -42.443  56.977 -57.403  1.00  0.00    -0.267 OA
BRANCH   8  11
HETATM   11  C   UNL     1     -42.582  54.701 -55.498  1.00  0.00     0.037 A 
HETATM   12  C   UNL     1     -43.198  54.660 -54.242  1.00  0.00     0.061 A 
HETATM   13  C   UNL     1     -42.393  54.408 -53.156  1.00  0.00     0.065 A 
HETATM   14  C   UNL     1     -41.021  54.208 -53.270  1.00  0.00     0.063 A 
HETATM   15  N   UNL     1     -42.733  54.296 -51.812  1.00  0.00    -0.306 N 
HETATM   16  N   UNL     1     -40.514  53.973 -51.997  1.00  0.00    -0.307 N 
HETATM   17  C   UNL     1     -40.380  54.255 -54.482  1.00  0.00     0.034 A 
HETATM   18  C   UNL     1     -41.572  54.021 -51.076  1.00  0.00     0.325 A 
HETATM   19  H   UNL     1     -39.559  53.788 -51.741  1.00  0.00     0.170 HD
HETATM   20  O   UNL     1     -41.494  53.853 -49.872  1.00  0.00    -0.247 OA
HETATM   21  C   UNL     1     -41.180  54.506 -55.606  1.00  0.00     0.032 A 
HETATM   22  H   UNL     1     -43.654  54.387 -51.414  1.00  0.00     0.170 HD
ENDBRANCH   8  11
ENDBRANCH   3   7
BRANCH   4  23
HETATM   23  S   UNL     1     -45.569  58.186 -57.539  1.00  0.00    -0.120 SA
BRANCH  23  24
HETATM   24  C   UNL     1     -44.829  59.644 -58.347  1.00  0.00     0.182 C 
BRANCH  24  25
HETATM   25  C   UNL     1     -44.027  60.484 -57.368  1.00  0.00     0.227 C 
HETATM   26  N   UNL     1     -43.169  59.795 -56.545  1.00  0.00    -0.354 N 
HETATM   27  H   UNL     1     -42.959  58.814 -56.739  1.00  0.00     0.162 HD
HETATM   28  O   UNL     1     -44.216  61.695 -57.260  1.00  0.00    -0.273 OA
BRANCH  26  29
HETATM   29  C   UNL     1     -42.336  60.496 -55.599  1.00  0.00     0.187 C 
BRANCH  29  30
HETATM   30  C   UNL     1     -41.858  59.582 -54.530  1.00  0.00     0.070 A 
HETATM   31  O   UNL     1     -41.472  60.144 -53.347  1.00  0.00    -0.325 OA
HETATM   32  C   UNL     1     -41.105  59.131 -52.523  1.00  0.00     0.142 A 
HETATM   33  C   UNL     1     -41.258  57.919 -53.153  1.00  0.00     0.027 A 
HETATM   34  C   UNL     1     -41.745  58.208 -54.451  1.00  0.00     0.036 A 
ENDBRANCH  29  30
ENDBRANCH  26  29
ENDBRANCH  24  25
ENDBRANCH  23  24
ENDBRANCH   4  23
TORSDOF 7
ENDMDL
MODEL 10
REMARK VINA RESULT:      -7.2      2.215      2.936
REMARK  7 active torsions:
REMARK  status: ('A' for Active; 'I' for Inactive)
REMARK    1  A    between atoms: C_3  and  C_4 
REMARK       I    between atoms: C_4  and  N_5 
REMARK    2  A    between atoms: N_5  and  C_6 
REMARK    3  A    between atoms: C_17  and  S_18 
REMARK    4  A    between atoms: S_18  and  C_19 
REMARK    5  A    between atoms: C_19  and  C_20 
REMARK       I    between atoms: C_20  and  N_21 
REMARK    6  A    between atoms: N_21  and  C_22 
REMARK    7  A    between atoms: C_22  and  C_23 
ROOT
HETATM    1  C   UNL     1     -40.315  51.642 -53.696  1.00  0.00     0.001 A 
HETATM    2  C   UNL     1     -41.186  52.465 -54.406  1.00  0.00     0.018 A 
HETATM    3  C   UNL     1     -41.521  53.736 -53.906  1.00  0.00     0.049 A 
HETATM    4  C   UNL     1     -40.985  54.188 -52.685  1.00  0.00     0.016 A 
HETATM    5  C   UNL     1     -40.121  53.336 -51.980  1.00  0.00     0.019 A 
HETATM    6  C   UNL     1     -39.783  52.077 -52.485  1.00  0.00     0.001 A 
ENDROOT
BRANCH   3   7
HETATM    7  C   UNL     1     -42.467  54.565 -54.695  1.00  0.00     0.257 C 
HETATM    8  N   UNL     1     -41.861  55.334 -55.674  1.00  0.00    -0.323 N 
HETATM    9  H   UNL     1     -40.854  55.267 -55.757  1.00  0.00     0.169 HD
HETATM   10  O   UNL     1     -43.654  54.549 -54.401  1.00  0.00    -0.267 OA
BRANCH   8  11
HETATM   11  C   UNL     1     -42.487  56.286 -56.510  1.00  0.00     0.037 A 
HETATM   12  C   UNL     1     -42.617  57.639 -56.175  1.00  0.00     0.061 A 
HETATM   13  C   UNL     1     -43.218  58.460 -57.099  1.00  0.00     0.065 A 
HETATM   14  C   UNL     1     -43.696  57.992 -58.320  1.00  0.00     0.063 A 
HETATM   15  N   UNL     1     -43.461  59.828 -57.039  1.00  0.00    -0.306 N 
HETATM   16  N   UNL     1     -44.232  59.071 -59.012  1.00  0.00    -0.307 N 
HETATM   17  C   UNL     1     -43.599  56.672 -58.678  1.00  0.00     0.034 A 
HETATM   18  C   UNL     1     -44.091  60.226 -58.227  1.00  0.00     0.325 A 
HETATM   19  H   UNL     1     -44.653  59.066 -59.926  1.00  0.00     0.170 HD
HETATM   20  O   UNL     1     -44.444  61.353 -58.524  1.00  0.00    -0.247 OA
HETATM   21  C   UNL     1     -42.985  55.814 -57.754  1.00  0.00     0.032 A 
HETATM   22  H   UNL     1     -43.227  60.449 -56.281  1.00  0.00     0.170 HD
ENDBRANCH   8  11
ENDBRANCH   3   7
BRANCH   4  23
HETATM   23  S   UNL     1     -41.333  55.775 -51.929  1.00  0.00    -0.120 SA
BRANCH  23  24
HETATM   24  C   UNL     1     -42.938  55.423 -51.140  1.00  0.00     0.182 C 
BRANCH  24  25
HETATM   25  C   UNL     1     -43.958  56.512 -51.427  1.00  0.00     0.227 C 
HETATM   26  N   UNL     1     -43.759  57.234 -52.579  1.00  0.00    -0.354 N 
HETATM   27  H   UNL     1     -43.083  56.908 -53.272  1.00  0.00     0.162 HD
HETATM   28  O   UNL     1     -44.846  56.786 -50.621  1.00  0.00    -0.273 OA
BRANCH  26  29
HETATM   29  C   UNL     1     -44.684  58.271 -52.965  1.00  0.00     0.187 C 
BRANCH  29  30
HETATM   30  C   UNL     1     -44.062  59.614 -52.839  1.00  0.00     0.070 A 
HETATM   31  O   UNL     1     -43.365  60.089 -53.913  1.00  0.00    -0.325 OA
HETATM   32  C   UNL     1     -42.916  61.327 -53.584  1.00  0.00     0.142 A 
HETATM   33  C   UNL     1     -43.322  61.664 -52.314  1.00  0.00     0.027 A 
HETATM   34  C   UNL     1     -44.064  60.559 -51.831  1.00  0.00     0.036 A 
ENDBRANCH  29  30
ENDBRANCH  26  29
ENDBRANCH  24  25
ENDBRANCH  23  24
ENDBRANCH   4  23
TORSDOF 7
ENDMDL
