MODEL 1
REMARK VINA RESULT:      -8.0      0.000      0.000
REMARK  4 active torsions:
REMARK  status: ('A' for Active; 'I' for Inactive)
REMARK    1  A    between atoms: C_5  and  C_6 
REMARK    2  A    between atoms: C_6  and  N_7 
REMARK    3  A    between atoms: N_13  and  C_15 
REMARK    4  A    between atoms: C_19  and  C_20 
ROOT
HETATM    1  N   UNL     1     -42.221  55.252 -56.196  1.00  0.00    -0.064 N 
HETATM    2  H   UNL     1     -41.686  54.997 -57.049  1.00  0.00     0.280 HD
HETATM    3  C   UNL     1     -41.227  55.906 -55.286  1.00  0.00     0.236 C 
HETATM    4  C   UNL     1     -41.828  56.152 -53.897  1.00  0.00     0.039 C 
HETATM    5  C   UNL     1     -42.531  54.929 -53.237  1.00  0.00    -0.013 C 
HETATM    6  C   UNL     1     -41.516  53.894 -52.682  1.00  0.00     0.245 C 
HETATM    7  N   UNL     1     -40.829  54.384 -51.430  1.00  0.00    -0.065 N 
HETATM    8  H   UNL     1     -40.298  55.241 -51.638  1.00  0.00     0.280 HD
HETATM    9  C   UNL     1     -41.814  54.730 -50.316  1.00  0.00     0.244 C 
HETATM   10  C   UNL     1     -42.761  55.852 -50.773  1.00  0.00     0.045 C 
HETATM   11  C   UNL     1     -43.465  55.383 -52.072  1.00  0.00     0.022 C 
HETATM   12  C   UNL     1     -43.447  54.250 -54.304  1.00  0.00     0.039 C 
HETATM   13  C   UNL     1     -42.777  53.981 -55.646  1.00  0.00     0.236 C 
ENDROOT
BRANCH   7  14
HETATM   14  C   UNL     1     -39.839  53.371 -50.929  1.00  0.00     0.188 A 
HETATM   15  C   UNL     1     -40.393  52.087 -50.381  1.00  0.00     0.035 A 
HETATM   16  C   UNL     1     -39.703  52.099 -51.715  1.00  0.00     0.035 A 
ENDBRANCH   7  14
BRANCH  10  17
HETATM   17  C   UNL     1     -42.168  57.256 -50.865  1.00  0.00    -0.052 A 
HETATM   18  C   UNL     1     -40.856  57.575 -50.476  1.00  0.00     0.007 A 
HETATM   19  C   UNL     1     -40.368  58.882 -50.581  1.00  0.00     0.001 A 
HETATM   20  C   UNL     1     -41.188  59.902 -51.047  1.00  0.00     0.000 A 
HETATM   21  C   UNL     1     -42.505  59.624 -51.387  1.00  0.00     0.001 A 
HETATM   22  C   UNL     1     -42.992  58.320 -51.284  1.00  0.00     0.007 A 
ENDBRANCH  10  17
BRANCH   1  23
HETATM   23  C   UNL     1     -43.280  56.214 -56.781  1.00  0.00     0.323 C 
BRANCH  23  24
HETATM   24  C   UNL     1     -42.913  56.681 -58.139  1.00  0.00     0.198 A 
HETATM   25  O   UNL     1     -42.857  55.754 -59.127  1.00  0.00    -0.194 OA
HETATM   26  N   UNL     1     -42.469  56.439 -60.274  1.00  0.00    -0.112 NA
HETATM   27  C   UNL     1     -42.326  57.704 -59.857  1.00  0.00     0.152 A 
HETATM   28  C   UNL     1     -41.873  58.789 -60.751  1.00  0.00     0.096 C 
HETATM   29  N   UNL     1     -42.617  57.903 -58.523  1.00  0.00    -0.208 NA
ENDBRANCH  23  24
ENDBRANCH   1  23
TORSDOF 4
ENDMDL
MODEL 2
REMARK VINA RESULT:      -7.9      2.811      7.267
REMARK  4 active torsions:
REMARK  status: ('A' for Active; 'I' for Inactive)
REMARK    1  A    between atoms: C_5  and  C_6 
REMARK    2  A    between atoms: C_6  and  N_7 
REMARK    3  A    between atoms: N_13  and  C_15 
REMARK    4  A    between atoms: C_19  and  C_20 
ROOT
HETATM    1  N   UNL     1     -40.398  53.931 -53.794  1.00  0.00    -0.064 N 
HETATM    2  H   UNL     1     -39.495  53.692 -53.341  1.00  0.00     0.280 HD
HETATM    3  C   UNL     1     -40.063  54.971 -54.819  1.00  0.00     0.236 C 
HETATM    4  C   UNL     1     -41.334  55.573 -55.430  1.00  0.00     0.039 C 
HETATM    5  C   UNL     1     -42.410  56.058 -54.414  1.00  0.00    -0.013 C 
HETATM    6  C   UNL     1     -42.021  57.403 -53.741  1.00  0.00     0.245 C 
HETATM    7  N   UNL     1     -42.151  58.571 -54.688  1.00  0.00    -0.065 N 
HETATM    8  H   UNL     1     -41.515  58.443 -55.487  1.00  0.00     0.280 HD
HETATM    9  C   UNL     1     -43.560  58.713 -55.259  1.00  0.00     0.244 C 
HETATM   10  C   UNL     1     -43.941  57.453 -56.053  1.00  0.00     0.045 C 
HETATM   11  C   UNL     1     -43.796  56.232 -55.109  1.00  0.00     0.022 C 
HETATM   12  C   UNL     1     -42.592  54.956 -53.323  1.00  0.00     0.039 C 
HETATM   13  C   UNL     1     -41.296  54.435 -52.714  1.00  0.00     0.236 C 
ENDROOT
BRANCH   7  14
HETATM   14  C   UNL     1     -41.749  59.854 -54.015  1.00  0.00     0.188 A 
HETATM   15  C   UNL     1     -42.836  60.642 -53.343  1.00  0.00     0.035 A 
HETATM   16  C   UNL     1     -41.829  59.896 -52.516  1.00  0.00     0.035 A 
ENDBRANCH   7  14
BRANCH  10  17
HETATM   17  C   UNL     1     -43.268  57.267 -57.411  1.00  0.00    -0.052 A 
HETATM   18  C   UNL     1     -42.456  58.240 -58.018  1.00  0.00     0.007 A 
HETATM   19  C   UNL     1     -41.866  58.014 -59.266  1.00  0.00     0.001 A 
HETATM   20  C   UNL     1     -42.099  56.825 -59.947  1.00  0.00     0.000 A 
HETATM   21  C   UNL     1     -42.940  55.869 -59.393  1.00  0.00     0.001 A 
HETATM   22  C   UNL     1     -43.528  56.094 -58.147  1.00  0.00     0.007 A 
ENDBRANCH  10  17
BRANCH   1  23
HETATM   23  C   UNL     1     -40.811  52.563 -54.384  1.00  0.00     0.323 C 
BRANCH  23  24
HETATM   24  C   UNL     1     -40.277  51.433 -53.587  1.00  0.00     0.198 A 
HETATM   25  O   UNL     1     -40.103  50.246 -54.219  1.00  0.00    -0.194 OA
HETATM   26  N   UNL     1     -39.628  49.364 -53.254  1.00  0.00    -0.112 NA
HETATM   27  C   UNL     1     -39.570  50.108 -52.142  1.00  0.00     0.152 A 
HETATM   28  C   UNL     1     -39.153  49.556 -50.837  1.00  0.00     0.096 C 
HETATM   29  N   UNL     1     -39.950  51.424 -52.313  1.00  0.00    -0.208 NA
ENDBRANCH  23  24
ENDBRANCH   1  23
TORSDOF 4
ENDMDL
MODEL 3
REMARK VINA RESULT:      -7.3      2.353      4.966
REMARK  4 active torsions:
REMARK  status: ('A' for Active; 'I' for Inactive)
REMARK    1  A    between atoms: C_5  and  C_6 
REMARK    2  A    between atoms: C_6  and  N_7 
REMARK    3  A    between atoms: N_13  and  C_15 
REMARK    4  A    between atoms: C_19  and  C_20 
ROOT
HETATM    1  N   UNL     1     -44.140  59.042 -57.258  1.00  0.00    -0.064 N 
HETATM    2  H   UNL     1     -45.044  59.226 -57.735  1.00  0.00     0.280 HD
HETATM    3  C   UNL     1     -44.369  57.806 -56.442  1.00  0.00     0.236 C 
HETATM    4  C   UNL     1     -43.178  57.527 -55.517  1.00  0.00     0.039 C 
HETATM    5  C   UNL     1     -42.692  58.730 -54.657  1.00  0.00    -0.013 C 
HETATM    6  C   UNL     1     -43.636  59.018 -53.458  1.00  0.00     0.245 C 
HETATM    7  N   UNL     1     -43.509  57.978 -52.371  1.00  0.00    -0.065 N 
HETATM    8  H   UNL     1     -43.771  57.054 -52.742  1.00  0.00     0.280 HD
HETATM    9  C   UNL     1     -42.084  57.855 -51.837  1.00  0.00     0.244 C 
HETATM   10  C   UNL     1     -41.127  57.438 -52.966  1.00  0.00     0.045 C 
HETATM   11  C   UNL     1     -41.253  58.479 -54.108  1.00  0.00     0.022 C 
HETATM   12  C   UNL     1     -42.606  59.991 -55.575  1.00  0.00     0.039 C 
HETATM   13  C   UNL     1     -43.841  60.247 -56.430  1.00  0.00     0.236 C 
ENDROOT
BRANCH   7  14
HETATM   14  C   UNL     1     -44.449  58.271 -51.236  1.00  0.00     0.188 A 
HETATM   15  C   UNL     1     -44.470  59.680 -50.713  1.00  0.00     0.035 A 
HETATM   16  C   UNL     1     -45.621  59.163 -51.529  1.00  0.00     0.035 A 
ENDBRANCH   7  14
BRANCH  10  17
HETATM   17  C   UNL     1     -41.214  55.990 -53.441  1.00  0.00    -0.052 A 
HETATM   18  C   UNL     1     -41.986  55.006 -52.800  1.00  0.00     0.007 A 
HETATM   19  C   UNL     1     -42.026  53.692 -53.280  1.00  0.00     0.001 A 
HETATM   20  C   UNL     1     -41.273  53.326 -54.389  1.00  0.00     0.000 A 
HETATM   21  C   UNL     1     -40.461  54.267 -55.008  1.00  0.00     0.001 A 
HETATM   22  C   UNL     1     -40.422  55.579 -54.531  1.00  0.00     0.007 A 
ENDBRANCH  10  17
BRANCH   1  23
HETATM   23  C   UNL     1     -43.196  58.844 -58.466  1.00  0.00     0.323 C 
BRANCH  23  24
HETATM   24  C   UNL     1     -43.491  57.589 -59.198  1.00  0.00     0.198 A 
HETATM   25  O   UNL     1     -42.522  56.641 -59.235  1.00  0.00    -0.194 OA
HETATM   26  N   UNL     1     -43.036  55.596 -59.995  1.00  0.00    -0.112 NA
HETATM   27  C   UNL     1     -44.257  56.025 -60.342  1.00  0.00     0.152 A 
HETATM   28  C   UNL     1     -45.160  55.238 -61.206  1.00  0.00     0.096 C 
HETATM   29  N   UNL     1     -44.591  57.267 -59.842  1.00  0.00    -0.208 NA
ENDBRANCH  23  24
ENDBRANCH   1  23
TORSDOF 4
ENDMDL
MODEL 4
REMARK VINA RESULT:      -7.3      3.906      6.861
REMARK  4 active torsions:
REMARK  status: ('A' for Active; 'I' for Inactive)
REMARK    1  A    between atoms: C_5  and  C_6 
REMARK    2  A    between atoms: C_6  and  N_7 
REMARK    3  A    between atoms: N_13  and  C_15 
REMARK    4  A    between atoms: C_19  and  C_20 
ROOT
HETATM    1  N   UNL     1     -41.941  60.173 -51.730  1.00  0.00    -0.064 N 
HETATM    2  H   UNL     1     -41.444  61.016 -52.076  1.00  0.00     0.280 HD
HETATM    3  C   UNL     1     -40.954  59.053 -51.857  1.00  0.00     0.236 C 
HETATM    4  C   UNL     1     -41.617  57.699 -51.576  1.00  0.00     0.039 C 
HETATM    5  C   UNL     1     -42.942  57.420 -52.346  1.00  0.00    -0.013 C 
HETATM    6  C   UNL     1     -42.693  57.060 -53.836  1.00  0.00     0.245 C 
HETATM    7  N   UNL     1     -42.115  55.675 -53.997  1.00  0.00    -0.065 N 
HETATM    8  H   UNL     1     -41.204  55.621 -53.522  1.00  0.00     0.280 HD
HETATM    9  C   UNL     1     -43.001  54.592 -53.386  1.00  0.00     0.244 C 
HETATM   10  C   UNL     1     -43.168  54.831 -51.876  1.00  0.00     0.045 C 
HETATM   11  C   UNL     1     -43.741  56.258 -51.679  1.00  0.00     0.022 C 
HETATM   12  C   UNL     1     -43.843  58.692 -52.255  1.00  0.00     0.039 C 
HETATM   13  C   UNL     1     -43.143  60.001 -52.598  1.00  0.00     0.236 C 
ENDROOT
BRANCH   7  14
HETATM   14  C   UNL     1     -41.867  55.363 -55.447  1.00  0.00     0.188 A 
HETATM   15  C   UNL     1     -42.960  54.648 -56.189  1.00  0.00     0.035 A 
HETATM   16  C   UNL     1     -42.694  56.102 -56.458  1.00  0.00     0.035 A 
ENDBRANCH   7  14
BRANCH  10  17
HETATM   17  C   UNL     1     -41.959  54.525 -50.995  1.00  0.00    -0.052 A 
HETATM   18  C   UNL     1     -40.821  53.835 -51.446  1.00  0.00     0.007 A 
HETATM   19  C   UNL     1     -39.743  53.581 -50.591  1.00  0.00     0.001 A 
HETATM   20  C   UNL     1     -39.792  53.983 -49.261  1.00  0.00     0.000 A 
HETATM   21  C   UNL     1     -40.928  54.618 -48.777  1.00  0.00     0.001 A 
HETATM   22  C   UNL     1     -42.003  54.874 -49.630  1.00  0.00     0.007 A 
ENDBRANCH  10  17
BRANCH   1  23
HETATM   23  C   UNL     1     -42.256  60.584 -50.274  1.00  0.00     0.323 C 
BRANCH  23  24
HETATM   24  C   UNL     1     -43.243  61.687 -50.211  1.00  0.00     0.198 A 
HETATM   25  O   UNL     1     -42.845  62.911 -50.637  1.00  0.00    -0.194 OA
HETATM   26  N   UNL     1     -43.933  63.757 -50.448  1.00  0.00    -0.112 NA
HETATM   27  C   UNL     1     -44.871  62.956 -49.924  1.00  0.00     0.152 A 
HETATM   28  C   UNL     1     -46.201  63.452 -49.516  1.00  0.00     0.096 C 
HETATM   29  N   UNL     1     -44.484  61.640 -49.778  1.00  0.00    -0.208 NA
ENDBRANCH  23  24
ENDBRANCH   1  23
TORSDOF 4
ENDMDL
MODEL 5
REMARK VINA RESULT:      -7.2      2.625      7.114
REMARK  4 active torsions:
REMARK  status: ('A' for Active; 'I' for Inactive)
REMARK    1  A    between atoms: C_5  and  C_6 
REMARK    2  A    between atoms: C_6  and  N_7 
REMARK    3  A    between atoms: N_13  and  C_15 
REMARK    4  A    between atoms: C_19  and  C_20 
ROOT
HETATM    1  N   UNL     1     -41.728  60.012 -52.756  1.00  0.00    -0.064 N 
HETATM    2  H   UNL     1     -41.111  60.834 -52.607  1.00  0.00     0.280 HD
HETATM    3  C   UNL     1     -40.859  58.981 -53.409  1.00  0.00     0.236 C 
HETATM    4  C   UNL     1     -41.688  57.779 -53.879  1.00  0.00     0.039 C 
HETATM    5  C   UNL     1     -42.954  58.116 -54.721  1.00  0.00    -0.013 C 
HETATM    6  C   UNL     1     -42.602  58.523 -56.178  1.00  0.00     0.245 C 
HETATM    7  N   UNL     1     -42.164  57.340 -57.008  1.00  0.00    -0.065 N 
HETATM    8  H   UNL     1     -41.314  56.926 -56.600  1.00  0.00     0.280 HD
HETATM    9  C   UNL     1     -43.216  56.236 -57.062  1.00  0.00     0.244 C 
HETATM   10  C   UNL     1     -43.503  55.704 -55.647  1.00  0.00     0.045 C 
HETATM   11  C   UNL     1     -43.935  56.904 -54.765  1.00  0.00     0.022 C 
HETATM   12  C   UNL     1     -43.718  59.283 -54.018  1.00  0.00     0.039 C 
HETATM   13  C   UNL     1     -42.851  60.472 -53.624  1.00  0.00     0.236 C 
ENDROOT
BRANCH   7  14
HETATM   14  C   UNL     1     -41.811  57.767 -58.405  1.00  0.00     0.188 A 
HETATM   15  C   UNL     1     -42.621  57.178 -59.524  1.00  0.00     0.035 A 
HETATM   16  C   UNL     1     -42.810  58.617 -59.135  1.00  0.00     0.035 A 
ENDBRANCH   7  14
BRANCH  10  17
HETATM   17  C   UNL     1     -42.426  54.829 -55.012  1.00  0.00    -0.052 A 
HETATM   18  C   UNL     1     -42.561  54.216 -53.754  1.00  0.00     0.007 A 
HETATM   19  C   UNL     1     -41.538  53.425 -53.221  1.00  0.00     0.001 A 
HETATM   20  C   UNL     1     -40.347  53.254 -53.917  1.00  0.00     0.000 A 
HETATM   21  C   UNL     1     -40.168  53.891 -55.137  1.00  0.00     0.001 A 
HETATM   22  C   UNL     1     -41.189  54.680 -55.671  1.00  0.00     0.007 A 
ENDBRANCH  10  17
BRANCH   1  23
HETATM   23  C   UNL     1     -42.136  59.675 -51.304  1.00  0.00     0.323 C 
BRANCH  23  24
HETATM   24  C   UNL     1     -41.967  58.234 -51.002  1.00  0.00     0.198 A 
HETATM   25  O   UNL     1     -43.054  57.434 -51.133  1.00  0.00    -0.194 OA
HETATM   26  N   UNL     1     -42.637  56.158 -50.768  1.00  0.00    -0.112 NA
HETATM   27  C   UNL     1     -41.346  56.323 -50.449  1.00  0.00     0.152 A 
HETATM   28  C   UNL     1     -40.503  55.218 -49.953  1.00  0.00     0.096 C 
HETATM   29  N   UNL     1     -40.879  57.612 -50.603  1.00  0.00    -0.208 NA
ENDBRANCH  23  24
ENDBRANCH   1  23
TORSDOF 4
ENDMDL
MODEL 6
REMARK VINA RESULT:      -7.1     16.199     20.437
REMARK  4 active torsions:
REMARK  status: ('A' for Active; 'I' for Inactive)
REMARK    1  A    between atoms: C_5  and  C_6 
REMARK    2  A    between atoms: C_6  and  N_7 
REMARK    3  A    between atoms: N_13  and  C_15 
REMARK    4  A    between atoms: C_19  and  C_20 
ROOT
HETATM    1  N   UNL     1     -33.041  40.107 -50.206  1.00  0.00    -0.064 N 
HETATM    2  H   UNL     1     -32.892  40.803 -49.449  1.00  0.00     0.280 HD
HETATM    3  C   UNL     1     -32.259  40.622 -51.375  1.00  0.00     0.236 C 
HETATM    4  C   UNL     1     -32.551  39.803 -52.638  1.00  0.00     0.039 C 
HETATM    5  C   UNL     1     -34.057  39.587 -52.972  1.00  0.00    -0.013 C 
HETATM    6  C   UNL     1     -34.717  40.859 -53.570  1.00  0.00     0.245 C 
HETATM    7  N   UNL     1     -34.270  41.119 -54.988  1.00  0.00    -0.065 N 
HETATM    8  H   UNL     1     -33.253  41.274 -55.009  1.00  0.00     0.280 HD
HETATM    9  C   UNL     1     -34.562  39.947 -55.922  1.00  0.00     0.244 C 
HETATM   10  C   UNL     1     -33.817  38.689 -55.445  1.00  0.00     0.045 C 
HETATM   11  C   UNL     1     -34.241  38.410 -53.981  1.00  0.00     0.022 C 
HETATM   12  C   UNL     1     -34.799  39.173 -51.662  1.00  0.00     0.039 C 
HETATM   13  C   UNL     1     -34.511  40.057 -50.455  1.00  0.00     0.236 C 
ENDROOT
BRANCH   7  14
HETATM   14  C   UNL     1     -34.909  42.367 -55.531  1.00  0.00     0.188 A 
HETATM   15  C   UNL     1     -35.421  42.312 -56.942  1.00  0.00     0.035 A 
HETATM   16  C   UNL     1     -36.387  42.322 -55.791  1.00  0.00     0.035 A 
ENDBRANCH   7  14
BRANCH  10  17
HETATM   17  C   UNL     1     -32.306  38.660 -55.666  1.00  0.00    -0.052 A 
HETATM   18  C   UNL     1     -31.606  39.639 -56.391  1.00  0.00     0.007 A 
HETATM   19  C   UNL     1     -30.220  39.558 -56.563  1.00  0.00     0.001 A 
HETATM   20  C   UNL     1     -29.509  38.485 -56.040  1.00  0.00     0.000 A 
HETATM   21  C   UNL     1     -30.185  37.477 -55.364  1.00  0.00     0.001 A 
HETATM   22  C   UNL     1     -31.568  37.558 -55.191  1.00  0.00     0.007 A 
ENDBRANCH  10  17
BRANCH   1  23
HETATM   23  C   UNL     1     -32.457  38.830 -49.560  1.00  0.00     0.323 C 
BRANCH  23  24
HETATM   24  C   UNL     1     -31.614  39.141 -48.382  1.00  0.00     0.198 A 
HETATM   25  O   UNL     1     -31.175  38.101 -47.631  1.00  0.00    -0.194 OA
HETATM   26  N   UNL     1     -30.443  38.661 -46.589  1.00  0.00    -0.112 NA
HETATM   27  C   UNL     1     -30.521  39.979 -46.817  1.00  0.00     0.152 A 
HETATM   28  C   UNL     1     -29.914  40.979 -45.916  1.00  0.00     0.096 C 
HETATM   29  N   UNL     1     -31.233  40.323 -47.948  1.00  0.00    -0.208 NA
ENDBRANCH  23  24
ENDBRANCH   1  23
TORSDOF 4
ENDMDL
MODEL 7
REMARK VINA RESULT:      -7.0      3.512      7.127
REMARK  4 active torsions:
REMARK  status: ('A' for Active; 'I' for Inactive)
REMARK    1  A    between atoms: C_5  and  C_6 
REMARK    2  A    between atoms: C_6  and  N_7 
REMARK    3  A    between atoms: N_13  and  C_15 
REMARK    4  A    between atoms: C_19  and  C_20 
ROOT
HETATM    1  N   UNL     1     -41.567  59.526 -52.620  1.00  0.00    -0.064 N 
HETATM    2  H   UNL     1     -40.981  60.380 -52.695  1.00  0.00     0.280 HD
HETATM    3  C   UNL     1     -40.719  58.417 -53.164  1.00  0.00     0.236 C 
HETATM    4  C   UNL     1     -41.530  57.124 -53.309  1.00  0.00     0.039 C 
HETATM    5  C   UNL     1     -42.891  57.257 -54.054  1.00  0.00    -0.013 C 
HETATM    6  C   UNL     1     -42.712  57.391 -55.590  1.00  0.00     0.245 C 
HETATM    7  N   UNL     1     -42.302  56.087 -56.231  1.00  0.00    -0.065 N 
HETATM    8  H   UNL     1     -41.395  55.783 -55.851  1.00  0.00     0.280 HD
HETATM    9  C   UNL     1     -43.297  54.961 -55.964  1.00  0.00     0.244 C 
HETATM   10  C   UNL     1     -43.409  54.698 -54.452  1.00  0.00     0.045 C 
HETATM   11  C   UNL     1     -43.809  56.028 -53.765  1.00  0.00     0.022 C 
HETATM   12  C   UNL     1     -43.637  58.512 -53.498  1.00  0.00     0.039 C 
HETATM   13  C   UNL     1     -42.795  59.780 -53.429  1.00  0.00     0.236 C 
ENDROOT
BRANCH   7  14
HETATM   14  C   UNL     1     -42.117  56.253 -57.713  1.00  0.00     0.188 A 
HETATM   15  C   UNL     1     -43.284  55.901 -58.591  1.00  0.00     0.035 A 
HETATM   16  C   UNL     1     -42.905  57.340 -58.385  1.00  0.00     0.035 A 
ENDBRANCH   7  14
BRANCH  10  17
HETATM   17  C   UNL     1     -42.230  53.991 -53.789  1.00  0.00    -0.052 A 
HETATM   18  C   UNL     1     -42.033  53.942 -52.399  1.00  0.00     0.007 A 
HETATM   19  C   UNL     1     -40.930  53.280 -51.847  1.00  0.00     0.001 A 
HETATM   20  C   UNL     1     -39.986  52.681 -52.673  1.00  0.00     0.000 A 
HETATM   21  C   UNL     1     -40.129  52.761 -54.052  1.00  0.00     0.001 A 
HETATM   22  C   UNL     1     -41.231  53.420 -54.602  1.00  0.00     0.007 A 
ENDBRANCH  10  17
BRANCH   1  23
HETATM   23  C   UNL     1     -41.806  59.458 -51.095  1.00  0.00     0.323 C 
BRANCH  23  24
HETATM   24  C   UNL     1     -42.640  60.585 -50.615  1.00  0.00     0.198 A 
HETATM   25  O   UNL     1     -43.924  60.316 -50.272  1.00  0.00    -0.194 OA
HETATM   26  N   UNL     1     -44.483  61.530 -49.890  1.00  0.00    -0.112 NA
HETATM   27  C   UNL     1     -43.480  62.406 -50.047  1.00  0.00     0.152 A 
HETATM   28  C   UNL     1     -43.642  63.852 -49.796  1.00  0.00     0.096 C 
HETATM   29  N   UNL     1     -42.296  61.848 -50.482  1.00  0.00    -0.208 NA
ENDBRANCH  23  24
ENDBRANCH   1  23
TORSDOF 4
ENDMDL
MODEL 8
REMARK VINA RESULT:      -7.0      3.383      6.348
REMARK  4 active torsions:
REMARK  status: ('A' for Active; 'I' for Inactive)
REMARK    1  A    between atoms: C_5  and  C_6 
REMARK    2  A    between atoms: C_6  and  N_7 
REMARK    3  A    between atoms: N_13  and  C_15 
REMARK    4  A    between atoms: C_19  and  C_20 
ROOT
HETATM    1  N   UNL     1     -41.914  53.628 -51.952  1.00  0.00    -0.064 N 
HETATM    2  H   UNL     1     -42.485  52.866 -51.537  1.00  0.00     0.280 HD
HETATM    3  C   UNL     1     -42.380  54.882 -51.277  1.00  0.00     0.236 C 
HETATM    4  C   UNL     1     -41.768  56.124 -51.937  1.00  0.00     0.039 C 
HETATM    5  C   UNL     1     -41.890  56.197 -53.488  1.00  0.00    -0.013 C 
HETATM    6  C   UNL     1     -43.323  56.580 -53.949  1.00  0.00     0.245 C 
HETATM    7  N   UNL     1     -43.632  58.035 -53.691  1.00  0.00    -0.065 N 
HETATM    8  H   UNL     1     -43.583  58.228 -52.681  1.00  0.00     0.280 HD
HETATM    9  C   UNL     1     -42.644  58.978 -54.373  1.00  0.00     0.244 C 
HETATM   10  C   UNL     1     -41.220  58.726 -53.847  1.00  0.00     0.045 C 
HETATM   11  C   UNL     1     -40.883  57.231 -54.080  1.00  0.00     0.022 C 
HETATM   12  C   UNL     1     -41.501  54.805 -54.080  1.00  0.00     0.039 C 
HETATM   13  C   UNL     1     -42.183  53.613 -53.419  1.00  0.00     0.236 C 
ENDROOT
BRANCH   7  14
HETATM   14  C   UNL     1     -45.031  58.371 -54.128  1.00  0.00     0.188 A 
HETATM   15  C   UNL     1     -45.217  59.647 -54.900  1.00  0.00     0.035 A 
HETATM   16  C   UNL     1     -45.319  58.322 -55.601  1.00  0.00     0.035 A 
ENDBRANCH   7  14
BRANCH  10  17
HETATM   17  C   UNL     1     -40.914  59.215 -52.434  1.00  0.00    -0.052 A 
HETATM   18  C   UNL     1     -41.846  59.882 -51.621  1.00  0.00     0.007 A 
HETATM   19  C   UNL     1     -41.508  60.310 -50.333  1.00  0.00     0.001 A 
HETATM   20  C   UNL     1     -40.224  60.107 -49.840  1.00  0.00     0.000 A 
HETATM   21  C   UNL     1     -39.269  59.498 -50.643  1.00  0.00     0.001 A 
HETATM   22  C   UNL     1     -39.607  59.069 -51.929  1.00  0.00     0.007 A 
ENDBRANCH  10  17
BRANCH   1  23
HETATM   23  C   UNL     1     -40.487  53.184 -51.557  1.00  0.00     0.323 C 
BRANCH  23  24
HETATM   24  C   UNL     1     -40.124  51.882 -52.166  1.00  0.00     0.198 A 
HETATM   25  O   UNL     1     -39.849  50.852 -51.328  1.00  0.00    -0.194 OA
HETATM   26  N   UNL     1     -39.516  49.774 -52.141  1.00  0.00    -0.112 NA
HETATM   27  C   UNL     1     -39.619  50.268 -53.383  1.00  0.00     0.152 A 
HETATM   28  C   UNL     1     -39.306  49.468 -54.584  1.00  0.00     0.096 C 
HETATM   29  N   UNL     1     -40.020  51.587 -53.443  1.00  0.00    -0.208 NA
ENDBRANCH  23  24
ENDBRANCH   1  23
TORSDOF 4
ENDMDL
MODEL 9
REMARK VINA RESULT:      -6.8     15.884     18.515
REMARK  4 active torsions:
REMARK  status: ('A' for Active; 'I' for Inactive)
REMARK    1  A    between atoms: C_5  and  C_6 
REMARK    2  A    between atoms: C_6  and  N_7 
REMARK    3  A    between atoms: N_13  and  C_15 
REMARK    4  A    between atoms: C_19  and  C_20 
ROOT
HETATM    1  N   UNL     1     -32.501  38.261 -56.023  1.00  0.00    -0.064 N 
HETATM    2  H   UNL     1     -32.272  37.319 -56.396  1.00  0.00     0.280 HD
HETATM    3  C   UNL     1     -33.741  38.071 -55.205  1.00  0.00     0.236 C 
HETATM    4  C   UNL     1     -34.318  39.419 -54.756  1.00  0.00     0.039 C 
HETATM    5  C   UNL     1     -34.497  40.486 -55.876  1.00  0.00    -0.013 C 
HETATM    6  C   UNL     1     -35.723  40.192 -56.781  1.00  0.00     0.245 C 
HETATM    7  N   UNL     1     -37.029  40.473 -56.077  1.00  0.00    -0.065 N 
HETATM    8  H   UNL     1     -37.116  39.865 -55.251  1.00  0.00     0.280 HD
HETATM    9  C   UNL     1     -37.135  41.914 -55.584  1.00  0.00     0.244 C 
HETATM   10  C   UNL     1     -36.014  42.215 -54.576  1.00  0.00     0.045 C 
HETATM   11  C   UNL     1     -34.659  41.914 -55.266  1.00  0.00     0.022 C 
HETATM   12  C   UNL     1     -33.197  40.516 -56.742  1.00  0.00     0.039 C 
HETATM   13  C   UNL     1     -32.704  39.150 -57.204  1.00  0.00     0.236 C 
ENDROOT
BRANCH   7  14
HETATM   14  C   UNL     1     -38.197  40.159 -56.970  1.00  0.00     0.188 A 
HETATM   15  C   UNL     1     -38.061  40.515 -58.423  1.00  0.00     0.035 A 
HETATM   16  C   UNL     1     -38.006  39.077 -57.993  1.00  0.00     0.035 A 
ENDBRANCH   7  14
BRANCH  10  17
HETATM   17  C   UNL     1     -36.151  41.591 -53.189  1.00  0.00    -0.052 A 
HETATM   18  C   UNL     1     -37.254  40.818 -52.789  1.00  0.00     0.007 A 
HETATM   19  C   UNL     1     -37.327  40.273 -51.502  1.00  0.00     0.001 A 
HETATM   20  C   UNL     1     -36.316  40.514 -50.580  1.00  0.00     0.000 A 
HETATM   21  C   UNL     1     -35.241  41.318 -50.934  1.00  0.00     0.001 A 
HETATM   22  C   UNL     1     -35.167  41.861 -52.218  1.00  0.00     0.007 A 
ENDBRANCH  10  17
BRANCH   1  23
HETATM   23  C   UNL     1     -31.233  38.573 -55.195  1.00  0.00     0.323 C 
BRANCH  23  24
HETATM   24  C   UNL     1     -31.566  39.053 -53.833  1.00  0.00     0.198 A 
HETATM   25  O   UNL     1     -31.671  40.392 -53.647  1.00  0.00    -0.194 OA
HETATM   26  N   UNL     1     -31.957  40.571 -52.298  1.00  0.00    -0.112 NA
HETATM   27  C   UNL     1     -31.988  39.323 -51.810  1.00  0.00     0.152 A 
HETATM   28  C   UNL     1     -32.218  39.034 -50.381  1.00  0.00     0.096 C 
HETATM   29  N   UNL     1     -31.767  38.336 -52.749  1.00  0.00    -0.208 NA
ENDBRANCH  23  24
ENDBRANCH   1  23
TORSDOF 4
ENDMDL
MODEL 10
REMARK VINA RESULT:      -6.8     15.365     18.131
REMARK  4 active torsions:
REMARK  status: ('A' for Active; 'I' for Inactive)
REMARK    1  A    between atoms: C_5  and  C_6 
REMARK    2  A    between atoms: C_6  and  N_7 
REMARK    3  A    between atoms: N_13  and  C_15 
REMARK    4  A    between atoms: C_19  and  C_20 
ROOT
HETATM    1  N   UNL     1     -36.954  41.226 -54.035  1.00  0.00    -0.064 N 
HETATM    2  H   UNL     1     -37.948  41.071 -54.290  1.00  0.00     0.280 HD
HETATM    3  C   UNL     1     -36.311  39.875 -54.111  1.00  0.00     0.236 C 
HETATM    4  C   UNL     1     -34.881  39.913 -53.560  1.00  0.00     0.039 C 
HETATM    5  C   UNL     1     -34.710  40.580 -52.163  1.00  0.00    -0.013 C 
HETATM    6  C   UNL     1     -35.198  39.663 -51.008  1.00  0.00     0.245 C 
HETATM    7  N   UNL     1     -34.253  38.513 -50.757  1.00  0.00    -0.065 N 
HETATM    8  H   UNL     1     -34.190  37.924 -51.599  1.00  0.00     0.280 HD
HETATM    9  C   UNL     1     -32.835  38.976 -50.432  1.00  0.00     0.244 C 
HETATM   10  C   UNL     1     -32.255  39.780 -51.608  1.00  0.00     0.045 C 
HETATM   11  C   UNL     1     -33.219  40.958 -51.902  1.00  0.00     0.022 C 
HETATM   12  C   UNL     1     -35.518  41.916 -52.151  1.00  0.00     0.039 C 
HETATM   13  C   UNL     1     -36.950  41.804 -52.660  1.00  0.00     0.236 C 
ENDROOT
BRANCH   7  14
HETATM   14  C   UNL     1     -34.761  37.633 -49.650  1.00  0.00     0.188 A 
HETATM   15  C   UNL     1     -34.711  38.191 -48.256  1.00  0.00     0.035 A 
HETATM   16  C   UNL     1     -36.028  38.056 -48.965  1.00  0.00     0.035 A 
ENDBRANCH   7  14
BRANCH  10  17
HETATM   17  C   UNL     1     -31.852  38.988 -52.849  1.00  0.00    -0.052 A 
HETATM   18  C   UNL     1     -31.627  37.601 -52.849  1.00  0.00     0.007 A 
HETATM   19  C   UNL     1     -31.257  36.927 -54.018  1.00  0.00     0.001 A 
HETATM   20  C   UNL     1     -31.075  37.629 -55.204  1.00  0.00     0.000 A 
HETATM   21  C   UNL     1     -31.240  39.007 -55.219  1.00  0.00     0.001 A 
HETATM   22  C   UNL     1     -31.611  39.679 -54.053  1.00  0.00     0.007 A 
ENDBRANCH  10  17
BRANCH   1  23
HETATM   23  C   UNL     1     -36.509  42.207 -55.144  1.00  0.00     0.323 C 
BRANCH  23  24
HETATM   24  C   UNL     1     -37.026  41.809 -56.475  1.00  0.00     0.198 A 
HETATM   25  O   UNL     1     -38.152  41.054 -56.511  1.00  0.00    -0.194 OA
HETATM   26  N   UNL     1     -38.401  40.799 -57.856  1.00  0.00    -0.112 NA
HETATM   27  C   UNL     1     -37.397  41.422 -58.489  1.00  0.00     0.152 A 
HETATM   28  C   UNL     1     -37.235  41.378 -59.956  1.00  0.00     0.096 C 
HETATM   29  N   UNL     1     -36.521  42.088 -57.657  1.00  0.00    -0.208 NA
ENDBRANCH  23  24
ENDBRANCH   1  23
TORSDOF 4
ENDMDL
