MODEL 1
REMARK VINA RESULT:      -8.9      0.000      0.000
REMARK  5 active torsions:
REMARK  status: ('A' for Active; 'I' for Inactive)
REMARK    1  A    between atoms: C_3  and  O_4 
REMARK    2  A    between atoms: C_6  and  N_7 
REMARK       I    between atoms: N_7  and  C_8 
REMARK    3  A    between atoms: C_8  and  C_9 
REMARK    4  A    between atoms: C_14  and  C_15 
REMARK    5  A    between atoms: C_23  and  C_24 
ROOT
HETATM    1  C   UNL     1     -43.706  57.382 -55.567  1.00  0.00     0.148 A 
HETATM    2  N   UNL     1     -42.576  57.784 -54.941  1.00  0.00    -0.165 NA
HETATM    3  N   UNL     1     -42.510  56.990 -53.856  1.00  0.00    -0.240 N 
HETATM    4  C   UNL     1     -43.513  56.058 -53.801  1.00  0.00     0.123 A 
HETATM    5  N   UNL     1     -43.557  55.117 -52.831  1.00  0.00    -0.366 N 
HETATM    6  C   UNL     1     -42.433  54.907 -51.925  1.00  0.00     0.118 C 
HETATM    7  C   UNL     1     -41.705  56.231 -51.661  1.00  0.00     0.066 C 
HETATM    8  C   UNL     1     -41.373  57.000 -52.953  1.00  0.00     0.221 C 
HETATM    9  C   UNL     1     -44.320  56.302 -54.880  1.00  0.00     0.089 A 
HETATM   10  H   UNL     1     -44.193  54.326 -52.917  1.00  0.00     0.161 HD
ENDROOT
BRANCH   1  11
HETATM   11  C   UNL     1     -44.180  58.012 -56.814  1.00  0.00     0.276 C 
HETATM   12  N   UNL     1     -45.259  57.340 -57.353  1.00  0.00    -0.322 N 
HETATM   13  H   UNL     1     -45.530  56.518 -56.818  1.00  0.00     0.169 HD
HETATM   14  O   UNL     1     -43.629  59.007 -57.271  1.00  0.00    -0.266 OA
BRANCH  12  15
HETATM   15  C   UNL     1     -45.974  57.635 -58.526  1.00  0.00     0.037 A 
HETATM   16  C   UNL     1     -46.128  56.745 -59.590  1.00  0.00     0.066 A 
HETATM   17  C   UNL     1     -46.855  57.125 -60.718  1.00  0.00     0.067 A 
HETATM   18  C   UNL     1     -47.443  58.383 -60.804  1.00  0.00     0.036 A 
HETATM   19  C   UNL     1     -47.292  59.276 -59.746  1.00  0.00     0.005 A 
HETATM   20  C   UNL     1     -46.558  58.906 -58.616  1.00  0.00     0.029 A 
BRANCH  17  21
HETATM   21  O   UNL     1     -46.970  56.222 -61.735  1.00  0.00    -0.361 OA
HETATM   22  H   UNL     1     -46.095  55.840 -61.914  1.00  0.00     0.217 HD
ENDBRANCH  17  21
ENDBRANCH  12  15
ENDBRANCH   1  11
BRANCH   8  23
HETATM   23  C   UNL     1     -40.942  58.409 -52.606  1.00  0.00     0.409 C 
HETATM   24  F   UNL     1     -41.993  59.227 -52.369  1.00  0.00    -0.169 F 
HETATM   25  F   UNL     1     -40.199  58.394 -51.467  1.00  0.00    -0.169 F 
HETATM   26  F   UNL     1     -40.167  58.983 -53.550  1.00  0.00    -0.169 F 
ENDBRANCH   8  23
BRANCH   6  27
HETATM   27  C   UNL     1     -41.512  53.786 -52.386  1.00  0.00    -0.035 A 
HETATM   28  C   UNL     1     -40.573  53.167 -51.541  1.00  0.00     0.012 A 
HETATM   29  C   UNL     1     -39.741  52.150 -52.018  1.00  0.00     0.043 A 
HETATM   30  C   UNL     1     -39.843  51.743 -53.340  1.00  0.00     0.116 A 
HETATM   31  F   UNL     1     -39.040  50.774 -53.798  1.00  0.00    -0.206 F 
HETATM   32  C   UNL     1     -40.767  52.327 -54.196  1.00  0.00     0.043 A 
HETATM   33  C   UNL     1     -41.600  53.343 -53.720  1.00  0.00     0.012 A 
ENDBRANCH   6  27
TORSDOF 5
ENDMDL
MODEL 2
REMARK VINA RESULT:      -8.8      2.606      3.221
REMARK  5 active torsions:
REMARK  status: ('A' for Active; 'I' for Inactive)
REMARK    1  A    between atoms: C_3  and  O_4 
REMARK    2  A    between atoms: C_6  and  N_7 
REMARK       I    between atoms: N_7  and  C_8 
REMARK    3  A    between atoms: C_8  and  C_9 
REMARK    4  A    between atoms: C_14  and  C_15 
REMARK    5  A    between atoms: C_23  and  C_24 
ROOT
HETATM    1  C   UNL     1     -43.009  57.998 -55.469  1.00  0.00     0.148 A 
HETATM    2  N   UNL     1     -42.024  58.194 -54.563  1.00  0.00    -0.165 NA
HETATM    3  N   UNL     1     -42.212  57.207 -53.667  1.00  0.00    -0.240 N 
HETATM    4  C   UNL     1     -43.233  56.356 -53.998  1.00  0.00     0.123 A 
HETATM    5  N   UNL     1     -43.509  55.256 -53.264  1.00  0.00    -0.366 N 
HETATM    6  C   UNL     1     -42.607  54.799 -52.211  1.00  0.00     0.118 C 
HETATM    7  C   UNL     1     -41.910  55.995 -51.549  1.00  0.00     0.066 C 
HETATM    8  C   UNL     1     -41.290  56.967 -52.571  1.00  0.00     0.221 C 
HETATM    9  C   UNL     1     -43.787  56.856 -55.146  1.00  0.00     0.089 A 
HETATM   10  H   UNL     1     -44.137  54.543 -53.630  1.00  0.00     0.161 HD
ENDROOT
BRANCH   1  11
HETATM   11  C   UNL     1     -43.191  58.884 -56.636  1.00  0.00     0.276 C 
HETATM   12  N   UNL     1     -41.983  59.268 -57.183  1.00  0.00    -0.322 N 
HETATM   13  H   UNL     1     -41.177  58.898 -56.683  1.00  0.00     0.169 HD
HETATM   14  O   UNL     1     -44.309  59.212 -57.015  1.00  0.00    -0.266 OA
BRANCH  12  15
HETATM   15  C   UNL     1     -41.752  60.103 -58.289  1.00  0.00     0.037 A 
HETATM   16  C   UNL     1     -41.931  59.708 -59.616  1.00  0.00     0.066 A 
HETATM   17  C   UNL     1     -41.675  60.606 -60.651  1.00  0.00     0.067 A 
HETATM   18  C   UNL     1     -41.248  61.903 -60.390  1.00  0.00     0.036 A 
HETATM   19  C   UNL     1     -41.066  62.303 -59.068  1.00  0.00     0.005 A 
HETATM   20  C   UNL     1     -41.312  61.407 -58.025  1.00  0.00     0.029 A 
BRANCH  17  21
HETATM   21  O   UNL     1     -41.857  60.168 -61.932  1.00  0.00    -0.361 OA
HETATM   22  H   UNL     1     -42.773  59.862 -62.030  1.00  0.00     0.217 HD
ENDBRANCH  17  21
ENDBRANCH  12  15
ENDBRANCH   1  11
BRANCH   8  23
HETATM   23  C   UNL     1     -40.898  58.252 -51.872  1.00  0.00     0.409 C 
HETATM   24  F   UNL     1     -41.956  59.067 -51.657  1.00  0.00    -0.169 F 
HETATM   25  F   UNL     1     -40.375  57.967 -50.649  1.00  0.00    -0.169 F 
HETATM   26  F   UNL     1     -39.951  58.955 -52.529  1.00  0.00    -0.169 F 
ENDBRANCH   8  23
BRANCH   6  27
HETATM   27  C   UNL     1     -41.645  53.722 -52.691  1.00  0.00    -0.035 A 
HETATM   28  C   UNL     1     -41.622  53.247 -54.015  1.00  0.00     0.012 A 
HETATM   29  C   UNL     1     -40.726  52.245 -54.402  1.00  0.00     0.043 A 
HETATM   30  C   UNL     1     -39.846  51.714 -53.470  1.00  0.00     0.116 A 
HETATM   31  F   UNL     1     -38.995  50.749 -53.839  1.00  0.00    -0.206 F 
HETATM   32  C   UNL     1     -39.838  52.169 -52.158  1.00  0.00     0.043 A 
HETATM   33  C   UNL     1     -40.732  53.171 -51.771  1.00  0.00     0.012 A 
ENDBRANCH   6  27
TORSDOF 5
ENDMDL
MODEL 3
REMARK VINA RESULT:      -8.5      2.071      2.411
REMARK  5 active torsions:
REMARK  status: ('A' for Active; 'I' for Inactive)
REMARK    1  A    between atoms: C_3  and  O_4 
REMARK    2  A    between atoms: C_6  and  N_7 
REMARK       I    between atoms: N_7  and  C_8 
REMARK    3  A    between atoms: C_8  and  C_9 
REMARK    4  A    between atoms: C_14  and  C_15 
REMARK    5  A    between atoms: C_23  and  C_24 
ROOT
HETATM    1  C   UNL     1     -42.395  58.112 -55.513  1.00  0.00     0.148 A 
HETATM    2  N   UNL     1     -41.586  58.262 -54.439  1.00  0.00    -0.165 NA
HETATM    3  N   UNL     1     -41.954  57.260 -53.618  1.00  0.00    -0.240 N 
HETATM    4  C   UNL     1     -42.915  56.443 -54.152  1.00  0.00     0.123 A 
HETATM    5  N   UNL     1     -43.343  55.333 -53.509  1.00  0.00    -0.366 N 
HETATM    6  C   UNL     1     -42.655  54.829 -52.325  1.00  0.00     0.118 C 
HETATM    7  C   UNL     1     -42.064  55.991 -51.515  1.00  0.00     0.066 C 
HETATM    8  C   UNL     1     -41.250  56.970 -52.381  1.00  0.00     0.221 C 
HETATM    9  C   UNL     1     -43.242  56.983 -55.367  1.00  0.00     0.089 A 
HETATM   10  H   UNL     1     -43.908  54.645 -54.002  1.00  0.00     0.161 HD
ENDROOT
BRANCH   1  11
HETATM   11  C   UNL     1     -42.344  59.029 -56.668  1.00  0.00     0.276 C 
HETATM   12  N   UNL     1     -43.097  58.563 -57.728  1.00  0.00    -0.322 N 
HETATM   13  H   UNL     1     -43.538  57.664 -57.545  1.00  0.00     0.169 HD
HETATM   14  O   UNL     1     -41.683  60.060 -56.631  1.00  0.00    -0.266 OA
BRANCH  12  15
HETATM   15  C   UNL     1     -43.288  59.153 -58.989  1.00  0.00     0.037 A 
HETATM   16  C   UNL     1     -42.259  59.397 -59.900  1.00  0.00     0.066 A 
HETATM   17  C   UNL     1     -42.542  59.989 -61.130  1.00  0.00     0.067 A 
HETATM   18  C   UNL     1     -43.842  60.340 -61.476  1.00  0.00     0.036 A 
HETATM   19  C   UNL     1     -44.874  60.101 -60.572  1.00  0.00     0.005 A 
HETATM   20  C   UNL     1     -44.597  59.516 -59.333  1.00  0.00     0.029 A 
BRANCH  17  21
HETATM   21  O   UNL     1     -41.500  60.214 -61.982  1.00  0.00    -0.361 OA
HETATM   22  H   UNL     1     -41.092  59.363 -62.208  1.00  0.00     0.217 HD
ENDBRANCH  17  21
ENDBRANCH  12  15
ENDBRANCH   1  11
BRANCH   8  23
HETATM   23  C   UNL     1     -40.963  58.228 -51.589  1.00  0.00     0.409 C 
HETATM   24  F   UNL     1     -40.707  57.970 -50.285  1.00  0.00    -0.169 F 
HETATM   25  F   UNL     1     -39.856  58.841 -52.086  1.00  0.00    -0.169 F 
HETATM   26  F   UNL     1     -41.956  59.141 -51.650  1.00  0.00    -0.169 F 
ENDBRANCH   8  23
BRANCH   6  27
HETATM   27  C   UNL     1     -41.645  53.739 -52.653  1.00  0.00    -0.035 A 
HETATM   28  C   UNL     1     -40.759  53.200 -51.702  1.00  0.00     0.012 A 
HETATM   29  C   UNL     1     -39.841  52.209 -52.059  1.00  0.00     0.043 A 
HETATM   30  C   UNL     1     -39.804  51.746 -53.367  1.00  0.00     0.116 A 
HETATM   31  F   UNL     1     -38.918  50.802 -53.710  1.00  0.00    -0.206 F 
HETATM   32  C   UNL     1     -40.672  52.250 -54.325  1.00  0.00     0.043 A 
HETATM   33  C   UNL     1     -41.591  53.241 -53.970  1.00  0.00     0.012 A 
ENDBRANCH   6  27
TORSDOF 5
ENDMDL
MODEL 4
REMARK VINA RESULT:      -8.4      4.081      8.413
REMARK  5 active torsions:
REMARK  status: ('A' for Active; 'I' for Inactive)
REMARK    1  A    between atoms: C_3  and  O_4 
REMARK    2  A    between atoms: C_6  and  N_7 
REMARK       I    between atoms: N_7  and  C_8 
REMARK    3  A    between atoms: C_8  and  C_9 
REMARK    4  A    between atoms: C_14  and  C_15 
REMARK    5  A    between atoms: C_23  and  C_24 
ROOT
HETATM    1  C   UNL     1     -41.564  55.556 -53.590  1.00  0.00     0.148 A 
HETATM    2  N   UNL     1     -41.609  56.141 -52.371  1.00  0.00    -0.165 NA
HETATM    3  N   UNL     1     -41.575  57.458 -52.646  1.00  0.00    -0.240 N 
HETATM    4  C   UNL     1     -41.575  57.736 -53.987  1.00  0.00     0.123 A 
HETATM    5  N   UNL     1     -41.634  59.004 -54.452  1.00  0.00    -0.366 N 
HETATM    6  C   UNL     1     -41.917  60.126 -53.563  1.00  0.00     0.118 C 
HETATM    7  C   UNL     1     -41.342  59.858 -52.165  1.00  0.00     0.066 C 
HETATM    8  C   UNL     1     -41.726  58.471 -51.616  1.00  0.00     0.221 C 
HETATM    9  C   UNL     1     -41.541  56.525 -54.627  1.00  0.00     0.089 A 
HETATM   10  H   UNL     1     -41.826  59.178 -55.437  1.00  0.00     0.161 HD
ENDROOT
BRANCH   1  11
HETATM   11  C   UNL     1     -41.560  54.090 -53.758  1.00  0.00     0.276 C 
HETATM   12  N   UNL     1     -40.480  53.503 -53.129  1.00  0.00    -0.322 N 
HETATM   13  H   UNL     1     -39.862  54.175 -52.678  1.00  0.00     0.169 HD
HETATM   14  O   UNL     1     -42.434  53.523 -54.403  1.00  0.00    -0.266 OA
BRANCH  12  15
HETATM   15  C   UNL     1     -40.137  52.142 -53.071  1.00  0.00     0.037 A 
HETATM   16  C   UNL     1     -39.788  51.475 -51.896  1.00  0.00     0.066 A 
HETATM   17  C   UNL     1     -39.460  50.120 -51.934  1.00  0.00     0.067 A 
HETATM   18  C   UNL     1     -39.481  49.408 -53.128  1.00  0.00     0.036 A 
HETATM   19  C   UNL     1     -39.827  50.068 -54.305  1.00  0.00     0.005 A 
HETATM   20  C   UNL     1     -40.148  51.428 -54.277  1.00  0.00     0.029 A 
BRANCH  17  21
HETATM   21  O   UNL     1     -39.118  49.515 -50.759  1.00  0.00    -0.361 OA
HETATM   22  H   UNL     1     -38.607  48.714 -50.957  1.00  0.00     0.217 HD
ENDBRANCH  17  21
ENDBRANCH  12  15
ENDBRANCH   1  11
BRANCH   8  23
HETATM   23  C   UNL     1     -40.888  58.162 -50.394  1.00  0.00     0.409 C 
HETATM   24  F   UNL     1     -39.573  58.032 -50.689  1.00  0.00    -0.169 F 
HETATM   25  F   UNL     1     -40.984  59.184 -49.502  1.00  0.00    -0.169 F 
HETATM   26  F   UNL     1     -41.284  57.052 -49.736  1.00  0.00    -0.169 F 
ENDBRANCH   8  23
BRANCH   6  27
HETATM   27  C   UNL     1     -43.390  60.509 -53.553  1.00  0.00    -0.035 A 
HETATM   28  C   UNL     1     -44.303  60.071 -54.529  1.00  0.00     0.012 A 
HETATM   29  C   UNL     1     -45.644  60.463 -54.482  1.00  0.00     0.043 A 
HETATM   30  C   UNL     1     -46.082  61.292 -53.459  1.00  0.00     0.116 A 
HETATM   31  F   UNL     1     -47.365  61.673 -53.420  1.00  0.00    -0.206 F 
HETATM   32  C   UNL     1     -45.207  61.732 -52.476  1.00  0.00     0.043 A 
HETATM   33  C   UNL     1     -43.867  61.340 -52.521  1.00  0.00     0.012 A 
ENDBRANCH   6  27
TORSDOF 5
ENDMDL
MODEL 5
REMARK VINA RESULT:      -8.4      5.058      7.550
REMARK  5 active torsions:
REMARK  status: ('A' for Active; 'I' for Inactive)
REMARK    1  A    between atoms: C_3  and  O_4 
REMARK    2  A    between atoms: C_6  and  N_7 
REMARK       I    between atoms: N_7  and  C_8 
REMARK    3  A    between atoms: C_8  and  C_9 
REMARK    4  A    between atoms: C_14  and  C_15 
REMARK    5  A    between atoms: C_23  and  C_24 
ROOT
HETATM    1  C   UNL     1     -44.242  58.785 -51.438  1.00  0.00     0.148 A 
HETATM    2  N   UNL     1     -44.692  58.255 -52.598  1.00  0.00    -0.165 NA
HETATM    3  N   UNL     1     -43.566  57.929 -53.260  1.00  0.00    -0.240 N 
HETATM    4  C   UNL     1     -42.424  58.170 -52.544  1.00  0.00     0.123 A 
HETATM    5  N   UNL     1     -41.204  57.822 -53.012  1.00  0.00    -0.366 N 
HETATM    6  C   UNL     1     -41.057  56.982 -54.196  1.00  0.00     0.118 C 
HETATM    7  C   UNL     1     -42.199  57.248 -55.186  1.00  0.00     0.066 C 
HETATM    8  C   UNL     1     -43.588  57.210 -54.521  1.00  0.00     0.221 C 
HETATM    9  C   UNL     1     -42.825  58.750 -51.370  1.00  0.00     0.089 A 
HETATM   10  H   UNL     1     -40.398  57.833 -52.390  1.00  0.00     0.161 HD
ENDROOT
BRANCH   1  11
HETATM   11  C   UNL     1     -45.158  59.304 -50.403  1.00  0.00     0.276 C 
HETATM   12  N   UNL     1     -44.619  60.385 -49.734  1.00  0.00    -0.322 N 
HETATM   13  H   UNL     1     -43.682  60.628 -50.048  1.00  0.00     0.169 HD
HETATM   14  O   UNL     1     -46.249  58.782 -50.203  1.00  0.00    -0.266 OA
BRANCH  12  15
HETATM   15  C   UNL     1     -45.186  61.137 -48.691  1.00  0.00     0.037 A 
HETATM   16  C   UNL     1     -44.744  61.092 -47.368  1.00  0.00     0.066 A 
HETATM   17  C   UNL     1     -45.369  61.874 -46.397  1.00  0.00     0.067 A 
HETATM   18  C   UNL     1     -46.431  62.711 -46.722  1.00  0.00     0.036 A 
HETATM   19  C   UNL     1     -46.878  62.760 -48.040  1.00  0.00     0.005 A 
HETATM   20  C   UNL     1     -46.262  61.973 -49.018  1.00  0.00     0.029 A 
BRANCH  17  21
HETATM   21  O   UNL     1     -44.905  61.788 -45.116  1.00  0.00    -0.361 OA
HETATM   22  H   UNL     1     -44.754  60.854 -44.901  1.00  0.00     0.217 HD
ENDBRANCH  17  21
ENDBRANCH  12  15
ENDBRANCH   1  11
BRANCH   8  23
HETATM   23  C   UNL     1     -44.619  57.774 -55.475  1.00  0.00     0.409 C 
HETATM   24  F   UNL     1     -44.599  59.126 -55.516  1.00  0.00    -0.169 F 
HETATM   25  F   UNL     1     -44.359  57.345 -56.738  1.00  0.00    -0.169 F 
HETATM   26  F   UNL     1     -45.880  57.380 -55.198  1.00  0.00    -0.169 F 
ENDBRANCH   8  23
BRANCH   6  27
HETATM   27  C   UNL     1     -40.879  55.510 -53.852  1.00  0.00    -0.035 A 
HETATM   28  C   UNL     1     -41.104  54.990 -52.564  1.00  0.00     0.012 A 
HETATM   29  C   UNL     1     -40.913  53.631 -52.297  1.00  0.00     0.043 A 
HETATM   30  C   UNL     1     -40.500  52.782 -53.315  1.00  0.00     0.116 A 
HETATM   31  F   UNL     1     -40.310  51.482 -53.056  1.00  0.00    -0.206 F 
HETATM   32  C   UNL     1     -40.281  53.264 -54.598  1.00  0.00     0.043 A 
HETATM   33  C   UNL     1     -40.472  54.622 -54.867  1.00  0.00     0.012 A 
ENDBRANCH   6  27
TORSDOF 5
ENDMDL
MODEL 6
REMARK VINA RESULT:      -8.4      4.823      8.451
REMARK  5 active torsions:
REMARK  status: ('A' for Active; 'I' for Inactive)
REMARK    1  A    between atoms: C_3  and  O_4 
REMARK    2  A    between atoms: C_6  and  N_7 
REMARK       I    between atoms: N_7  and  C_8 
REMARK    3  A    between atoms: C_8  and  C_9 
REMARK    4  A    between atoms: C_14  and  C_15 
REMARK    5  A    between atoms: C_23  and  C_24 
ROOT
HETATM    1  C   UNL     1     -42.424  56.081 -52.263  1.00  0.00     0.148 A 
HETATM    2  N   UNL     1     -41.518  56.805 -51.567  1.00  0.00    -0.165 NA
HETATM    3  N   UNL     1     -41.938  58.075 -51.717  1.00  0.00    -0.240 N 
HETATM    4  C   UNL     1     -43.106  58.183 -52.424  1.00  0.00     0.123 A 
HETATM    5  N   UNL     1     -43.726  59.372 -52.598  1.00  0.00    -0.366 N 
HETATM    6  C   UNL     1     -43.305  60.562 -51.864  1.00  0.00     0.118 C 
HETATM    7  C   UNL     1     -41.792  60.527 -51.613  1.00  0.00     0.066 C 
HETATM    8  C   UNL     1     -41.314  59.187 -51.022  1.00  0.00     0.221 C 
HETATM    9  C   UNL     1     -43.433  56.913 -52.816  1.00  0.00     0.089 A 
HETATM   10  H   UNL     1     -44.679  59.403 -52.955  1.00  0.00     0.161 HD
ENDROOT
BRANCH   1  11
HETATM   11  C   UNL     1     -42.332  54.613 -52.384  1.00  0.00     0.276 C 
HETATM   12  N   UNL     1     -41.037  54.198 -52.627  1.00  0.00    -0.322 N 
HETATM   13  H   UNL     1     -40.374  54.966 -52.704  1.00  0.00     0.169 HD
HETATM   14  O   UNL     1     -43.326  53.905 -52.282  1.00  0.00    -0.266 OA
BRANCH  12  15
HETATM   15  C   UNL     1     -40.560  52.888 -52.804  1.00  0.00     0.037 A 
HETATM   16  C   UNL     1     -40.032  52.105 -51.776  1.00  0.00     0.066 A 
HETATM   17  C   UNL     1     -39.580  50.814 -52.045  1.00  0.00     0.067 A 
HETATM   18  C   UNL     1     -39.650  50.280 -53.327  1.00  0.00     0.036 A 
HETATM   19  C   UNL     1     -40.174  51.056 -54.358  1.00  0.00     0.005 A 
HETATM   20  C   UNL     1     -40.622  52.354 -54.098  1.00  0.00     0.029 A 
BRANCH  17  21
HETATM   21  O   UNL     1     -39.066  50.091 -51.007  1.00  0.00    -0.361 OA
HETATM   22  H   UNL     1     -38.276  50.545 -50.672  1.00  0.00     0.217 HD
ENDBRANCH  17  21
ENDBRANCH  12  15
ENDBRANCH   1  11
BRANCH   8  23
HETATM   23  C   UNL     1     -39.803  59.116 -51.089  1.00  0.00     0.409 C 
HETATM   24  F   UNL     1     -39.343  59.076 -52.361  1.00  0.00    -0.169 F 
HETATM   25  F   UNL     1     -39.266  60.229 -50.519  1.00  0.00    -0.169 F 
HETATM   26  F   UNL     1     -39.283  58.066 -50.419  1.00  0.00    -0.169 F 
ENDBRANCH   8  23
BRANCH   6  27
HETATM   27  C   UNL     1     -44.127  60.794 -50.605  1.00  0.00    -0.035 A 
HETATM   28  C   UNL     1     -45.164  59.936 -50.195  1.00  0.00     0.012 A 
HETATM   29  C   UNL     1     -45.898  60.203 -49.035  1.00  0.00     0.043 A 
HETATM   30  C   UNL     1     -45.600  61.326 -48.276  1.00  0.00     0.116 A 
HETATM   31  F   UNL     1     -46.309  61.585 -47.171  1.00  0.00    -0.206 F 
HETATM   32  C   UNL     1     -44.576  62.185 -48.649  1.00  0.00     0.043 A 
HETATM   33  C   UNL     1     -43.840  61.919 -49.807  1.00  0.00     0.012 A 
ENDBRANCH   6  27
TORSDOF 5
ENDMDL
MODEL 7
REMARK VINA RESULT:      -8.3      3.179      4.142
REMARK  5 active torsions:
REMARK  status: ('A' for Active; 'I' for Inactive)
REMARK    1  A    between atoms: C_3  and  O_4 
REMARK    2  A    between atoms: C_6  and  N_7 
REMARK       I    between atoms: N_7  and  C_8 
REMARK    3  A    between atoms: C_8  and  C_9 
REMARK    4  A    between atoms: C_14  and  C_15 
REMARK    5  A    between atoms: C_23  and  C_24 
ROOT
HETATM    1  C   UNL     1     -42.411  57.645 -56.967  1.00  0.00     0.148 A 
HETATM    2  N   UNL     1     -42.216  58.083 -55.703  1.00  0.00    -0.165 NA
HETATM    3  N   UNL     1     -42.721  57.095 -54.939  1.00  0.00    -0.240 N 
HETATM    4  C   UNL     1     -43.169  56.022 -55.663  1.00  0.00     0.123 A 
HETATM    5  N   UNL     1     -43.626  54.900 -55.063  1.00  0.00    -0.366 N 
HETATM    6  C   UNL     1     -43.466  54.688 -53.628  1.00  0.00     0.118 C 
HETATM    7  C   UNL     1     -43.530  56.025 -52.879  1.00  0.00     0.066 C 
HETATM    8  C   UNL     1     -42.610  57.099 -53.491  1.00  0.00     0.221 C 
HETATM    9  C   UNL     1     -43.007  56.357 -56.981  1.00  0.00     0.089 A 
HETATM   10  H   UNL     1     -43.770  54.053 -55.609  1.00  0.00     0.161 HD
ENDROOT
BRANCH   1  11
HETATM   11  C   UNL     1     -42.017  58.442 -58.144  1.00  0.00     0.276 C 
HETATM   12  N   UNL     1     -41.985  59.794 -57.863  1.00  0.00    -0.322 N 
HETATM   13  H   UNL     1     -42.257  60.013 -56.907  1.00  0.00     0.169 HD
HETATM   14  O   UNL     1     -41.772  57.908 -59.220  1.00  0.00    -0.266 OA
BRANCH  12  15
HETATM   15  C   UNL     1     -41.661  60.857 -58.723  1.00  0.00     0.037 A 
HETATM   16  C   UNL     1     -40.663  61.796 -58.460  1.00  0.00     0.066 A 
HETATM   17  C   UNL     1     -40.412  62.820 -59.373  1.00  0.00     0.067 A 
HETATM   18  C   UNL     1     -41.138  62.925 -60.554  1.00  0.00     0.036 A 
HETATM   19  C   UNL     1     -42.137  61.992 -60.821  1.00  0.00     0.005 A 
HETATM   20  C   UNL     1     -42.400  60.967 -59.909  1.00  0.00     0.029 A 
BRANCH  17  21
HETATM   21  O   UNL     1     -39.430  63.719 -59.066  1.00  0.00    -0.361 OA
HETATM   22  H   UNL     1     -38.811  63.304 -58.444  1.00  0.00     0.217 HD
ENDBRANCH  17  21
ENDBRANCH  12  15
ENDBRANCH   1  11
BRANCH   8  23
HETATM   23  C   UNL     1     -42.950  58.451 -52.903  1.00  0.00     0.409 C 
HETATM   24  F   UNL     1     -44.031  59.013 -53.492  1.00  0.00    -0.169 F 
HETATM   25  F   UNL     1     -43.256  58.314 -51.585  1.00  0.00    -0.169 F 
HETATM   26  F   UNL     1     -41.932  59.335 -52.960  1.00  0.00    -0.169 F 
ENDBRANCH   8  23
BRANCH   6  27
HETATM   27  C   UNL     1     -42.233  53.859 -53.292  1.00  0.00    -0.035 A 
HETATM   28  C   UNL     1     -41.513  53.130 -54.255  1.00  0.00     0.012 A 
HETATM   29  C   UNL     1     -40.395  52.373 -53.892  1.00  0.00     0.043 A 
HETATM   30  C   UNL     1     -39.987  52.344 -52.566  1.00  0.00     0.116 A 
HETATM   31  F   UNL     1     -38.921  51.613 -52.217  1.00  0.00    -0.206 F 
HETATM   32  C   UNL     1     -40.671  53.062 -51.595  1.00  0.00     0.043 A 
HETATM   33  C   UNL     1     -41.788  53.819 -51.956  1.00  0.00     0.012 A 
ENDBRANCH   6  27
TORSDOF 5
ENDMDL
MODEL 8
REMARK VINA RESULT:      -8.3      3.590      8.588
REMARK  5 active torsions:
REMARK  status: ('A' for Active; 'I' for Inactive)
REMARK    1  A    between atoms: C_3  and  O_4 
REMARK    2  A    between atoms: C_6  and  N_7 
REMARK       I    between atoms: N_7  and  C_8 
REMARK    3  A    between atoms: C_8  and  C_9 
REMARK    4  A    between atoms: C_14  and  C_15 
REMARK    5  A    between atoms: C_23  and  C_24 
ROOT
HETATM    1  C   UNL     1     -42.752  55.623 -54.621  1.00  0.00     0.148 A 
HETATM    2  N   UNL     1     -43.148  56.912 -54.731  1.00  0.00    -0.165 NA
HETATM    3  N   UNL     1     -42.960  57.195 -56.034  1.00  0.00    -0.240 N 
HETATM    4  C   UNL     1     -42.522  56.125 -56.767  1.00  0.00     0.123 A 
HETATM    5  N   UNL     1     -42.364  56.197 -58.108  1.00  0.00    -0.366 N 
HETATM    6  C   UNL     1     -42.854  57.342 -58.869  1.00  0.00     0.118 C 
HETATM    7  C   UNL     1     -42.766  58.622 -58.027  1.00  0.00     0.066 C 
HETATM    8  C   UNL     1     -43.376  58.457 -56.622  1.00  0.00     0.221 C 
HETATM    9  C   UNL     1     -42.351  55.098 -55.878  1.00  0.00     0.089 A 
HETATM   10  H   UNL     1     -42.226  55.347 -58.651  1.00  0.00     0.161 HD
ENDROOT
BRANCH   1  11
HETATM   11  C   UNL     1     -42.772  54.902 -53.334  1.00  0.00     0.276 C 
HETATM   12  N   UNL     1     -41.544  54.944 -52.702  1.00  0.00    -0.322 N 
HETATM   13  H   UNL     1     -40.833  55.440 -53.234  1.00  0.00     0.169 HD
HETATM   14  O   UNL     1     -43.787  54.343 -52.936  1.00  0.00    -0.266 OA
BRANCH  12  15
HETATM   15  C   UNL     1     -41.176  54.374 -51.471  1.00  0.00     0.037 A 
HETATM   16  C   UNL     1     -41.280  55.032 -50.245  1.00  0.00     0.066 A 
HETATM   17  C   UNL     1     -40.888  54.387 -49.072  1.00  0.00     0.067 A 
HETATM   18  C   UNL     1     -40.399  53.086 -49.096  1.00  0.00     0.036 A 
HETATM   19  C   UNL     1     -40.292  52.423 -50.317  1.00  0.00     0.005 A 
HETATM   20  C   UNL     1     -40.674  53.066 -51.498  1.00  0.00     0.029 A 
BRANCH  17  21
HETATM   21  O   UNL     1     -41.001  55.077 -47.899  1.00  0.00    -0.361 OA
HETATM   22  H   UNL     1     -40.242  55.676 -47.815  1.00  0.00     0.217 HD
ENDBRANCH  17  21
ENDBRANCH  12  15
ENDBRANCH   1  11
BRANCH   8  23
HETATM   23  C   UNL     1     -42.983  59.637 -55.760  1.00  0.00     0.409 C 
HETATM   24  F   UNL     1     -42.993  60.804 -56.445  1.00  0.00    -0.169 F 
HETATM   25  F   UNL     1     -43.876  59.779 -54.744  1.00  0.00    -0.169 F 
HETATM   26  F   UNL     1     -41.773  59.501 -55.178  1.00  0.00    -0.169 F 
ENDBRANCH   8  23
BRANCH   6  27
HETATM   27  C   UNL     1     -44.232  57.100 -59.468  1.00  0.00    -0.035 A 
HETATM   28  C   UNL     1     -45.133  58.138 -59.767  1.00  0.00     0.012 A 
HETATM   29  C   UNL     1     -46.394  57.861 -60.304  1.00  0.00     0.043 A 
HETATM   30  C   UNL     1     -46.761  56.545 -60.549  1.00  0.00     0.116 A 
HETATM   31  F   UNL     1     -47.972  56.280 -61.056  1.00  0.00    -0.206 F 
HETATM   32  C   UNL     1     -45.891  55.500 -60.275  1.00  0.00     0.043 A 
HETATM   33  C   UNL     1     -44.630  55.776 -59.739  1.00  0.00     0.012 A 
ENDBRANCH   6  27
TORSDOF 5
ENDMDL
MODEL 9
REMARK VINA RESULT:      -8.2      4.133      8.931
REMARK  5 active torsions:
REMARK  status: ('A' for Active; 'I' for Inactive)
REMARK    1  A    between atoms: C_3  and  O_4 
REMARK    2  A    between atoms: C_6  and  N_7 
REMARK       I    between atoms: N_7  and  C_8 
REMARK    3  A    between atoms: C_8  and  C_9 
REMARK    4  A    between atoms: C_14  and  C_15 
REMARK    5  A    between atoms: C_23  and  C_24 
ROOT
HETATM    1  C   UNL     1     -42.279  55.765 -55.558  1.00  0.00     0.148 A 
HETATM    2  N   UNL     1     -42.273  55.852 -56.908  1.00  0.00    -0.165 NA
HETATM    3  N   UNL     1     -43.385  56.557 -57.189  1.00  0.00    -0.240 N 
HETATM    4  C   UNL     1     -44.062  56.975 -56.075  1.00  0.00     0.123 A 
HETATM    5  N   UNL     1     -45.152  57.771 -56.161  1.00  0.00    -0.366 N 
HETATM    6  C   UNL     1     -45.535  58.399 -57.420  1.00  0.00     0.118 C 
HETATM    7  C   UNL     1     -45.163  57.496 -58.604  1.00  0.00     0.066 C 
HETATM    8  C   UNL     1     -43.709  56.991 -58.537  1.00  0.00     0.221 C 
HETATM    9  C   UNL     1     -43.387  56.457 -55.002  1.00  0.00     0.089 A 
HETATM   10  H   UNL     1     -45.520  58.223 -55.325  1.00  0.00     0.161 HD
ENDROOT
BRANCH   1  11
HETATM   11  C   UNL     1     -41.230  55.043 -54.812  1.00  0.00     0.276 C 
HETATM   12  N   UNL     1     -41.619  53.757 -54.493  1.00  0.00    -0.322 N 
HETATM   13  H   UNL     1     -42.561  53.532 -54.802  1.00  0.00     0.169 HD
HETATM   14  O   UNL     1     -40.167  55.583 -54.531  1.00  0.00    -0.266 OA
BRANCH  12  15
HETATM   15  C   UNL     1     -40.897  52.777 -53.790  1.00  0.00     0.037 A 
HETATM   16  C   UNL     1     -40.490  51.562 -54.343  1.00  0.00     0.066 A 
HETATM   17  C   UNL     1     -39.778  50.647 -53.568  1.00  0.00     0.067 A 
HETATM   18  C   UNL     1     -39.455  50.923 -52.244  1.00  0.00     0.036 A 
HETATM   19  C   UNL     1     -39.860  52.134 -51.685  1.00  0.00     0.005 A 
HETATM   20  C   UNL     1     -40.581  53.052 -52.453  1.00  0.00     0.029 A 
BRANCH  17  21
HETATM   21  O   UNL     1     -39.410  49.470 -54.153  1.00  0.00    -0.361 OA
HETATM   22  H   UNL     1     -40.107  49.195 -54.769  1.00  0.00     0.217 HD
ENDBRANCH  17  21
ENDBRANCH  12  15
ENDBRANCH   1  11
BRANCH   8  23
HETATM   23  C   UNL     1     -43.513  55.882 -59.548  1.00  0.00     0.409 C 
HETATM   24  F   UNL     1     -44.001  54.696 -59.117  1.00  0.00    -0.169 F 
HETATM   25  F   UNL     1     -44.183  56.182 -60.693  1.00  0.00    -0.169 F 
HETATM   26  F   UNL     1     -42.224  55.702 -59.907  1.00  0.00    -0.169 F 
ENDBRANCH   8  23
BRANCH   6  27
HETATM   27  C   UNL     1     -45.008  59.821 -57.549  1.00  0.00    -0.035 A 
HETATM   28  C   UNL     1     -44.506  60.556 -56.460  1.00  0.00     0.012 A 
HETATM   29  C   UNL     1     -44.045  61.865 -56.630  1.00  0.00     0.043 A 
HETATM   30  C   UNL     1     -44.080  62.447 -57.890  1.00  0.00     0.116 A 
HETATM   31  F   UNL     1     -43.647  63.704 -58.050  1.00  0.00    -0.206 F 
HETATM   32  C   UNL     1     -44.560  61.744 -58.986  1.00  0.00     0.043 A 
HETATM   33  C   UNL     1     -45.019  60.435 -58.817  1.00  0.00     0.012 A 
ENDBRANCH   6  27
TORSDOF 5
ENDMDL
MODEL 10
REMARK VINA RESULT:      -8.2      3.719      8.215
REMARK  5 active torsions:
REMARK  status: ('A' for Active; 'I' for Inactive)
REMARK    1  A    between atoms: C_3  and  O_4 
REMARK    2  A    between atoms: C_6  and  N_7 
REMARK       I    between atoms: N_7  and  C_8 
REMARK    3  A    between atoms: C_8  and  C_9 
REMARK    4  A    between atoms: C_14  and  C_15 
REMARK    5  A    between atoms: C_23  and  C_24 
ROOT
HETATM    1  C   UNL     1     -41.550  55.544 -53.013  1.00  0.00     0.148 A 
HETATM    2  N   UNL     1     -42.707  56.043 -52.522  1.00  0.00    -0.165 NA
HETATM    3  N   UNL     1     -42.921  57.146 -53.265  1.00  0.00    -0.240 N 
HETATM    4  C   UNL     1     -41.984  57.333 -54.247  1.00  0.00     0.123 A 
HETATM    5  N   UNL     1     -42.086  58.337 -55.146  1.00  0.00    -0.366 N 
HETATM    6  C   UNL     1     -43.301  59.138 -55.255  1.00  0.00     0.118 C 
HETATM    7  C   UNL     1     -43.971  59.282 -53.882  1.00  0.00     0.066 C 
HETATM    8  C   UNL     1     -44.135  57.935 -53.152  1.00  0.00     0.221 C 
HETATM    9  C   UNL     1     -41.067  56.327 -54.094  1.00  0.00     0.089 A 
HETATM   10  H   UNL     1     -41.493  58.341 -55.974  1.00  0.00     0.161 HD
ENDROOT
BRANCH   1  11
HETATM   11  C   UNL     1     -40.925  54.325 -52.464  1.00  0.00     0.276 C 
HETATM   12  N   UNL     1     -40.877  53.307 -53.396  1.00  0.00    -0.322 N 
HETATM   13  H   UNL     1     -41.295  53.557 -54.289  1.00  0.00     0.169 HD
HETATM   14  O   UNL     1     -40.528  54.282 -51.305  1.00  0.00    -0.266 OA
BRANCH  12  15
HETATM   15  C   UNL     1     -40.363  52.008 -53.244  1.00  0.00     0.037 A 
HETATM   16  C   UNL     1     -39.951  51.470 -52.024  1.00  0.00     0.066 A 
HETATM   17  C   UNL     1     -39.452  50.169 -51.968  1.00  0.00     0.067 A 
HETATM   18  C   UNL     1     -39.360  49.385 -53.112  1.00  0.00     0.036 A 
HETATM   19  C   UNL     1     -39.769  49.915 -54.334  1.00  0.00     0.005 A 
HETATM   20  C   UNL     1     -40.263  51.221 -54.399  1.00  0.00     0.029 A 
BRANCH  17  21
HETATM   21  O   UNL     1     -39.054  49.693 -50.752  1.00  0.00    -0.361 OA
HETATM   22  H   UNL     1     -39.705  49.960 -50.084  1.00  0.00     0.217 HD
ENDBRANCH  17  21
ENDBRANCH  12  15
ENDBRANCH   1  11
BRANCH   8  23
HETATM   23  C   UNL     1     -44.512  58.186 -51.708  1.00  0.00     0.409 C 
HETATM   24  F   UNL     1     -45.452  59.151 -51.579  1.00  0.00    -0.169 F 
HETATM   25  F   UNL     1     -45.044  57.056 -51.170  1.00  0.00    -0.169 F 
HETATM   26  F   UNL     1     -43.462  58.514 -50.926  1.00  0.00    -0.169 F 
ENDBRANCH   8  23
BRANCH   6  27
HETATM   27  C   UNL     1     -44.240  58.634 -56.342  1.00  0.00    -0.035 A 
HETATM   28  C   UNL     1     -45.627  58.868 -56.328  1.00  0.00     0.012 A 
HETATM   29  C   UNL     1     -46.447  58.371 -57.345  1.00  0.00     0.043 A 
HETATM   30  C   UNL     1     -45.887  57.641 -58.384  1.00  0.00     0.116 A 
HETATM   31  F   UNL     1     -46.675  57.158 -59.353  1.00  0.00    -0.206 F 
HETATM   32  C   UNL     1     -44.521  57.402 -58.430  1.00  0.00     0.043 A 
HETATM   33  C   UNL     1     -43.699  57.899 -57.415  1.00  0.00     0.012 A 
ENDBRANCH   6  27
TORSDOF 5
ENDMDL
