MODEL 1
REMARK VINA RESULT:      -8.0      0.000      0.000
REMARK  8 active torsions:
REMARK  status: ('A' for Active; 'I' for Inactive)
REMARK    1  A    between atoms: S_2  and  C_3 
REMARK    2  A    between atoms: C_4  and  N_5 
REMARK       I    between atoms: N_5  and  C_6 
REMARK    3  A    between atoms: C_6  and  C_7 
REMARK       I    between atoms: C_7  and  N_8 
REMARK    4  A    between atoms: N_8  and  C_9 
REMARK    5  A    between atoms: C_9  and  C_10 
REMARK    6  A    between atoms: C_10  and  C_11 
REMARK    7  A    between atoms: C_13  and  O_14 
REMARK    8  A    between atoms: N_20  and  C_21 
ROOT
HETATM    1  N   UNL     1     -43.981  57.754 -51.741  1.00  0.00    -0.302 N 
HETATM    2  C   UNL     1     -43.753  56.687 -50.809  1.00  0.00     0.315 C 
HETATM    3  O   UNL     1     -44.738  56.201 -50.279  1.00  0.00    -0.262 OA
HETATM    4  H   UNL     1     -44.939  57.826 -52.066  1.00  0.00     0.171 HD
ENDROOT
BRANCH   2   5
HETATM    5  C   UNL     1     -42.346  56.080 -50.585  1.00  0.00     0.309 C 
HETATM    6  N   UNL     1     -42.214  54.787 -51.063  1.00  0.00    -0.353 N 
HETATM    7  H   UNL     1     -43.001  54.386 -51.569  1.00  0.00     0.162 HD
HETATM    8  O   UNL     1     -41.449  56.726 -50.069  1.00  0.00    -0.262 OA
BRANCH   6   9
HETATM    9  C   UNL     1     -40.919  54.135 -51.132  1.00  0.00     0.128 C 
BRANCH   9  10
HETATM   10  C   UNL     1     -40.504  53.840 -52.574  1.00  0.00     0.058 C 
BRANCH  10  11
HETATM   11  C   UNL     1     -40.210  52.378 -52.788  1.00  0.00    -0.054 A 
HETATM   12  C   UNL     1     -39.772  51.578 -51.723  1.00  0.00     0.043 A 
HETATM   13  C   UNL     1     -39.488  50.231 -51.940  1.00  0.00     0.066 A 
HETATM   14  C   UNL     1     -39.628  49.666 -53.200  1.00  0.00     0.036 A 
HETATM   15  C   UNL     1     -40.058  50.455 -54.265  1.00  0.00     0.003 A 
HETATM   16  C   UNL     1     -40.347  51.806 -54.062  1.00  0.00     0.007 A 
BRANCH  13  17
HETATM   17  O   UNL     1     -39.066  49.422 -50.928  1.00  0.00    -0.361 OA
HETATM   18  H   UNL     1     -39.780  48.804 -50.699  1.00  0.00     0.217 HD
ENDBRANCH  13  17
ENDBRANCH  10  11
ENDBRANCH   9  10
ENDBRANCH   6   9
ENDBRANCH   2   5
BRANCH   1  19
HETATM   19  C   UNL     1     -42.979  58.281 -52.543  1.00  0.00     0.150 A 
HETATM   20  C   UNL     1     -42.343  59.470 -52.265  1.00  0.00     0.065 A 
HETATM   21  C   UNL     1     -41.428  59.649 -53.309  1.00  0.00     0.161 A 
HETATM   22  N   UNL     1     -41.467  58.656 -54.196  1.00  0.00    -0.176 NA
HETATM   23  N   UNL     1     -42.400  57.783 -53.714  1.00  0.00    -0.216 N 
BRANCH  20  24
HETATM   24  S   UNL     1     -42.658  60.530 -50.917  1.00  0.00    -0.129 SA
HETATM   25  C   UNL     1     -44.183  61.344 -51.455  1.00  0.00     0.096 C 
ENDBRANCH  20  24
BRANCH  23  26
HETATM   26  C   UNL     1     -42.599  56.527 -54.361  1.00  0.00     0.060 A 
HETATM   27  C   UNL     1     -43.738  55.742 -54.134  1.00  0.00     0.031 A 
HETATM   28  C   UNL     1     -43.880  54.508 -54.779  1.00  0.00     0.002 A 
HETATM   29  C   UNL     1     -42.891  54.045 -55.644  1.00  0.00     0.000 A 
HETATM   30  C   UNL     1     -41.752  54.812 -55.866  1.00  0.00     0.002 A 
HETATM   31  C   UNL     1     -41.604  56.046 -55.229  1.00  0.00     0.031 A 
ENDBRANCH  23  26
ENDBRANCH   1  19
TORSDOF 8
ENDMDL
MODEL 2
REMARK VINA RESULT:      -7.7      2.128      3.765
REMARK  8 active torsions:
REMARK  status: ('A' for Active; 'I' for Inactive)
REMARK    1  A    between atoms: S_2  and  C_3 
REMARK    2  A    between atoms: C_4  and  N_5 
REMARK       I    between atoms: N_5  and  C_6 
REMARK    3  A    between atoms: C_6  and  C_7 
REMARK       I    between atoms: C_7  and  N_8 
REMARK    4  A    between atoms: N_8  and  C_9 
REMARK    5  A    between atoms: C_9  and  C_10 
REMARK    6  A    between atoms: C_10  and  C_11 
REMARK    7  A    between atoms: C_13  and  O_14 
REMARK    8  A    between atoms: N_20  and  C_21 
ROOT
HETATM    1  N   UNL     1     -41.535  59.419 -52.264  1.00  0.00    -0.302 N 
HETATM    2  C   UNL     1     -40.720  58.677 -53.184  1.00  0.00     0.315 C 
HETATM    3  O   UNL     1     -39.522  58.903 -53.161  1.00  0.00    -0.262 OA
HETATM    4  H   UNL     1     -41.018  59.861 -51.513  1.00  0.00     0.171 HD
ENDROOT
BRANCH   2   5
HETATM    5  C   UNL     1     -41.301  57.544 -54.064  1.00  0.00     0.309 C 
HETATM    6  N   UNL     1     -40.962  56.273 -53.633  1.00  0.00    -0.353 N 
HETATM    7  H   UNL     1     -40.440  56.191 -52.763  1.00  0.00     0.162 HD
HETATM    8  O   UNL     1     -42.023  57.785 -55.019  1.00  0.00    -0.262 OA
BRANCH   6   9
HETATM    9  C   UNL     1     -41.581  55.090 -54.203  1.00  0.00     0.128 C 
BRANCH   9  10
HETATM   10  C   UNL     1     -40.555  54.165 -54.856  1.00  0.00     0.058 C 
BRANCH  10  11
HETATM   11  C   UNL     1     -40.221  52.985 -53.981  1.00  0.00    -0.054 A 
HETATM   12  C   UNL     1     -40.054  51.710 -54.541  1.00  0.00     0.043 A 
HETATM   13  C   UNL     1     -39.761  50.625 -53.717  1.00  0.00     0.066 A 
HETATM   14  C   UNL     1     -39.637  50.785 -52.343  1.00  0.00     0.036 A 
HETATM   15  C   UNL     1     -39.807  52.047 -51.778  1.00  0.00     0.003 A 
HETATM   16  C   UNL     1     -40.100  53.143 -52.592  1.00  0.00     0.007 A 
BRANCH  13  17
HETATM   17  O   UNL     1     -39.585  49.373 -54.226  1.00  0.00    -0.361 OA
HETATM   18  H   UNL     1     -40.243  49.221 -54.924  1.00  0.00     0.217 HD
ENDBRANCH  13  17
ENDBRANCH  10  11
ENDBRANCH   9  10
ENDBRANCH   6   9
ENDBRANCH   2   5
BRANCH   1  19
HETATM   19  C   UNL     1     -42.879  59.145 -52.058  1.00  0.00     0.150 A 
HETATM   20  C   UNL     1     -43.890  59.962 -52.512  1.00  0.00     0.065 A 
HETATM   21  C   UNL     1     -45.075  59.349 -52.088  1.00  0.00     0.161 A 
HETATM   22  N   UNL     1     -44.852  58.223 -51.411  1.00  0.00    -0.176 NA
HETATM   23  N   UNL     1     -43.495  58.066 -51.416  1.00  0.00    -0.216 N 
BRANCH  20  24
HETATM   24  S   UNL     1     -43.707  61.459 -53.387  1.00  0.00    -0.129 SA
HETATM   25  C   UNL     1     -43.588  60.859 -55.091  1.00  0.00     0.096 C 
ENDBRANCH  20  24
BRANCH  23  26
HETATM   26  C   UNL     1     -42.916  56.876 -50.884  1.00  0.00     0.060 A 
HETATM   27  C   UNL     1     -41.686  56.880 -50.211  1.00  0.00     0.031 A 
HETATM   28  C   UNL     1     -41.149  55.684 -49.723  1.00  0.00     0.002 A 
HETATM   29  C   UNL     1     -41.825  54.479 -49.907  1.00  0.00     0.000 A 
HETATM   30  C   UNL     1     -43.041  54.464 -50.583  1.00  0.00     0.002 A 
HETATM   31  C   UNL     1     -43.585  55.654 -51.071  1.00  0.00     0.031 A 
ENDBRANCH  23  26
ENDBRANCH   1  19
TORSDOF 8
ENDMDL
MODEL 3
REMARK VINA RESULT:      -7.5      3.356      3.885
REMARK  8 active torsions:
REMARK  status: ('A' for Active; 'I' for Inactive)
REMARK    1  A    between atoms: S_2  and  C_3 
REMARK    2  A    between atoms: C_4  and  N_5 
REMARK       I    between atoms: N_5  and  C_6 
REMARK    3  A    between atoms: C_6  and  C_7 
REMARK       I    between atoms: C_7  and  N_8 
REMARK    4  A    between atoms: N_8  and  C_9 
REMARK    5  A    between atoms: C_9  and  C_10 
REMARK    6  A    between atoms: C_10  and  C_11 
REMARK    7  A    between atoms: C_13  and  O_14 
REMARK    8  A    between atoms: N_20  and  C_21 
ROOT
HETATM    1  N   UNL     1     -44.172  57.659 -55.668  1.00  0.00    -0.302 N 
HETATM    2  C   UNL     1     -43.926  56.462 -54.915  1.00  0.00     0.315 C 
HETATM    3  O   UNL     1     -44.828  56.073 -54.192  1.00  0.00    -0.262 OA
HETATM    4  H   UNL     1     -45.150  57.917 -55.731  1.00  0.00     0.171 HD
ENDROOT
BRANCH   2   5
HETATM    5  C   UNL     1     -42.639  55.622 -55.106  1.00  0.00     0.309 C 
HETATM    6  N   UNL     1     -41.733  55.744 -54.067  1.00  0.00    -0.353 N 
HETATM    7  H   UNL     1     -42.010  56.297 -53.259  1.00  0.00     0.162 HD
HETATM    8  O   UNL     1     -42.492  54.897 -56.078  1.00  0.00    -0.262 OA
BRANCH   6   9
HETATM    9  C   UNL     1     -40.573  54.876 -53.969  1.00  0.00     0.128 C 
BRANCH   9  10
HETATM   10  C   UNL     1     -40.569  54.072 -52.669  1.00  0.00     0.058 C 
BRANCH  10  11
HETATM   11  C   UNL     1     -40.284  52.612 -52.910  1.00  0.00    -0.054 A 
HETATM   12  C   UNL     1     -39.816  51.799 -51.868  1.00  0.00     0.043 A 
HETATM   13  C   UNL     1     -39.542  50.454 -52.109  1.00  0.00     0.066 A 
HETATM   14  C   UNL     1     -39.721  49.905 -53.372  1.00  0.00     0.036 A 
HETATM   15  C   UNL     1     -40.180  50.707 -54.414  1.00  0.00     0.003 A 
HETATM   16  C   UNL     1     -40.460  52.056 -54.186  1.00  0.00     0.007 A 
BRANCH  13  17
HETATM   17  O   UNL     1     -39.092  49.632 -51.120  1.00  0.00    -0.361 OA
HETATM   18  H   UNL     1     -38.147  49.457 -51.260  1.00  0.00     0.217 HD
ENDBRANCH  13  17
ENDBRANCH  10  11
ENDBRANCH   9  10
ENDBRANCH   6   9
ENDBRANCH   2   5
BRANCH   1  19
HETATM   19  C   UNL     1     -43.310  58.119 -56.654  1.00  0.00     0.150 A 
HETATM   20  C   UNL     1     -42.281  58.997 -56.399  1.00  0.00     0.065 A 
HETATM   21  C   UNL     1     -41.674  59.220 -57.641  1.00  0.00     0.161 A 
HETATM   22  N   UNL     1     -42.263  58.541 -58.625  1.00  0.00    -0.176 NA
HETATM   23  N   UNL     1     -43.258  57.827 -58.020  1.00  0.00    -0.216 N 
BRANCH  20  24
HETATM   24  S   UNL     1     -41.867  59.701 -54.859  1.00  0.00    -0.129 SA
HETATM   25  C   UNL     1     -43.028  61.088 -54.781  1.00  0.00     0.096 C 
ENDBRANCH  20  24
BRANCH  23  26
HETATM   26  C   UNL     1     -44.011  56.879 -58.774  1.00  0.00     0.060 A 
HETATM   27  C   UNL     1     -43.470  55.655 -59.189  1.00  0.00     0.031 A 
HETATM   28  C   UNL     1     -44.242  54.765 -59.944  1.00  0.00     0.002 A 
HETATM   29  C   UNL     1     -45.550  55.089 -60.296  1.00  0.00     0.000 A 
HETATM   30  C   UNL     1     -46.093  56.307 -59.899  1.00  0.00     0.002 A 
HETATM   31  C   UNL     1     -45.329  57.200 -59.143  1.00  0.00     0.031 A 
ENDBRANCH  23  26
ENDBRANCH   1  19
TORSDOF 8
ENDMDL
MODEL 4
REMARK VINA RESULT:      -7.5      1.381      2.092
REMARK  8 active torsions:
REMARK  status: ('A' for Active; 'I' for Inactive)
REMARK    1  A    between atoms: S_2  and  C_3 
REMARK    2  A    between atoms: C_4  and  N_5 
REMARK       I    between atoms: N_5  and  C_6 
REMARK    3  A    between atoms: C_6  and  C_7 
REMARK       I    between atoms: C_7  and  N_8 
REMARK    4  A    between atoms: N_8  and  C_9 
REMARK    5  A    between atoms: C_9  and  C_10 
REMARK    6  A    between atoms: C_10  and  C_11 
REMARK    7  A    between atoms: C_13  and  O_14 
REMARK    8  A    between atoms: N_20  and  C_21 
ROOT
HETATM    1  N   UNL     1     -41.681  58.853 -52.506  1.00  0.00    -0.302 N 
HETATM    2  C   UNL     1     -40.723  58.056 -51.795  1.00  0.00     0.315 C 
HETATM    3  O   UNL     1     -39.573  58.462 -51.781  1.00  0.00    -0.262 OA
HETATM    4  H   UNL     1     -41.373  59.798 -52.703  1.00  0.00     0.171 HD
ENDROOT
BRANCH   2   5
HETATM    5  C   UNL     1     -41.140  56.817 -50.964  1.00  0.00     0.309 C 
HETATM    6  N   UNL     1     -41.082  55.628 -51.670  1.00  0.00    -0.353 N 
HETATM    7  H   UNL     1     -40.712  55.656 -52.618  1.00  0.00     0.162 HD
HETATM    8  O   UNL     1     -41.445  56.914 -49.786  1.00  0.00    -0.262 OA
BRANCH   6   9
HETATM    9  C   UNL     1     -41.232  54.346 -51.005  1.00  0.00     0.128 C 
BRANCH   9  10
HETATM   10  C   UNL     1     -39.943  53.526 -51.047  1.00  0.00     0.058 C 
BRANCH  10  11
HETATM   11  C   UNL     1     -39.988  52.458 -52.109  1.00  0.00    -0.054 A 
HETATM   12  C   UNL     1     -39.617  51.139 -51.806  1.00  0.00     0.043 A 
HETATM   13  C   UNL     1     -39.649  50.165 -52.802  1.00  0.00     0.066 A 
HETATM   14  C   UNL     1     -40.039  50.481 -54.097  1.00  0.00     0.036 A 
HETATM   15  C   UNL     1     -40.404  51.789 -54.407  1.00  0.00     0.003 A 
HETATM   16  C   UNL     1     -40.378  52.775 -53.419  1.00  0.00     0.007 A 
BRANCH  13  17
HETATM   17  O   UNL     1     -39.302  48.873 -52.544  1.00  0.00    -0.361 OA
HETATM   18  H   UNL     1     -39.993  48.463 -51.999  1.00  0.00     0.217 HD
ENDBRANCH  13  17
ENDBRANCH  10  11
ENDBRANCH   9  10
ENDBRANCH   6   9
ENDBRANCH   2   5
BRANCH   1  19
HETATM   19  C   UNL     1     -43.046  58.608 -52.460  1.00  0.00     0.150 A 
HETATM   20  C   UNL     1     -43.914  59.342 -51.683  1.00  0.00     0.065 A 
HETATM   21  C   UNL     1     -45.174  58.773 -51.904  1.00  0.00     0.161 A 
HETATM   22  N   UNL     1     -45.129  57.750 -52.756  1.00  0.00    -0.176 NA
HETATM   23  N   UNL     1     -43.820  57.660 -53.136  1.00  0.00    -0.216 N 
BRANCH  20  24
HETATM   24  S   UNL     1     -43.502  60.665 -50.624  1.00  0.00    -0.129 SA
HETATM   25  C   UNL     1     -45.029  60.841 -49.668  1.00  0.00     0.096 C 
ENDBRANCH  20  24
BRANCH  23  26
HETATM   26  C   UNL     1     -43.438  56.740 -54.157  1.00  0.00     0.060 A 
HETATM   27  C   UNL     1     -43.580  55.354 -54.005  1.00  0.00     0.031 A 
HETATM   28  C   UNL     1     -43.174  54.490 -55.029  1.00  0.00     0.002 A 
HETATM   29  C   UNL     1     -42.620  54.996 -56.202  1.00  0.00     0.000 A 
HETATM   30  C   UNL     1     -42.465  56.370 -56.358  1.00  0.00     0.002 A 
HETATM   31  C   UNL     1     -42.870  57.240 -55.342  1.00  0.00     0.031 A 
ENDBRANCH  23  26
ENDBRANCH   1  19
TORSDOF 8
ENDMDL
MODEL 5
REMARK VINA RESULT:      -7.3      2.591      5.219
REMARK  8 active torsions:
REMARK  status: ('A' for Active; 'I' for Inactive)
REMARK    1  A    between atoms: S_2  and  C_3 
REMARK    2  A    between atoms: C_4  and  N_5 
REMARK       I    between atoms: N_5  and  C_6 
REMARK    3  A    between atoms: C_6  and  C_7 
REMARK       I    between atoms: C_7  and  N_8 
REMARK    4  A    between atoms: N_8  and  C_9 
REMARK    5  A    between atoms: C_9  and  C_10 
REMARK    6  A    between atoms: C_10  and  C_11 
REMARK    7  A    between atoms: C_13  and  O_14 
REMARK    8  A    between atoms: N_20  and  C_21 
ROOT
HETATM    1  N   UNL     1     -41.285  58.663 -50.858  1.00  0.00    -0.302 N 
HETATM    2  C   UNL     1     -40.484  58.993 -52.002  1.00  0.00     0.315 C 
HETATM    3  O   UNL     1     -39.414  59.535 -51.784  1.00  0.00    -0.262 OA
HETATM    4  H   UNL     1     -40.780  58.671 -49.979  1.00  0.00     0.171 HD
ENDROOT
BRANCH   2   5
HETATM    5  C   UNL     1     -40.882  58.560 -53.434  1.00  0.00     0.309 C 
HETATM    6  N   UNL     1     -41.652  59.494 -54.106  1.00  0.00    -0.353 N 
HETATM    7  H   UNL     1     -41.824  60.385 -53.646  1.00  0.00     0.162 HD
HETATM    8  O   UNL     1     -40.497  57.503 -53.910  1.00  0.00    -0.262 OA
BRANCH   6   9
HETATM    9  C   UNL     1     -41.941  59.359 -55.522  1.00  0.00     0.128 C 
BRANCH   9  10
HETATM   10  C   UNL     1     -43.320  58.746 -55.768  1.00  0.00     0.058 C 
BRANCH  10  11
HETATM   11  C   UNL     1     -43.287  57.241 -55.703  1.00  0.00    -0.054 A 
HETATM   12  C   UNL     1     -43.792  56.568 -54.581  1.00  0.00     0.043 A 
HETATM   13  C   UNL     1     -43.741  55.176 -54.528  1.00  0.00     0.066 A 
HETATM   14  C   UNL     1     -43.192  54.442 -55.571  1.00  0.00     0.036 A 
HETATM   15  C   UNL     1     -42.684  55.103 -56.687  1.00  0.00     0.003 A 
HETATM   16  C   UNL     1     -42.729  56.497 -56.753  1.00  0.00     0.007 A 
BRANCH  13  17
HETATM   17  O   UNL     1     -44.227  54.487 -53.457  1.00  0.00    -0.361 OA
HETATM   18  H   UNL     1     -45.193  54.424 -53.534  1.00  0.00     0.217 HD
ENDBRANCH  13  17
ENDBRANCH  10  11
ENDBRANCH   9  10
ENDBRANCH   6   9
ENDBRANCH   2   5
BRANCH   1  19
HETATM   19  C   UNL     1     -42.437  57.894 -50.941  1.00  0.00     0.150 A 
HETATM   20  C   UNL     1     -43.685  58.433 -51.155  1.00  0.00     0.065 A 
HETATM   21  C   UNL     1     -44.562  57.341 -51.154  1.00  0.00     0.161 A 
HETATM   22  N   UNL     1     -43.933  56.184 -50.954  1.00  0.00    -0.176 NA
HETATM   23  N   UNL     1     -42.610  56.509 -50.855  1.00  0.00    -0.216 N 
BRANCH  20  24
HETATM   24  S   UNL     1     -44.073  60.123 -51.342  1.00  0.00    -0.129 SA
HETATM   25  C   UNL     1     -45.501  60.282 -50.240  1.00  0.00     0.096 C 
ENDBRANCH  20  24
BRANCH  23  26
HETATM   26  C   UNL     1     -41.629  55.477 -50.769  1.00  0.00     0.060 A 
HETATM   27  C   UNL     1     -41.300  54.666 -51.863  1.00  0.00     0.031 A 
HETATM   28  C   UNL     1     -40.344  53.653 -51.724  1.00  0.00     0.002 A 
HETATM   29  C   UNL     1     -39.719  53.435 -50.499  1.00  0.00     0.000 A 
HETATM   30  C   UNL     1     -40.048  54.227 -49.404  1.00  0.00     0.002 A 
HETATM   31  C   UNL     1     -40.998  55.242 -49.534  1.00  0.00     0.031 A 
ENDBRANCH  23  26
ENDBRANCH   1  19
TORSDOF 8
ENDMDL
MODEL 6
REMARK VINA RESULT:      -7.3      2.262      3.069
REMARK  8 active torsions:
REMARK  status: ('A' for Active; 'I' for Inactive)
REMARK    1  A    between atoms: S_2  and  C_3 
REMARK    2  A    between atoms: C_4  and  N_5 
REMARK       I    between atoms: N_5  and  C_6 
REMARK    3  A    between atoms: C_6  and  C_7 
REMARK       I    between atoms: C_7  and  N_8 
REMARK    4  A    between atoms: N_8  and  C_9 
REMARK    5  A    between atoms: C_9  and  C_10 
REMARK    6  A    between atoms: C_10  and  C_11 
REMARK    7  A    between atoms: C_13  and  O_14 
REMARK    8  A    between atoms: N_20  and  C_21 
ROOT
HETATM    1  N   UNL     1     -41.575  59.705 -53.810  1.00  0.00    -0.302 N 
HETATM    2  C   UNL     1     -40.675  58.778 -53.185  1.00  0.00     0.315 C 
HETATM    3  O   UNL     1     -39.519  59.142 -53.049  1.00  0.00    -0.262 OA
HETATM    4  H   UNL     1     -41.235  60.660 -53.840  1.00  0.00     0.171 HD
ENDROOT
BRANCH   2   5
HETATM    5  C   UNL     1     -41.165  57.439 -52.581  1.00  0.00     0.309 C 
HETATM    6  N   UNL     1     -41.326  56.431 -53.517  1.00  0.00    -0.353 N 
HETATM    7  H   UNL     1     -41.047  56.626 -54.476  1.00  0.00     0.162 HD
HETATM    8  O   UNL     1     -41.343  57.309 -51.381  1.00  0.00    -0.262 OA
BRANCH   6   9
HETATM    9  C   UNL     1     -41.573  55.058 -53.115  1.00  0.00     0.128 C 
BRANCH   9  10
HETATM   10  C   UNL     1     -41.096  54.059 -54.169  1.00  0.00     0.058 C 
BRANCH  10  11
HETATM   11  C   UNL     1     -40.527  52.811 -53.547  1.00  0.00    -0.054 A 
HETATM   12  C   UNL     1     -40.324  51.660 -54.322  1.00  0.00     0.043 A 
HETATM   13  C   UNL     1     -39.811  50.508 -53.729  1.00  0.00     0.066 A 
HETATM   14  C   UNL     1     -39.501  50.479 -52.376  1.00  0.00     0.036 A 
HETATM   15  C   UNL     1     -39.705  51.616 -51.597  1.00  0.00     0.003 A 
HETATM   16  C   UNL     1     -40.217  52.778 -52.179  1.00  0.00     0.007 A 
BRANCH  13  17
HETATM   17  O   UNL     1     -39.595  49.373 -54.451  1.00  0.00    -0.361 OA
HETATM   18  H   UNL     1     -39.334  49.618 -55.354  1.00  0.00     0.217 HD
ENDBRANCH  13  17
ENDBRANCH  10  11
ENDBRANCH   9  10
ENDBRANCH   6   9
ENDBRANCH   2   5
BRANCH   1  19
HETATM   19  C   UNL     1     -42.946  59.499 -53.873  1.00  0.00     0.150 A 
HETATM   20  C   UNL     1     -43.818  59.959 -52.913  1.00  0.00     0.065 A 
HETATM   21  C   UNL     1     -45.084  59.532 -53.333  1.00  0.00     0.161 A 
HETATM   22  N   UNL     1     -45.037  58.848 -54.475  1.00  0.00    -0.176 NA
HETATM   23  N   UNL     1     -43.720  58.850 -54.839  1.00  0.00    -0.216 N 
BRANCH  20  24
HETATM   24  S   UNL     1     -43.407  60.844 -51.468  1.00  0.00    -0.129 SA
HETATM   25  C   UNL     1     -44.836  60.486 -50.415  1.00  0.00     0.096 C 
ENDBRANCH  20  24
BRANCH  23  26
HETATM   26  C   UNL     1     -43.331  58.309 -56.100  1.00  0.00     0.060 A 
HETATM   27  C   UNL     1     -43.419  56.940 -56.385  1.00  0.00     0.031 A 
HETATM   28  C   UNL     1     -43.007  56.454 -57.631  1.00  0.00     0.002 A 
HETATM   29  C   UNL     1     -42.500  57.322 -58.596  1.00  0.00     0.000 A 
HETATM   30  C   UNL     1     -42.398  58.681 -58.318  1.00  0.00     0.002 A 
HETATM   31  C   UNL     1     -42.810  59.175 -57.078  1.00  0.00     0.031 A 
ENDBRANCH  23  26
ENDBRANCH   1  19
TORSDOF 8
ENDMDL
MODEL 7
REMARK VINA RESULT:      -7.3      1.908      2.434
REMARK  8 active torsions:
REMARK  status: ('A' for Active; 'I' for Inactive)
REMARK    1  A    between atoms: S_2  and  C_3 
REMARK    2  A    between atoms: C_4  and  N_5 
REMARK       I    between atoms: N_5  and  C_6 
REMARK    3  A    between atoms: C_6  and  C_7 
REMARK       I    between atoms: C_7  and  N_8 
REMARK    4  A    between atoms: N_8  and  C_9 
REMARK    5  A    between atoms: C_9  and  C_10 
REMARK    6  A    between atoms: C_10  and  C_11 
REMARK    7  A    between atoms: C_13  and  O_14 
REMARK    8  A    between atoms: N_20  and  C_21 
ROOT
HETATM    1  N   UNL     1     -43.535  58.564 -51.622  1.00  0.00    -0.302 N 
HETATM    2  C   UNL     1     -44.062  57.268 -51.304  1.00  0.00     0.315 C 
HETATM    3  O   UNL     1     -45.137  57.238 -50.728  1.00  0.00    -0.262 OA
HETATM    4  H   UNL     1     -44.216  59.313 -51.577  1.00  0.00     0.171 HD
ENDROOT
BRANCH   2   5
HETATM    5  C   UNL     1     -43.381  55.964 -51.786  1.00  0.00     0.309 C 
HETATM    6  N   UNL     1     -42.554  55.384 -50.839  1.00  0.00    -0.353 N 
HETATM    7  H   UNL     1     -42.522  55.807 -49.914  1.00  0.00     0.162 HD
HETATM    8  O   UNL     1     -43.609  55.497 -52.890  1.00  0.00    -0.262 OA
BRANCH   6   9
HETATM    9  C   UNL     1     -41.998  54.056 -51.031  1.00  0.00     0.128 C 
BRANCH   9  10
HETATM   10  C   UNL     1     -40.739  54.083 -51.897  1.00  0.00     0.058 C 
BRANCH  10  11
HETATM   11  C   UNL     1     -40.350  52.706 -52.369  1.00  0.00    -0.054 A 
HETATM   12  C   UNL     1     -39.890  51.746 -51.456  1.00  0.00     0.043 A 
HETATM   13  C   UNL     1     -39.518  50.482 -51.909  1.00  0.00     0.066 A 
HETATM   14  C   UNL     1     -39.591  50.157 -53.257  1.00  0.00     0.036 A 
HETATM   15  C   UNL     1     -40.042  51.107 -54.171  1.00  0.00     0.003 A 
HETATM   16  C   UNL     1     -40.418  52.377 -53.731  1.00  0.00     0.007 A 
BRANCH  13  17
HETATM   17  O   UNL     1     -39.073  49.521 -51.051  1.00  0.00    -0.361 OA
HETATM   18  H   UNL     1     -38.961  49.913 -50.169  1.00  0.00     0.217 HD
ENDBRANCH  13  17
ENDBRANCH  10  11
ENDBRANCH   9  10
ENDBRANCH   6   9
ENDBRANCH   2   5
BRANCH   1  19
HETATM   19  C   UNL     1     -42.416  58.746 -52.423  1.00  0.00     0.150 A 
HETATM   20  C   UNL     1     -41.147  58.903 -51.913  1.00  0.00     0.065 A 
HETATM   21  C   UNL     1     -40.322  59.075 -53.031  1.00  0.00     0.161 A 
HETATM   22  N   UNL     1     -41.002  59.034 -54.176  1.00  0.00    -0.176 NA
HETATM   23  N   UNL     1     -42.297  58.796 -53.815  1.00  0.00    -0.216 N 
BRANCH  20  24
HETATM   24  S   UNL     1     -40.695  58.923 -50.229  1.00  0.00    -0.129 SA
HETATM   25  C   UNL     1     -39.073  59.724 -50.309  1.00  0.00     0.096 C 
ENDBRANCH  20  24
BRANCH  23  26
HETATM   26  C   UNL     1     -43.283  58.559 -54.818  1.00  0.00     0.060 A 
HETATM   27  C   UNL     1     -43.096  57.621 -55.843  1.00  0.00     0.031 A 
HETATM   28  C   UNL     1     -44.084  57.437 -56.816  1.00  0.00     0.002 A 
HETATM   29  C   UNL     1     -45.257  58.188 -56.782  1.00  0.00     0.000 A 
HETATM   30  C   UNL     1     -45.446  59.130 -55.776  1.00  0.00     0.002 A 
HETATM   31  C   UNL     1     -44.466  59.318 -54.799  1.00  0.00     0.031 A 
ENDBRANCH  23  26
ENDBRANCH   1  19
TORSDOF 8
ENDMDL
MODEL 8
REMARK VINA RESULT:      -7.2      3.174      5.742
REMARK  8 active torsions:
REMARK  status: ('A' for Active; 'I' for Inactive)
REMARK    1  A    between atoms: S_2  and  C_3 
REMARK    2  A    between atoms: C_4  and  N_5 
REMARK       I    between atoms: N_5  and  C_6 
REMARK    3  A    between atoms: C_6  and  C_7 
REMARK       I    between atoms: C_7  and  N_8 
REMARK    4  A    between atoms: N_8  and  C_9 
REMARK    5  A    between atoms: C_9  and  C_10 
REMARK    6  A    between atoms: C_10  and  C_11 
REMARK    7  A    between atoms: C_13  and  O_14 
REMARK    8  A    between atoms: N_20  and  C_21 
ROOT
HETATM    1  N   UNL     1     -42.899  57.223 -50.971  1.00  0.00    -0.302 N 
HETATM    2  C   UNL     1     -44.273  57.271 -51.384  1.00  0.00     0.315 C 
HETATM    3  O   UNL     1     -45.106  56.926 -50.563  1.00  0.00    -0.262 OA
HETATM    4  H   UNL     1     -42.768  57.161 -49.968  1.00  0.00     0.171 HD
ENDROOT
BRANCH   2   5
HETATM    5  C   UNL     1     -44.698  57.863 -52.751  1.00  0.00     0.309 C 
HETATM    6  N   UNL     1     -44.558  56.981 -53.808  1.00  0.00    -0.353 N 
HETATM    7  H   UNL     1     -44.268  56.028 -53.596  1.00  0.00     0.162 HD
HETATM    8  O   UNL     1     -45.151  58.993 -52.842  1.00  0.00    -0.262 OA
BRANCH   6   9
HETATM    9  C   UNL     1     -45.099  57.282 -55.122  1.00  0.00     0.128 C 
BRANCH   9  10
HETATM   10  C   UNL     1     -44.063  57.947 -56.028  1.00  0.00     0.058 C 
BRANCH  10  11
HETATM   11  C   UNL     1     -44.030  57.324 -57.399  1.00  0.00    -0.054 A 
HETATM   12  C   UNL     1     -44.863  57.806 -58.419  1.00  0.00     0.043 A 
HETATM   13  C   UNL     1     -44.833  57.208 -59.677  1.00  0.00     0.066 A 
HETATM   14  C   UNL     1     -43.991  56.135 -59.938  1.00  0.00     0.036 A 
HETATM   15  C   UNL     1     -43.164  55.647 -58.929  1.00  0.00     0.003 A 
HETATM   16  C   UNL     1     -43.184  56.236 -57.663  1.00  0.00     0.007 A 
BRANCH  13  17
HETATM   17  O   UNL     1     -45.623  57.653 -60.694  1.00  0.00    -0.361 OA
HETATM   18  H   UNL     1     -45.169  58.380 -61.153  1.00  0.00     0.217 HD
ENDBRANCH  13  17
ENDBRANCH  10  11
ENDBRANCH   9  10
ENDBRANCH   6   9
ENDBRANCH   2   5
BRANCH   1  19
HETATM   19  C   UNL     1     -41.864  57.746 -51.733  1.00  0.00     0.150 A 
HETATM   20  C   UNL     1     -41.362  59.014 -51.546  1.00  0.00     0.065 A 
HETATM   21  C   UNL     1     -40.359  59.157 -52.513  1.00  0.00     0.161 A 
HETATM   22  N   UNL     1     -40.222  58.068 -53.269  1.00  0.00    -0.176 NA
HETATM   23  N   UNL     1     -41.126  57.172 -52.772  1.00  0.00    -0.216 N 
BRANCH  20  24
HETATM   24  S   UNL     1     -41.904  60.189 -50.378  1.00  0.00    -0.129 SA
HETATM   25  C   UNL     1     -42.957  61.247 -51.402  1.00  0.00     0.096 C 
ENDBRANCH  20  24
BRANCH  23  26
HETATM   26  C   UNL     1     -41.151  55.837 -53.274  1.00  0.00     0.060 A 
HETATM   27  C   UNL     1     -41.222  55.555 -54.645  1.00  0.00     0.031 A 
HETATM   28  C   UNL     1     -41.264  54.229 -55.088  1.00  0.00     0.002 A 
HETATM   29  C   UNL     1     -41.242  53.178 -54.174  1.00  0.00     0.000 A 
HETATM   30  C   UNL     1     -41.183  53.448 -52.811  1.00  0.00     0.002 A 
HETATM   31  C   UNL     1     -41.139  54.769 -52.360  1.00  0.00     0.031 A 
ENDBRANCH  23  26
ENDBRANCH   1  19
TORSDOF 8
ENDMDL
MODEL 9
REMARK VINA RESULT:      -7.0      4.067      6.510
REMARK  8 active torsions:
REMARK  status: ('A' for Active; 'I' for Inactive)
REMARK    1  A    between atoms: S_2  and  C_3 
REMARK    2  A    between atoms: C_4  and  N_5 
REMARK       I    between atoms: N_5  and  C_6 
REMARK    3  A    between atoms: C_6  and  C_7 
REMARK       I    between atoms: C_7  and  N_8 
REMARK    4  A    between atoms: N_8  and  C_9 
REMARK    5  A    between atoms: C_9  and  C_10 
REMARK    6  A    between atoms: C_10  and  C_11 
REMARK    7  A    between atoms: C_13  and  O_14 
REMARK    8  A    between atoms: N_20  and  C_21 
ROOT
HETATM    1  N   UNL     1     -44.124  56.732 -53.123  1.00  0.00    -0.302 N 
HETATM    2  C   UNL     1     -44.454  56.942 -54.503  1.00  0.00     0.315 C 
HETATM    3  O   UNL     1     -45.593  56.670 -54.844  1.00  0.00    -0.262 OA
HETATM    4  H   UNL     1     -44.928  56.629 -52.513  1.00  0.00     0.171 HD
ENDROOT
BRANCH   2   5
HETATM    5  C   UNL     1     -43.466  57.613 -55.489  1.00  0.00     0.309 C 
HETATM    6  N   UNL     1     -43.243  56.878 -56.641  1.00  0.00    -0.353 N 
HETATM    7  H   UNL     1     -43.783  56.025 -56.772  1.00  0.00     0.162 HD
HETATM    8  O   UNL     1     -42.982  58.709 -55.258  1.00  0.00    -0.262 OA
BRANCH   6   9
HETATM    9  C   UNL     1     -42.518  57.438 -57.767  1.00  0.00     0.128 C 
BRANCH   9  10
HETATM   10  C   UNL     1     -43.430  58.246 -58.690  1.00  0.00     0.058 C 
BRANCH  10  11
HETATM   11  C   UNL     1     -44.489  57.386 -59.329  1.00  0.00    -0.054 A 
HETATM   12  C   UNL     1     -44.133  56.381 -60.240  1.00  0.00     0.043 A 
HETATM   13  C   UNL     1     -45.125  55.604 -60.836  1.00  0.00     0.066 A 
HETATM   14  C   UNL     1     -46.466  55.814 -60.546  1.00  0.00     0.036 A 
HETATM   15  C   UNL     1     -46.829  56.814 -59.647  1.00  0.00     0.003 A 
HETATM   16  C   UNL     1     -45.846  57.600 -59.042  1.00  0.00     0.007 A 
BRANCH  13  17
HETATM   17  O   UNL     1     -44.816  54.614 -61.720  1.00  0.00    -0.361 OA
HETATM   18  H   UNL     1     -44.564  55.015 -62.568  1.00  0.00     0.217 HD
ENDBRANCH  13  17
ENDBRANCH  10  11
ENDBRANCH   9  10
ENDBRANCH   6   9
ENDBRANCH   2   5
BRANCH   1  19
HETATM   19  C   UNL     1     -42.929  57.157 -52.560  1.00  0.00     0.150 A 
HETATM   20  C   UNL     1     -42.831  58.275 -51.763  1.00  0.00     0.065 A 
HETATM   21  C   UNL     1     -41.476  58.364 -51.421  1.00  0.00     0.161 A 
HETATM   22  N   UNL     1     -40.751  57.381 -51.954  1.00  0.00    -0.176 NA
HETATM   23  N   UNL     1     -41.646  56.605 -52.635  1.00  0.00    -0.216 N 
BRANCH  20  24
HETATM   24  S   UNL     1     -44.124  59.358 -51.323  1.00  0.00    -0.129 SA
HETATM   25  C   UNL     1     -43.205  60.873 -50.950  1.00  0.00     0.096 C 
ENDBRANCH  20  24
BRANCH  23  26
HETATM   26  C   UNL     1     -41.219  55.378 -53.223  1.00  0.00     0.060 A 
HETATM   27  C   UNL     1     -41.258  54.162 -52.526  1.00  0.00     0.031 A 
HETATM   28  C   UNL     1     -40.811  52.987 -53.139  1.00  0.00     0.002 A 
HETATM   29  C   UNL     1     -40.316  53.014 -54.441  1.00  0.00     0.000 A 
HETATM   30  C   UNL     1     -40.263  54.217 -55.137  1.00  0.00     0.002 A 
HETATM   31  C   UNL     1     -40.710  55.395 -54.533  1.00  0.00     0.031 A 
ENDBRANCH  23  26
ENDBRANCH   1  19
TORSDOF 8
ENDMDL
MODEL 10
REMARK VINA RESULT:      -7.0      3.219      5.887
REMARK  8 active torsions:
REMARK  status: ('A' for Active; 'I' for Inactive)
REMARK    1  A    between atoms: S_2  and  C_3 
REMARK    2  A    between atoms: C_4  and  N_5 
REMARK       I    between atoms: N_5  and  C_6 
REMARK    3  A    between atoms: C_6  and  C_7 
REMARK       I    between atoms: C_7  and  N_8 
REMARK    4  A    between atoms: N_8  and  C_9 
REMARK    5  A    between atoms: C_9  and  C_10 
REMARK    6  A    between atoms: C_10  and  C_11 
REMARK    7  A    between atoms: C_13  and  O_14 
REMARK    8  A    between atoms: N_20  and  C_21 
ROOT
HETATM    1  N   UNL     1     -40.941  58.299 -51.631  1.00  0.00    -0.302 N 
HETATM    2  C   UNL     1     -40.449  58.817 -52.876  1.00  0.00     0.315 C 
HETATM    3  O   UNL     1     -39.275  59.144 -52.909  1.00  0.00    -0.262 OA
HETATM    4  H   UNL     1     -40.216  58.011 -50.984  1.00  0.00     0.171 HD
ENDROOT
BRANCH   2   5
HETATM    5  C   UNL     1     -41.316  58.831 -54.159  1.00  0.00     0.309 C 
HETATM    6  N   UNL     1     -41.670  57.570 -54.607  1.00  0.00    -0.353 N 
HETATM    7  H   UNL     1     -41.402  56.771 -54.036  1.00  0.00     0.162 HD
HETATM    8  O   UNL     1     -41.672  59.879 -54.675  1.00  0.00    -0.262 OA
BRANCH   6   9
HETATM    9  C   UNL     1     -42.648  57.390 -55.665  1.00  0.00     0.128 C 
BRANCH   9  10
HETATM   10  C   UNL     1     -42.479  56.048 -56.377  1.00  0.00     0.058 C 
BRANCH  10  11
HETATM   11  C   UNL     1     -43.010  56.087 -57.787  1.00  0.00    -0.054 A 
HETATM   12  C   UNL     1     -43.685  54.980 -58.322  1.00  0.00     0.043 A 
HETATM   13  C   UNL     1     -44.156  55.024 -59.633  1.00  0.00     0.066 A 
HETATM   14  C   UNL     1     -43.964  56.150 -60.423  1.00  0.00     0.036 A 
HETATM   15  C   UNL     1     -43.290  57.251 -59.901  1.00  0.00     0.003 A 
HETATM   16  C   UNL     1     -42.813  57.221 -58.589  1.00  0.00     0.007 A 
BRANCH  13  17
HETATM   17  O   UNL     1     -44.822  53.971 -60.185  1.00  0.00    -0.361 OA
HETATM   18  H   UNL     1     -44.223  53.500 -60.787  1.00  0.00     0.217 HD
ENDBRANCH  13  17
ENDBRANCH  10  11
ENDBRANCH   9  10
ENDBRANCH   6   9
ENDBRANCH   2   5
BRANCH   1  19
HETATM   19  C   UNL     1     -42.200  57.730 -51.497  1.00  0.00     0.150 A 
HETATM   20  C   UNL     1     -43.349  58.475 -51.362  1.00  0.00     0.065 A 
HETATM   21  C   UNL     1     -44.381  57.537 -51.238  1.00  0.00     0.161 A 
HETATM   22  N   UNL     1     -43.937  56.282 -51.286  1.00  0.00    -0.176 NA
HETATM   23  N   UNL     1     -42.589  56.387 -51.482  1.00  0.00    -0.216 N 
BRANCH  20  24
HETATM   24  S   UNL     1     -43.466  60.214 -51.317  1.00  0.00    -0.129 SA
HETATM   25  C   UNL     1     -45.259  60.446 -51.224  1.00  0.00     0.096 C 
ENDBRANCH  20  24
BRANCH  23  26
HETATM   26  C   UNL     1     -41.811  55.214 -51.714  1.00  0.00     0.060 A 
HETATM   27  C   UNL     1     -40.897  54.726 -50.771  1.00  0.00     0.031 A 
HETATM   28  C   UNL     1     -40.143  53.581 -51.052  1.00  0.00     0.002 A 
HETATM   29  C   UNL     1     -40.286  52.922 -52.271  1.00  0.00     0.000 A 
HETATM   30  C   UNL     1     -41.183  53.407 -53.218  1.00  0.00     0.002 A 
HETATM   31  C   UNL     1     -41.942  54.547 -52.944  1.00  0.00     0.031 A 
ENDBRANCH  23  26
ENDBRANCH   1  19
TORSDOF 8
ENDMDL
