MODEL 1
REMARK VINA RESULT:      -8.2      0.000      0.000
REMARK  5 active torsions:
REMARK  status: ('A' for Active; 'I' for Inactive)
REMARK    1  A    between atoms: O_2  and  C_3 
REMARK    2  A    between atoms: C_7  and  C_8 
REMARK    3  A    between atoms: C_8  and  N_9 
REMARK       I    between atoms: N_9  and  C_10 
REMARK       I    between atoms: C_10  and  N_12 
REMARK    4  A    between atoms: N_12  and  C_13 
REMARK    5  A    between atoms: C_16  and  C_19 
ROOT
HETATM    1  N   UNL     1     -41.997  59.245 -50.179  1.00  0.00    -0.339 N 
HETATM    2  C   UNL     1     -41.444  58.215 -50.913  1.00  0.00     0.320 C 
HETATM    3  O   UNL     1     -40.827  58.417 -51.951  1.00  0.00    -0.247 OA
HETATM    4  N   UNL     1     -41.655  56.999 -50.302  1.00  0.00    -0.309 N 
HETATM    5  H   UNL     1     -42.830  59.029 -49.654  1.00  0.00     0.164 HD
HETATM    6  H   UNL     1     -42.085  57.038 -49.391  1.00  0.00     0.170 HD
ENDROOT
BRANCH   4   7
HETATM    7  C   UNL     1     -41.215  55.733 -50.738  1.00  0.00     0.036 A 
HETATM    8  C   UNL     1     -40.382  54.899 -49.994  1.00  0.00     0.030 A 
HETATM    9  C   UNL     1     -40.007  53.641 -50.484  1.00  0.00     0.014 A 
HETATM   10  C   UNL     1     -40.448  53.185 -51.734  1.00  0.00    -0.026 A 
HETATM   11  C   UNL     1     -41.272  54.037 -52.484  1.00  0.00     0.014 A 
HETATM   12  C   UNL     1     -41.652  55.293 -51.993  1.00  0.00     0.030 A 
BRANCH  10  13
HETATM   13  C   UNL     1     -40.063  51.857 -52.235  1.00  0.00    -0.023 A 
HETATM   14  C   UNL     1     -39.773  50.808 -51.352  1.00  0.00     0.031 A 
HETATM   15  C   UNL     1     -39.410  49.574 -51.866  1.00  0.00     0.117 A 
HETATM   16  N   UNL     1     -39.312  49.309 -53.186  1.00  0.00    -0.273 NA
HETATM   17  C   UNL     1     -39.590  50.328 -54.025  1.00  0.00     0.117 A 
HETATM   18  C   UNL     1     -39.965  51.595 -53.606  1.00  0.00     0.031 A 
ENDBRANCH  10  13
ENDBRANCH   4   7
BRANCH   1  19
HETATM   19  C   UNL     1     -41.904  60.597 -50.688  1.00  0.00     0.163 C 
BRANCH  19  20
HETATM   20  C   UNL     1     -42.962  61.499 -50.109  1.00  0.00    -0.038 A 
HETATM   21  C   UNL     1     -42.925  62.884 -50.319  1.00  0.00     0.009 A 
HETATM   22  C   UNL     1     -43.948  63.701 -49.839  1.00  0.00     0.003 A 
HETATM   23  C   UNL     1     -45.035  63.143 -49.164  1.00  0.00     0.037 A 
HETATM   24  C   UNL     1     -45.102  61.764 -48.968  1.00  0.00     0.068 A 
HETATM   25  C   UNL     1     -44.060  60.953 -49.428  1.00  0.00     0.045 A 
BRANCH  24  26
HETATM   26  O   UNL     1     -46.118  61.095 -48.342  1.00  0.00    -0.356 OA
HETATM   27  C   UNL     1     -45.889  60.731 -46.985  1.00  0.00     0.210 C 
ENDBRANCH  24  26
ENDBRANCH  19  20
ENDBRANCH   1  19
TORSDOF 5
ENDMDL
MODEL 2
REMARK VINA RESULT:      -8.2      7.531     10.715
REMARK  5 active torsions:
REMARK  status: ('A' for Active; 'I' for Inactive)
REMARK    1  A    between atoms: O_2  and  C_3 
REMARK    2  A    between atoms: C_7  and  C_8 
REMARK    3  A    between atoms: C_8  and  N_9 
REMARK       I    between atoms: N_9  and  C_10 
REMARK       I    between atoms: C_10  and  N_12 
REMARK    4  A    between atoms: N_12  and  C_13 
REMARK    5  A    between atoms: C_16  and  C_19 
ROOT
HETATM    1  N   UNL     1     -41.240  55.435 -55.621  1.00  0.00    -0.339 N 
HETATM    2  C   UNL     1     -42.465  55.843 -56.110  1.00  0.00     0.320 C 
HETATM    3  O   UNL     1     -43.352  56.256 -55.375  1.00  0.00    -0.247 OA
HETATM    4  N   UNL     1     -42.507  55.750 -57.483  1.00  0.00    -0.309 N 
HETATM    5  H   UNL     1     -40.763  54.715 -56.139  1.00  0.00     0.164 HD
HETATM    6  H   UNL     1     -41.639  55.497 -57.930  1.00  0.00     0.170 HD
ENDROOT
BRANCH   4   7
HETATM    7  C   UNL     1     -43.575  56.103 -58.333  1.00  0.00     0.036 A 
HETATM    8  C   UNL     1     -44.112  55.255 -59.301  1.00  0.00     0.030 A 
HETATM    9  C   UNL     1     -45.192  55.668 -60.092  1.00  0.00     0.014 A 
HETATM   10  C   UNL     1     -45.761  56.941 -59.943  1.00  0.00    -0.026 A 
HETATM   11  C   UNL     1     -45.205  57.792 -58.978  1.00  0.00     0.014 A 
HETATM   12  C   UNL     1     -44.128  57.379 -58.183  1.00  0.00     0.030 A 
BRANCH  10  13
HETATM   13  C   UNL     1     -46.905  57.360 -60.767  1.00  0.00    -0.023 A 
HETATM   14  C   UNL     1     -47.292  58.704 -60.836  1.00  0.00     0.031 A 
HETATM   15  C   UNL     1     -48.379  59.054 -61.622  1.00  0.00     0.117 A 
HETATM   16  N   UNL     1     -49.104  58.170 -62.337  1.00  0.00    -0.273 NA
HETATM   17  C   UNL     1     -48.723  56.878 -62.260  1.00  0.00     0.117 A 
HETATM   18  C   UNL     1     -47.650  56.432 -61.504  1.00  0.00     0.031 A 
ENDBRANCH  10  13
ENDBRANCH   4   7
BRANCH   1  19
HETATM   19  C   UNL     1     -41.024  55.430 -54.189  1.00  0.00     0.163 C 
BRANCH  19  20
HETATM   20  C   UNL     1     -40.643  54.066 -53.673  1.00  0.00    -0.038 A 
HETATM   21  C   UNL     1     -40.232  53.052 -54.548  1.00  0.00     0.009 A 
HETATM   22  C   UNL     1     -39.814  51.817 -54.053  1.00  0.00     0.003 A 
HETATM   23  C   UNL     1     -39.777  51.586 -52.677  1.00  0.00     0.037 A 
HETATM   24  C   UNL     1     -40.159  52.593 -51.790  1.00  0.00     0.068 A 
HETATM   25  C   UNL     1     -40.603  53.820 -52.293  1.00  0.00     0.045 A 
BRANCH  24  26
HETATM   26  O   UNL     1     -40.150  52.501 -50.425  1.00  0.00    -0.356 OA
HETATM   27  C   UNL     1     -40.055  53.729 -49.713  1.00  0.00     0.210 C 
ENDBRANCH  24  26
ENDBRANCH  19  20
ENDBRANCH   1  19
TORSDOF 5
ENDMDL
MODEL 3
REMARK VINA RESULT:      -8.1      1.550      2.096
REMARK  5 active torsions:
REMARK  status: ('A' for Active; 'I' for Inactive)
REMARK    1  A    between atoms: O_2  and  C_3 
REMARK    2  A    between atoms: C_7  and  C_8 
REMARK    3  A    between atoms: C_8  and  N_9 
REMARK       I    between atoms: N_9  and  C_10 
REMARK       I    between atoms: C_10  and  N_12 
REMARK    4  A    between atoms: N_12  and  C_13 
REMARK    5  A    between atoms: C_16  and  C_19 
ROOT
HETATM    1  N   UNL     1     -42.843  59.441 -52.491  1.00  0.00    -0.339 N 
HETATM    2  C   UNL     1     -42.896  58.070 -52.648  1.00  0.00     0.320 C 
HETATM    3  O   UNL     1     -43.957  57.472 -52.768  1.00  0.00    -0.247 OA
HETATM    4  N   UNL     1     -41.633  57.525 -52.683  1.00  0.00    -0.309 N 
HETATM    5  H   UNL     1     -42.071  59.805 -51.956  1.00  0.00     0.164 HD
HETATM    6  H   UNL     1     -40.872  58.187 -52.684  1.00  0.00     0.170 HD
ENDROOT
BRANCH   4   7
HETATM    7  C   UNL     1     -41.290  56.168 -52.858  1.00  0.00     0.036 A 
HETATM    8  C   UNL     1     -40.911  55.613 -54.080  1.00  0.00     0.030 A 
HETATM    9  C   UNL     1     -40.558  54.260 -54.170  1.00  0.00     0.014 A 
HETATM   10  C   UNL     1     -40.583  53.423 -53.045  1.00  0.00    -0.026 A 
HETATM   11  C   UNL     1     -40.981  53.986 -51.824  1.00  0.00     0.014 A 
HETATM   12  C   UNL     1     -41.328  55.340 -51.731  1.00  0.00     0.030 A 
BRANCH  10  13
HETATM   13  C   UNL     1     -40.197  52.007 -53.146  1.00  0.00    -0.023 A 
HETATM   14  C   UNL     1     -40.276  51.322 -54.365  1.00  0.00     0.031 A 
HETATM   15  C   UNL     1     -39.906  49.987 -54.414  1.00  0.00     0.117 A 
HETATM   16  N   UNL     1     -39.468  49.290 -53.346  1.00  0.00    -0.273 NA
HETATM   17  C   UNL     1     -39.399  49.960 -52.178  1.00  0.00     0.117 A 
HETATM   18  C   UNL     1     -39.744  51.295 -52.030  1.00  0.00     0.031 A 
ENDBRANCH  10  13
ENDBRANCH   4   7
BRANCH   1  19
HETATM   19  C   UNL     1     -44.082  60.184 -52.396  1.00  0.00     0.163 C 
BRANCH  19  20
HETATM   20  C   UNL     1     -44.255  60.837 -51.050  1.00  0.00    -0.038 A 
HETATM   21  C   UNL     1     -43.691  62.091 -50.777  1.00  0.00     0.009 A 
HETATM   22  C   UNL     1     -43.918  62.717 -49.551  1.00  0.00     0.003 A 
HETATM   23  C   UNL     1     -44.731  62.112 -48.591  1.00  0.00     0.037 A 
HETATM   24  C   UNL     1     -45.321  60.876 -48.855  1.00  0.00     0.068 A 
HETATM   25  C   UNL     1     -45.069  60.240 -50.075  1.00  0.00     0.045 A 
BRANCH  24  26
HETATM   26  O   UNL     1     -46.150  60.190 -48.010  1.00  0.00    -0.356 OA
HETATM   27  C   UNL     1     -45.955  60.416 -46.619  1.00  0.00     0.210 C 
ENDBRANCH  24  26
ENDBRANCH  19  20
ENDBRANCH   1  19
TORSDOF 5
ENDMDL
MODEL 4
REMARK VINA RESULT:      -7.6      1.521      2.080
REMARK  5 active torsions:
REMARK  status: ('A' for Active; 'I' for Inactive)
REMARK    1  A    between atoms: O_2  and  C_3 
REMARK    2  A    between atoms: C_7  and  C_8 
REMARK    3  A    between atoms: C_8  and  N_9 
REMARK       I    between atoms: N_9  and  C_10 
REMARK       I    between atoms: C_10  and  N_12 
REMARK    4  A    between atoms: N_12  and  C_13 
REMARK    5  A    between atoms: C_16  and  C_19 
ROOT
HETATM    1  N   UNL     1     -42.022  59.151 -50.155  1.00  0.00    -0.339 N 
HETATM    2  C   UNL     1     -41.402  58.157 -50.886  1.00  0.00     0.320 C 
HETATM    3  O   UNL     1     -40.610  58.410 -51.784  1.00  0.00    -0.247 OA
HETATM    4  N   UNL     1     -41.771  56.908 -50.438  1.00  0.00    -0.309 N 
HETATM    5  H   UNL     1     -42.940  58.944 -49.797  1.00  0.00     0.164 HD
HETATM    6  H   UNL     1     -42.347  56.895 -49.611  1.00  0.00     0.170 HD
ENDROOT
BRANCH   4   7
HETATM    7  C   UNL     1     -41.325  55.660 -50.918  1.00  0.00     0.036 A 
HETATM    8  C   UNL     1     -40.459  54.821 -50.217  1.00  0.00     0.030 A 
HETATM    9  C   UNL     1     -40.080  53.581 -50.748  1.00  0.00     0.014 A 
HETATM   10  C   UNL     1     -40.548  53.149 -51.997  1.00  0.00    -0.026 A 
HETATM   11  C   UNL     1     -41.405  54.006 -52.702  1.00  0.00     0.014 A 
HETATM   12  C   UNL     1     -41.790  55.243 -52.170  1.00  0.00     0.030 A 
BRANCH  10  13
HETATM   13  C   UNL     1     -40.157  51.839 -52.540  1.00  0.00    -0.023 A 
HETATM   14  C   UNL     1     -39.679  50.823 -51.703  1.00  0.00     0.031 A 
HETATM   15  C   UNL     1     -39.318  49.606 -52.257  1.00  0.00     0.117 A 
HETATM   16  N   UNL     1     -39.395  49.329 -53.575  1.00  0.00    -0.273 NA
HETATM   17  C   UNL     1     -39.853  50.316 -54.371  1.00  0.00     0.117 A 
HETATM   18  C   UNL     1     -40.242  51.564 -53.909  1.00  0.00     0.031 A 
ENDBRANCH  10  13
ENDBRANCH   4   7
BRANCH   1  19
HETATM   19  C   UNL     1     -41.780  60.534 -50.509  1.00  0.00     0.163 C 
BRANCH  19  20
HETATM   20  C   UNL     1     -43.046  61.350 -50.523  1.00  0.00    -0.038 A 
HETATM   21  C   UNL     1     -43.860  61.440 -49.386  1.00  0.00     0.009 A 
HETATM   22  C   UNL     1     -44.992  62.256 -49.389  1.00  0.00     0.003 A 
HETATM   23  C   UNL     1     -45.312  63.011 -50.519  1.00  0.00     0.037 A 
HETATM   24  C   UNL     1     -44.499  62.954 -51.650  1.00  0.00     0.068 A 
HETATM   25  C   UNL     1     -43.381  62.114 -51.651  1.00  0.00     0.045 A 
BRANCH  24  26
HETATM   26  O   UNL     1     -44.692  63.656 -52.808  1.00  0.00    -0.356 OA
HETATM   27  C   UNL     1     -45.254  62.932 -53.897  1.00  0.00     0.210 C 
ENDBRANCH  24  26
ENDBRANCH  19  20
ENDBRANCH   1  19
TORSDOF 5
ENDMDL
MODEL 5
REMARK VINA RESULT:      -7.6      5.060      6.452
REMARK  5 active torsions:
REMARK  status: ('A' for Active; 'I' for Inactive)
REMARK    1  A    between atoms: O_2  and  C_3 
REMARK    2  A    between atoms: C_7  and  C_8 
REMARK    3  A    between atoms: C_8  and  N_9 
REMARK       I    between atoms: N_9  and  C_10 
REMARK       I    between atoms: C_10  and  N_12 
REMARK    4  A    between atoms: N_12  and  C_13 
REMARK    5  A    between atoms: C_16  and  C_19 
ROOT
HETATM    1  N   UNL     1     -42.796  59.243 -54.963  1.00  0.00    -0.339 N 
HETATM    2  C   UNL     1     -42.676  57.874 -55.095  1.00  0.00     0.320 C 
HETATM    3  O   UNL     1     -43.287  57.249 -55.951  1.00  0.00    -0.247 OA
HETATM    4  N   UNL     1     -41.780  57.364 -54.182  1.00  0.00    -0.309 N 
HETATM    5  H   UNL     1     -42.678  59.621 -54.037  1.00  0.00     0.164 HD
HETATM    6  H   UNL     1     -41.284  58.047 -53.630  1.00  0.00     0.170 HD
ENDROOT
BRANCH   4   7
HETATM    7  C   UNL     1     -41.379  56.020 -54.034  1.00  0.00     0.036 A 
HETATM    8  C   UNL     1     -40.596  55.335 -54.962  1.00  0.00     0.030 A 
HETATM    9  C   UNL     1     -40.216  54.006 -54.732  1.00  0.00     0.014 A 
HETATM   10  C   UNL     1     -40.614  53.324 -53.574  1.00  0.00    -0.026 A 
HETATM   11  C   UNL     1     -41.415  54.015 -52.654  1.00  0.00     0.014 A 
HETATM   12  C   UNL     1     -41.791  55.346 -52.880  1.00  0.00     0.030 A 
BRANCH  10  13
HETATM   13  C   UNL     1     -40.197  51.933 -53.333  1.00  0.00    -0.023 A 
HETATM   14  C   UNL     1     -40.181  50.994 -54.372  1.00  0.00     0.031 A 
HETATM   15  C   UNL     1     -39.786  49.694 -54.101  1.00  0.00     0.117 A 
HETATM   16  N   UNL     1     -39.410  49.263 -52.879  1.00  0.00    -0.273 NA
HETATM   17  C   UNL     1     -39.433  50.176 -51.886  1.00  0.00     0.117 A 
HETATM   18  C   UNL     1     -39.810  51.499 -52.061  1.00  0.00     0.031 A 
ENDBRANCH  10  13
ENDBRANCH   4   7
BRANCH   1  19
HETATM   19  C   UNL     1     -43.726  59.950 -55.820  1.00  0.00     0.163 C 
BRANCH  19  20
HETATM   20  C   UNL     1     -43.130  60.275 -57.165  1.00  0.00    -0.038 A 
HETATM   21  C   UNL     1     -43.861  60.082 -58.345  1.00  0.00     0.009 A 
HETATM   22  C   UNL     1     -43.325  60.453 -59.578  1.00  0.00     0.003 A 
HETATM   23  C   UNL     1     -42.062  61.044 -59.647  1.00  0.00     0.037 A 
HETATM   24  C   UNL     1     -41.331  61.267 -58.481  1.00  0.00     0.068 A 
HETATM   25  C   UNL     1     -41.861  60.868 -57.249  1.00  0.00     0.045 A 
BRANCH  24  26
HETATM   26  O   UNL     1     -40.096  61.852 -58.412  1.00  0.00    -0.356 OA
HETATM   27  C   UNL     1     -39.974  63.135 -59.015  1.00  0.00     0.210 C 
ENDBRANCH  24  26
ENDBRANCH  19  20
ENDBRANCH   1  19
TORSDOF 5
ENDMDL
MODEL 6
REMARK VINA RESULT:      -7.5      7.030      9.693
REMARK  5 active torsions:
REMARK  status: ('A' for Active; 'I' for Inactive)
REMARK    1  A    between atoms: O_2  and  C_3 
REMARK    2  A    between atoms: C_7  and  C_8 
REMARK    3  A    between atoms: C_8  and  N_9 
REMARK       I    between atoms: N_9  and  C_10 
REMARK       I    between atoms: C_10  and  N_12 
REMARK    4  A    between atoms: N_12  and  C_13 
REMARK    5  A    between atoms: C_16  and  C_19 
ROOT
HETATM    1  N   UNL     1     -40.918  54.717 -55.273  1.00  0.00    -0.339 N 
HETATM    2  C   UNL     1     -42.134  54.790 -55.923  1.00  0.00     0.320 C 
HETATM    3  O   UNL     1     -43.047  54.012 -55.681  1.00  0.00    -0.247 OA
HETATM    4  N   UNL     1     -42.161  55.845 -56.807  1.00  0.00    -0.309 N 
HETATM    5  H   UNL     1     -40.110  55.023 -55.791  1.00  0.00     0.164 HD
HETATM    6  H   UNL     1     -41.355  56.450 -56.790  1.00  0.00     0.170 HD
ENDROOT
BRANCH   4   7
HETATM    7  C   UNL     1     -43.237  56.250 -57.624  1.00  0.00     0.036 A 
HETATM    8  C   UNL     1     -44.038  57.361 -57.362  1.00  0.00     0.030 A 
HETATM    9  C   UNL     1     -45.074  57.717 -58.236  1.00  0.00     0.014 A 
HETATM   10  C   UNL     1     -45.343  56.968 -59.390  1.00  0.00    -0.026 A 
HETATM   11  C   UNL     1     -44.544  55.843 -59.637  1.00  0.00     0.014 A 
HETATM   12  C   UNL     1     -43.504  55.490 -58.768  1.00  0.00     0.030 A 
BRANCH  10  13
HETATM   13  C   UNL     1     -46.423  57.358 -60.310  1.00  0.00    -0.023 A 
HETATM   14  C   UNL     1     -47.160  56.393 -61.010  1.00  0.00     0.031 A 
HETATM   15  C   UNL     1     -48.166  56.804 -61.869  1.00  0.00     0.117 A 
HETATM   16  N   UNL     1     -48.489  58.097 -62.083  1.00  0.00    -0.273 NA
HETATM   17  C   UNL     1     -47.770  59.016 -61.406  1.00  0.00     0.117 A 
HETATM   18  C   UNL     1     -46.748  58.702 -60.523  1.00  0.00     0.031 A 
ENDBRANCH  10  13
ENDBRANCH   4   7
BRANCH   1  19
HETATM   19  C   UNL     1     -40.693  53.643 -54.328  1.00  0.00     0.163 C 
BRANCH  19  20
HETATM   20  C   UNL     1     -40.755  54.117 -52.899  1.00  0.00    -0.038 A 
HETATM   21  C   UNL     1     -40.134  53.397 -51.871  1.00  0.00     0.009 A 
HETATM   22  C   UNL     1     -40.137  53.883 -50.564  1.00  0.00     0.003 A 
HETATM   23  C   UNL     1     -40.740  55.108 -50.270  1.00  0.00     0.037 A 
HETATM   24  C   UNL     1     -41.341  55.851 -51.286  1.00  0.00     0.068 A 
HETATM   25  C   UNL     1     -41.358  55.346 -52.590  1.00  0.00     0.045 A 
BRANCH  24  26
HETATM   26  O   UNL     1     -41.945  57.069 -51.133  1.00  0.00    -0.356 OA
HETATM   27  C   UNL     1     -41.079  58.195 -51.058  1.00  0.00     0.210 C 
ENDBRANCH  24  26
ENDBRANCH  19  20
ENDBRANCH   1  19
TORSDOF 5
ENDMDL
MODEL 7
REMARK VINA RESULT:      -7.5     17.027     19.199
REMARK  5 active torsions:
REMARK  status: ('A' for Active; 'I' for Inactive)
REMARK    1  A    between atoms: O_2  and  C_3 
REMARK    2  A    between atoms: C_7  and  C_8 
REMARK    3  A    between atoms: C_8  and  N_9 
REMARK       I    between atoms: N_9  and  C_10 
REMARK       I    between atoms: C_10  and  N_12 
REMARK    4  A    between atoms: N_12  and  C_13 
REMARK    5  A    between atoms: C_16  and  C_19 
ROOT
HETATM    1  N   UNL     1     -35.888  42.387 -52.786  1.00  0.00    -0.339 N 
HETATM    2  C   UNL     1     -35.783  41.748 -54.006  1.00  0.00     0.320 C 
HETATM    3  O   UNL     1     -34.776  41.132 -54.331  1.00  0.00    -0.247 OA
HETATM    4  N   UNL     1     -36.943  41.878 -54.736  1.00  0.00    -0.309 N 
HETATM    5  H   UNL     1     -36.469  43.209 -52.756  1.00  0.00     0.164 HD
HETATM    6  H   UNL     1     -37.711  42.323 -54.259  1.00  0.00     0.170 HD
ENDROOT
BRANCH   4   7
HETATM    7  C   UNL     1     -37.218  41.338 -56.010  1.00  0.00     0.036 A 
HETATM    8  C   UNL     1     -37.129  42.063 -57.197  1.00  0.00     0.030 A 
HETATM    9  C   UNL     1     -37.394  41.450 -58.429  1.00  0.00     0.014 A 
HETATM   10  C   UNL     1     -37.762  40.099 -58.507  1.00  0.00    -0.026 A 
HETATM   11  C   UNL     1     -37.865  39.383 -57.307  1.00  0.00     0.014 A 
HETATM   12  C   UNL     1     -37.595  39.992 -56.075  1.00  0.00     0.030 A 
BRANCH  10  13
HETATM   13  C   UNL     1     -38.023  39.460 -59.806  1.00  0.00    -0.023 A 
HETATM   14  C   UNL     1     -37.184  39.686 -60.905  1.00  0.00     0.031 A 
HETATM   15  C   UNL     1     -37.469  39.066 -62.111  1.00  0.00     0.117 A 
HETATM   16  N   UNL     1     -38.523  38.246 -62.303  1.00  0.00    -0.273 NA
HETATM   17  C   UNL     1     -39.325  38.039 -61.239  1.00  0.00     0.117 A 
HETATM   18  C   UNL     1     -39.120  38.611 -59.992  1.00  0.00     0.031 A 
ENDBRANCH  10  13
ENDBRANCH   4   7
BRANCH   1  19
HETATM   19  C   UNL     1     -34.746  42.387 -51.895  1.00  0.00     0.163 C 
BRANCH  19  20
HETATM   20  C   UNL     1     -34.745  41.199 -50.969  1.00  0.00    -0.038 A 
HETATM   21  C   UNL     1     -35.943  40.587 -50.577  1.00  0.00     0.009 A 
HETATM   22  C   UNL     1     -35.925  39.444 -49.777  1.00  0.00     0.003 A 
HETATM   23  C   UNL     1     -34.711  38.884 -49.378  1.00  0.00     0.037 A 
HETATM   24  C   UNL     1     -33.508  39.465 -49.779  1.00  0.00     0.068 A 
HETATM   25  C   UNL     1     -33.532  40.626 -50.559  1.00  0.00     0.045 A 
BRANCH  24  26
HETATM   26  O   UNL     1     -32.257  39.004 -49.474  1.00  0.00    -0.356 OA
HETATM   27  C   UNL     1     -31.614  39.620 -48.363  1.00  0.00     0.210 C 
ENDBRANCH  24  26
ENDBRANCH  19  20
ENDBRANCH   1  19
TORSDOF 5
ENDMDL
MODEL 8
REMARK VINA RESULT:      -7.4     16.981     19.325
REMARK  5 active torsions:
REMARK  status: ('A' for Active; 'I' for Inactive)
REMARK    1  A    between atoms: O_2  and  C_3 
REMARK    2  A    between atoms: C_7  and  C_8 
REMARK    3  A    between atoms: C_8  and  N_9 
REMARK       I    between atoms: N_9  and  C_10 
REMARK       I    between atoms: C_10  and  N_12 
REMARK    4  A    between atoms: N_12  and  C_13 
REMARK    5  A    between atoms: C_16  and  C_19 
ROOT
HETATM    1  N   UNL     1     -35.219  41.921 -55.119  1.00  0.00    -0.339 N 
HETATM    2  C   UNL     1     -35.202  41.606 -53.775  1.00  0.00     0.320 C 
HETATM    3  O   UNL     1     -36.188  41.746 -53.064  1.00  0.00    -0.247 OA
HETATM    4  N   UNL     1     -33.978  41.102 -53.398  1.00  0.00    -0.309 N 
HETATM    5  H   UNL     1     -34.349  42.230 -55.522  1.00  0.00     0.164 HD
HETATM    6  H   UNL     1     -33.320  40.951 -54.147  1.00  0.00     0.170 HD
ENDROOT
BRANCH   4   7
HETATM    7  C   UNL     1     -33.595  40.647 -52.120  1.00  0.00     0.036 A 
HETATM    8  C   UNL     1     -34.497  40.310 -51.111  1.00  0.00     0.030 A 
HETATM    9  C   UNL     1     -34.041  39.839 -49.873  1.00  0.00     0.014 A 
HETATM   10  C   UNL     1     -32.672  39.700 -49.606  1.00  0.00    -0.026 A 
HETATM   11  C   UNL     1     -31.771  40.056 -50.619  1.00  0.00     0.014 A 
HETATM   12  C   UNL     1     -32.226  40.522 -51.860  1.00  0.00     0.030 A 
BRANCH  10  13
HETATM   13  C   UNL     1     -32.202  39.191 -48.308  1.00  0.00    -0.023 A 
HETATM   14  C   UNL     1     -32.849  38.122 -47.674  1.00  0.00     0.031 A 
HETATM   15  C   UNL     1     -32.375  37.677 -46.450  1.00  0.00     0.117 A 
HETATM   16  N   UNL     1     -31.314  38.216 -45.814  1.00  0.00    -0.273 NA
HETATM   17  C   UNL     1     -30.702  39.246 -46.433  1.00  0.00     0.117 A 
HETATM   18  C   UNL     1     -31.100  39.758 -47.659  1.00  0.00     0.031 A 
ENDBRANCH  10  13
ENDBRANCH   4   7
BRANCH   1  19
HETATM   19  C   UNL     1     -36.418  42.500 -55.688  1.00  0.00     0.163 C 
BRANCH  19  20
HETATM   20  C   UNL     1     -37.001  41.646 -56.783  1.00  0.00    -0.038 A 
HETATM   21  C   UNL     1     -37.784  40.523 -56.484  1.00  0.00     0.009 A 
HETATM   22  C   UNL     1     -38.378  39.782 -57.506  1.00  0.00     0.003 A 
HETATM   23  C   UNL     1     -38.217  40.166 -58.839  1.00  0.00     0.037 A 
HETATM   24  C   UNL     1     -37.462  41.295 -59.153  1.00  0.00     0.068 A 
HETATM   25  C   UNL     1     -36.847  42.020 -58.126  1.00  0.00     0.045 A 
BRANCH  24  26
HETATM   26  O   UNL     1     -37.245  41.787 -60.412  1.00  0.00    -0.356 OA
HETATM   27  C   UNL     1     -37.435  43.187 -60.581  1.00  0.00     0.210 C 
ENDBRANCH  24  26
ENDBRANCH  19  20
ENDBRANCH   1  19
TORSDOF 5
ENDMDL
MODEL 9
REMARK VINA RESULT:      -7.3      3.149     10.090
REMARK  5 active torsions:
REMARK  status: ('A' for Active; 'I' for Inactive)
REMARK    1  A    between atoms: O_2  and  C_3 
REMARK    2  A    between atoms: C_7  and  C_8 
REMARK    3  A    between atoms: C_8  and  N_9 
REMARK       I    between atoms: N_9  and  C_10 
REMARK       I    between atoms: C_10  and  N_12 
REMARK    4  A    between atoms: N_12  and  C_13 
REMARK    5  A    between atoms: C_16  and  C_19 
ROOT
HETATM    1  N   UNL     1     -42.854  54.694 -54.180  1.00  0.00    -0.339 N 
HETATM    2  C   UNL     1     -42.945  56.011 -53.776  1.00  0.00     0.320 C 
HETATM    3  O   UNL     1     -42.024  56.802 -53.929  1.00  0.00    -0.247 OA
HETATM    4  N   UNL     1     -44.184  56.282 -53.240  1.00  0.00    -0.309 N 
HETATM    5  H   UNL     1     -43.384  54.021 -53.649  1.00  0.00     0.164 HD
HETATM    6  H   UNL     1     -44.858  55.534 -53.301  1.00  0.00     0.170 HD
ENDROOT
BRANCH   4   7
HETATM    7  C   UNL     1     -44.654  57.517 -52.749  1.00  0.00     0.036 A 
HETATM    8  C   UNL     1     -44.890  58.634 -53.550  1.00  0.00     0.030 A 
HETATM    9  C   UNL     1     -45.382  59.821 -52.992  1.00  0.00     0.014 A 
HETATM   10  C   UNL     1     -45.646  59.928 -51.619  1.00  0.00    -0.026 A 
HETATM   11  C   UNL     1     -45.391  58.805 -50.819  1.00  0.00     0.014 A 
HETATM   12  C   UNL     1     -44.904  57.616 -51.375  1.00  0.00     0.030 A 
BRANCH  10  13
HETATM   13  C   UNL     1     -46.178  61.173 -51.045  1.00  0.00    -0.023 A 
HETATM   14  C   UNL     1     -45.944  61.509 -49.705  1.00  0.00     0.031 A 
HETATM   15  C   UNL     1     -46.467  62.690 -49.204  1.00  0.00     0.117 A 
HETATM   16  N   UNL     1     -47.203  63.555 -49.934  1.00  0.00    -0.273 NA
HETATM   17  C   UNL     1     -47.423  63.219 -51.221  1.00  0.00     0.117 A 
HETATM   18  C   UNL     1     -46.939  62.062 -51.812  1.00  0.00     0.031 A 
ENDBRANCH  10  13
ENDBRANCH   4   7
BRANCH   1  19
HETATM   19  C   UNL     1     -41.605  54.218 -54.737  1.00  0.00     0.163 C 
BRANCH  19  20
HETATM   20  C   UNL     1     -40.901  53.253 -53.818  1.00  0.00    -0.038 A 
HETATM   21  C   UNL     1     -40.303  52.088 -54.315  1.00  0.00     0.009 A 
HETATM   22  C   UNL     1     -39.593  51.239 -53.466  1.00  0.00     0.003 A 
HETATM   23  C   UNL     1     -39.449  51.556 -52.114  1.00  0.00     0.037 A 
HETATM   24  C   UNL     1     -40.016  52.725 -51.607  1.00  0.00     0.068 A 
HETATM   25  C   UNL     1     -40.749  53.558 -52.457  1.00  0.00     0.045 A 
BRANCH  24  26
HETATM   26  O   UNL     1     -39.931  53.157 -50.312  1.00  0.00    -0.356 OA
HETATM   27  C   UNL     1     -40.933  54.074 -49.888  1.00  0.00     0.210 C 
ENDBRANCH  24  26
ENDBRANCH  19  20
ENDBRANCH   1  19
TORSDOF 5
ENDMDL
MODEL 10
REMARK VINA RESULT:      -7.3     17.042     19.546
REMARK  5 active torsions:
REMARK  status: ('A' for Active; 'I' for Inactive)
REMARK    1  A    between atoms: O_2  and  C_3 
REMARK    2  A    between atoms: C_7  and  C_8 
REMARK    3  A    between atoms: C_8  and  N_9 
REMARK       I    between atoms: N_9  and  C_10 
REMARK       I    between atoms: C_10  and  N_12 
REMARK    4  A    between atoms: N_12  and  C_13 
REMARK    5  A    between atoms: C_16  and  C_19 
ROOT
HETATM    1  N   UNL     1     -36.193  42.118 -55.640  1.00  0.00    -0.339 N 
HETATM    2  C   UNL     1     -36.096  41.471 -54.424  1.00  0.00     0.320 C 
HETATM    3  O   UNL     1     -37.068  40.966 -53.879  1.00  0.00    -0.247 OA
HETATM    4  N   UNL     1     -34.795  41.457 -53.971  1.00  0.00    -0.309 N 
HETATM    5  H   UNL     1     -35.544  42.871 -55.805  1.00  0.00     0.164 HD
HETATM    6  H   UNL     1     -34.107  41.823 -54.610  1.00  0.00     0.170 HD
ENDROOT
BRANCH   4   7
HETATM    7  C   UNL     1     -34.307  40.866 -52.788  1.00  0.00     0.036 A 
HETATM    8  C   UNL     1     -33.760  39.585 -52.726  1.00  0.00     0.030 A 
HETATM    9  C   UNL     1     -33.270  39.075 -51.516  1.00  0.00     0.014 A 
HETATM   10  C   UNL     1     -33.321  39.828 -50.334  1.00  0.00    -0.026 A 
HETATM   11  C   UNL     1     -33.887  41.108 -50.402  1.00  0.00     0.014 A 
HETATM   12  C   UNL     1     -34.372  41.622 -51.612  1.00  0.00     0.030 A 
BRANCH  10  13
HETATM   13  C   UNL     1     -32.791  39.291 -49.072  1.00  0.00    -0.023 A 
HETATM   14  C   UNL     1     -31.617  39.803 -48.504  1.00  0.00     0.031 A 
HETATM   15  C   UNL     1     -31.150  39.264 -47.316  1.00  0.00     0.117 A 
HETATM   16  N   UNL     1     -31.762  38.258 -46.657  1.00  0.00    -0.273 NA
HETATM   17  C   UNL     1     -32.889  37.772 -47.214  1.00  0.00     0.117 A 
HETATM   18  C   UNL     1     -33.434  38.247 -48.397  1.00  0.00     0.031 A 
ENDBRANCH  10  13
ENDBRANCH   4   7
BRANCH   1  19
HETATM   19  C   UNL     1     -37.496  42.262 -56.254  1.00  0.00     0.163 C 
BRANCH  19  20
HETATM   20  C   UNL     1     -37.607  41.496 -57.546  1.00  0.00    -0.038 A 
HETATM   21  C   UNL     1     -37.164  42.049 -58.755  1.00  0.00     0.009 A 
HETATM   22  C   UNL     1     -37.205  41.302 -59.932  1.00  0.00     0.003 A 
HETATM   23  C   UNL     1     -37.667  39.985 -59.914  1.00  0.00     0.037 A 
HETATM   24  C   UNL     1     -38.088  39.409 -58.715  1.00  0.00     0.068 A 
HETATM   25  C   UNL     1     -38.069  40.171 -57.543  1.00  0.00     0.045 A 
BRANCH  24  26
HETATM   26  O   UNL     1     -38.541  38.128 -58.560  1.00  0.00    -0.356 OA
HETATM   27  C   UNL     1     -37.744  37.104 -59.145  1.00  0.00     0.210 C 
ENDBRANCH  24  26
ENDBRANCH  19  20
ENDBRANCH   1  19
TORSDOF 5
ENDMDL
