MODEL 1
REMARK VINA RESULT:      -7.7      0.000      0.000
REMARK  8 active torsions:
REMARK  status: ('A' for Active; 'I' for Inactive)
REMARK    1  A    between atoms: C_2  and  C_3 
REMARK    2  A    between atoms: C_3  and  O_4 
REMARK    3  A    between atoms: O_4  and  C_5 
REMARK    4  A    between atoms: C_8  and  C_9 
REMARK    5  A    between atoms: N_10  and  N_11 
REMARK       I    between atoms: N_11  and  C_12 
REMARK    6  A    between atoms: C_12  and  C_13 
REMARK    7  A    between atoms: C_17  and  C_18 
REMARK    8  A    between atoms: C_21  and  O_22 
ROOT
HETATM    1  N   UNL     1     -42.500  59.864 -54.381  1.00  0.00    -0.242 N 
HETATM    2  C   UNL     1     -41.883  59.403 -53.221  1.00  0.00     0.289 C 
HETATM    3  O   UNL     1     -41.329  60.211 -52.477  1.00  0.00    -0.264 OA
HETATM    4  H   UNL     1     -42.407  60.859 -54.556  1.00  0.00     0.192 HD
ENDROOT
BRANCH   2   5
HETATM    5  C   UNL     1     -41.913  57.983 -52.962  1.00  0.00     0.121 A 
HETATM    6  N   UNL     1     -42.944  57.327 -52.357  1.00  0.00    -0.272 N 
HETATM    7  H   UNL     1     -43.811  57.754 -52.045  1.00  0.00     0.189 HD
HETATM    8  N   UNL     1     -42.776  56.004 -52.238  1.00  0.00    -0.174 NA
HETATM    9  C   UNL     1     -41.580  55.771 -52.804  1.00  0.00     0.089 A 
HETATM   10  C   UNL     1     -40.989  56.993 -53.233  1.00  0.00     0.071 A 
BRANCH   9  11
HETATM   11  C   UNL     1     -41.058  54.409 -52.935  1.00  0.00    -0.005 A 
HETATM   12  C   UNL     1     -40.521  53.731 -51.834  1.00  0.00     0.016 A 
HETATM   13  C   UNL     1     -39.990  52.445 -51.985  1.00  0.00     0.037 A 
HETATM   14  C   UNL     1     -39.991  51.812 -53.230  1.00  0.00     0.068 A 
HETATM   15  C   UNL     1     -40.527  52.479 -54.331  1.00  0.00     0.037 A 
HETATM   16  C   UNL     1     -41.052  53.768 -54.182  1.00  0.00     0.016 A 
BRANCH  14  17
HETATM   17  O   UNL     1     -39.438  50.562 -53.237  1.00  0.00    -0.356 OA
HETATM   18  C   UNL     1     -39.576  49.809 -54.436  1.00  0.00     0.210 C 
ENDBRANCH  14  17
ENDBRANCH   9  11
ENDBRANCH   2   5
BRANCH   1  19
HETATM   19  N   UNL     1     -42.922  59.025 -55.370  1.00  0.00    -0.184 NA
HETATM   20  C   UNL     1     -42.135  58.879 -56.387  1.00  0.00     0.150 C 
BRANCH  20  21
HETATM   21  C   UNL     1     -42.485  57.935 -57.469  1.00  0.00    -0.017 A 
HETATM   22  C   UNL     1     -42.350  58.317 -58.808  1.00  0.00     0.016 A 
HETATM   23  C   UNL     1     -42.690  57.430 -59.831  1.00  0.00     0.037 A 
HETATM   24  C   UNL     1     -43.171  56.157 -59.524  1.00  0.00     0.068 A 
HETATM   25  C   UNL     1     -43.314  55.786 -58.181  1.00  0.00     0.037 A 
HETATM   26  C   UNL     1     -42.974  56.668 -57.151  1.00  0.00     0.016 A 
BRANCH  24  27
HETATM   27  O   UNL     1     -43.538  55.202 -60.432  1.00  0.00    -0.351 OA
BRANCH  27  28
HETATM   28  C   UNL     1     -44.881  54.721 -60.347  1.00  0.00     0.175 C 
BRANCH  28  29
HETATM   29  C   UNL     1     -45.792  55.712 -61.062  1.00  0.00     0.022 C 
HETATM   30  C   UNL     1     -46.845  56.280 -60.127  1.00  0.00     0.007 C 
ENDBRANCH  28  29
ENDBRANCH  27  28
ENDBRANCH  24  27
ENDBRANCH  20  21
ENDBRANCH   1  19
TORSDOF 8
ENDMDL
MODEL 2
REMARK VINA RESULT:      -7.7      1.500      7.275
REMARK  8 active torsions:
REMARK  status: ('A' for Active; 'I' for Inactive)
REMARK    1  A    between atoms: C_2  and  C_3 
REMARK    2  A    between atoms: C_3  and  O_4 
REMARK    3  A    between atoms: O_4  and  C_5 
REMARK    4  A    between atoms: C_8  and  C_9 
REMARK    5  A    between atoms: N_10  and  N_11 
REMARK       I    between atoms: N_11  and  C_12 
REMARK    6  A    between atoms: C_12  and  C_13 
REMARK    7  A    between atoms: C_17  and  C_18 
REMARK    8  A    between atoms: C_21  and  O_22 
ROOT
HETATM    1  N   UNL     1     -42.510  58.548 -50.639  1.00  0.00    -0.242 N 
HETATM    2  C   UNL     1     -43.158  59.308 -51.609  1.00  0.00     0.289 C 
HETATM    3  O   UNL     1     -44.035  60.099 -51.263  1.00  0.00    -0.264 OA
HETATM    4  H   UNL     1     -42.849  58.674 -49.691  1.00  0.00     0.192 HD
ENDROOT
BRANCH   2   5
HETATM    5  C   UNL     1     -42.773  59.110 -52.987  1.00  0.00     0.121 A 
HETATM    6  N   UNL     1     -41.666  59.652 -53.567  1.00  0.00    -0.272 N 
HETATM    7  H   UNL     1     -40.977  60.232 -53.095  1.00  0.00     0.189 HD
HETATM    8  N   UNL     1     -41.483  59.319 -54.851  1.00  0.00    -0.174 NA
HETATM    9  C   UNL     1     -42.515  58.505 -55.131  1.00  0.00     0.089 A 
HETATM   10  C   UNL     1     -43.370  58.383 -53.998  1.00  0.00     0.071 A 
BRANCH   9  11
HETATM   11  C   UNL     1     -42.639  57.864 -56.442  1.00  0.00    -0.005 A 
HETATM   12  C   UNL     1     -43.082  56.542 -56.560  1.00  0.00     0.016 A 
HETATM   13  C   UNL     1     -43.158  55.931 -57.817  1.00  0.00     0.037 A 
HETATM   14  C   UNL     1     -42.800  56.628 -58.974  1.00  0.00     0.068 A 
HETATM   15  C   UNL     1     -42.361  57.947 -58.865  1.00  0.00     0.037 A 
HETATM   16  C   UNL     1     -42.279  58.556 -57.607  1.00  0.00     0.016 A 
BRANCH  14  17
HETATM   17  O   UNL     1     -42.917  55.912 -60.133  1.00  0.00    -0.356 OA
HETATM   18  C   UNL     1     -44.148  55.231 -60.342  1.00  0.00     0.210 C 
ENDBRANCH  14  17
ENDBRANCH   9  11
ENDBRANCH   2   5
BRANCH   1  19
HETATM   19  N   UNL     1     -41.709  57.490 -50.951  1.00  0.00    -0.184 NA
HETATM   20  C   UNL     1     -42.188  56.308 -50.727  1.00  0.00     0.150 C 
BRANCH  20  21
HETATM   21  C   UNL     1     -41.412  55.107 -51.102  1.00  0.00    -0.017 A 
HETATM   22  C   UNL     1     -40.640  54.440 -50.144  1.00  0.00     0.016 A 
HETATM   23  C   UNL     1     -39.899  53.312 -50.500  1.00  0.00     0.037 A 
HETATM   24  C   UNL     1     -39.920  52.845 -51.814  1.00  0.00     0.068 A 
HETATM   25  C   UNL     1     -40.686  53.524 -52.769  1.00  0.00     0.037 A 
HETATM   26  C   UNL     1     -41.433  54.654 -52.421  1.00  0.00     0.016 A 
BRANCH  24  27
HETATM   27  O   UNL     1     -39.239  51.756 -52.284  1.00  0.00    -0.351 OA
BRANCH  27  28
HETATM   28  C   UNL     1     -39.563  50.494 -51.695  1.00  0.00     0.175 C 
BRANCH  28  29
HETATM   29  C   UNL     1     -39.592  49.443 -52.798  1.00  0.00     0.022 C 
HETATM   30  C   UNL     1     -39.924  50.057 -54.147  1.00  0.00     0.007 C 
ENDBRANCH  28  29
ENDBRANCH  27  28
ENDBRANCH  24  27
ENDBRANCH  20  21
ENDBRANCH   1  19
TORSDOF 8
ENDMDL
MODEL 3
REMARK VINA RESULT:      -7.4      1.176      1.601
REMARK  8 active torsions:
REMARK  status: ('A' for Active; 'I' for Inactive)
REMARK    1  A    between atoms: C_2  and  C_3 
REMARK    2  A    between atoms: C_3  and  O_4 
REMARK    3  A    between atoms: O_4  and  C_5 
REMARK    4  A    between atoms: C_8  and  C_9 
REMARK    5  A    between atoms: N_10  and  N_11 
REMARK       I    between atoms: N_11  and  C_12 
REMARK    6  A    between atoms: C_12  and  C_13 
REMARK    7  A    between atoms: C_17  and  C_18 
REMARK    8  A    between atoms: C_21  and  O_22 
ROOT
HETATM    1  N   UNL     1     -42.981  59.440 -52.625  1.00  0.00    -0.242 N 
HETATM    2  C   UNL     1     -42.310  58.939 -51.513  1.00  0.00     0.289 C 
HETATM    3  O   UNL     1     -41.904  59.724 -50.657  1.00  0.00    -0.264 OA
HETATM    4  H   UNL     1     -43.051  60.452 -52.672  1.00  0.00     0.192 HD
ENDROOT
BRANCH   2   5
HETATM    5  C   UNL     1     -42.110  57.512 -51.435  1.00  0.00     0.121 A 
HETATM    6  N   UNL     1     -42.779  56.681 -50.586  1.00  0.00    -0.272 N 
HETATM    7  H   UNL     1     -43.505  56.965 -49.935  1.00  0.00     0.189 HD
HETATM    8  N   UNL     1     -42.457  55.386 -50.696  1.00  0.00    -0.174 NA
HETATM    9  C   UNL     1     -41.539  55.357 -51.676  1.00  0.00     0.089 A 
HETATM   10  C   UNL     1     -41.264  56.676 -52.137  1.00  0.00     0.071 A 
BRANCH   9  11
HETATM   11  C   UNL     1     -40.978  54.089 -52.149  1.00  0.00    -0.005 A 
HETATM   12  C   UNL     1     -40.283  53.237 -51.282  1.00  0.00     0.016 A 
HETATM   13  C   UNL     1     -39.720  52.049 -51.760  1.00  0.00     0.037 A 
HETATM   14  C   UNL     1     -39.843  51.687 -53.104  1.00  0.00     0.068 A 
HETATM   15  C   UNL     1     -40.536  52.529 -53.973  1.00  0.00     0.037 A 
HETATM   16  C   UNL     1     -41.095  53.721 -53.497  1.00  0.00     0.016 A 
BRANCH  14  17
HETATM   17  O   UNL     1     -39.242  50.505 -53.436  1.00  0.00    -0.356 OA
HETATM   18  C   UNL     1     -39.783  49.804 -54.549  1.00  0.00     0.210 C 
ENDBRANCH  14  17
ENDBRANCH   9  11
ENDBRANCH   2   5
BRANCH   1  19
HETATM   19  N   UNL     1     -43.250  58.679 -53.725  1.00  0.00    -0.184 NA
HETATM   20  C   UNL     1     -42.444  58.800 -54.730  1.00  0.00     0.150 C 
BRANCH  20  21
HETATM   21  C   UNL     1     -42.624  57.960 -55.933  1.00  0.00    -0.017 A 
HETATM   22  C   UNL     1     -42.789  56.576 -55.807  1.00  0.00     0.016 A 
HETATM   23  C   UNL     1     -42.947  55.781 -56.944  1.00  0.00     0.037 A 
HETATM   24  C   UNL     1     -42.939  56.360 -58.212  1.00  0.00     0.068 A 
HETATM   25  C   UNL     1     -42.762  57.744 -58.330  1.00  0.00     0.037 A 
HETATM   26  C   UNL     1     -42.605  58.549 -57.197  1.00  0.00     0.016 A 
BRANCH  24  27
HETATM   27  O   UNL     1     -43.083  55.691 -59.396  1.00  0.00    -0.351 OA
BRANCH  27  28
HETATM   28  C   UNL     1     -44.026  56.231 -60.326  1.00  0.00     0.175 C 
BRANCH  28  29
HETATM   29  C   UNL     1     -45.317  55.428 -60.218  1.00  0.00     0.022 C 
HETATM   30  C   UNL     1     -46.524  56.332 -60.041  1.00  0.00     0.007 C 
ENDBRANCH  28  29
ENDBRANCH  27  28
ENDBRANCH  24  27
ENDBRANCH  20  21
ENDBRANCH   1  19
TORSDOF 8
ENDMDL
MODEL 4
REMARK VINA RESULT:      -6.8      1.619      7.337
REMARK  8 active torsions:
REMARK  status: ('A' for Active; 'I' for Inactive)
REMARK    1  A    between atoms: C_2  and  C_3 
REMARK    2  A    between atoms: C_3  and  O_4 
REMARK    3  A    between atoms: O_4  and  C_5 
REMARK    4  A    between atoms: C_8  and  C_9 
REMARK    5  A    between atoms: N_10  and  N_11 
REMARK       I    between atoms: N_11  and  C_12 
REMARK    6  A    between atoms: C_12  and  C_13 
REMARK    7  A    between atoms: C_17  and  C_18 
REMARK    8  A    between atoms: C_21  and  O_22 
ROOT
HETATM    1  N   UNL     1     -41.671  59.007 -52.549  1.00  0.00    -0.242 N 
HETATM    2  C   UNL     1     -42.565  59.758 -53.307  1.00  0.00     0.289 C 
HETATM    3  O   UNL     1     -43.152  60.701 -52.778  1.00  0.00    -0.264 OA
HETATM    4  H   UNL     1     -41.600  59.273 -51.572  1.00  0.00     0.192 HD
ENDROOT
BRANCH   2   5
HETATM    5  C   UNL     1     -42.769  59.373 -54.683  1.00  0.00     0.121 A 
HETATM    6  N   UNL     1     -41.912  59.660 -55.704  1.00  0.00    -0.272 N 
HETATM    7  H   UNL     1     -41.028  60.152 -55.609  1.00  0.00     0.189 HD
HETATM    8  N   UNL     1     -42.282  59.186 -56.899  1.00  0.00    -0.174 NA
HETATM    9  C   UNL     1     -43.436  58.541 -56.656  1.00  0.00     0.089 A 
HETATM   10  C   UNL     1     -43.796  58.671 -55.284  1.00  0.00     0.071 A 
BRANCH   9  11
HETATM   11  C   UNL     1     -44.135  57.815 -57.719  1.00  0.00    -0.005 A 
HETATM   12  C   UNL     1     -45.416  58.198 -58.134  1.00  0.00     0.016 A 
HETATM   13  C   UNL     1     -46.086  57.469 -59.123  1.00  0.00     0.037 A 
HETATM   14  C   UNL     1     -45.491  56.354 -59.717  1.00  0.00     0.068 A 
HETATM   15  C   UNL     1     -44.214  55.968 -59.311  1.00  0.00     0.037 A 
HETATM   16  C   UNL     1     -43.546  56.693 -58.317  1.00  0.00     0.016 A 
BRANCH  14  17
HETATM   17  O   UNL     1     -46.257  55.733 -60.664  1.00  0.00    -0.356 OA
HETATM   18  C   UNL     1     -47.409  56.434 -61.115  1.00  0.00     0.210 C 
ENDBRANCH  14  17
ENDBRANCH   9  11
ENDBRANCH   2   5
BRANCH   1  19
HETATM   19  N   UNL     1     -41.166  57.815 -52.978  1.00  0.00    -0.184 NA
HETATM   20  C   UNL     1     -41.829  56.751 -52.657  1.00  0.00     0.150 C 
BRANCH  20  21
HETATM   21  C   UNL     1     -41.388  55.426 -53.142  1.00  0.00    -0.017 A 
HETATM   22  C   UNL     1     -41.475  55.109 -54.502  1.00  0.00     0.016 A 
HETATM   23  C   UNL     1     -41.069  53.853 -54.959  1.00  0.00     0.037 A 
HETATM   24  C   UNL     1     -40.577  52.906 -54.062  1.00  0.00     0.068 A 
HETATM   25  C   UNL     1     -40.503  53.226 -52.701  1.00  0.00     0.037 A 
HETATM   26  C   UNL     1     -40.906  54.482 -52.235  1.00  0.00     0.016 A 
BRANCH  24  27
HETATM   27  O   UNL     1     -40.151  51.647 -54.385  1.00  0.00    -0.351 OA
BRANCH  27  28
HETATM   28  C   UNL     1     -39.176  51.060 -53.519  1.00  0.00     0.175 C 
BRANCH  28  29
HETATM   29  C   UNL     1     -39.670  49.677 -53.109  1.00  0.00     0.022 C 
HETATM   30  C   UNL     1     -39.752  49.538 -51.600  1.00  0.00     0.007 C 
ENDBRANCH  28  29
ENDBRANCH  27  28
ENDBRANCH  24  27
ENDBRANCH  20  21
ENDBRANCH   1  19
TORSDOF 8
ENDMDL
MODEL 5
REMARK VINA RESULT:      -6.6      2.687      7.617
REMARK  8 active torsions:
REMARK  status: ('A' for Active; 'I' for Inactive)
REMARK    1  A    between atoms: C_2  and  C_3 
REMARK    2  A    between atoms: C_3  and  O_4 
REMARK    3  A    between atoms: O_4  and  C_5 
REMARK    4  A    between atoms: C_8  and  C_9 
REMARK    5  A    between atoms: N_10  and  N_11 
REMARK       I    between atoms: N_11  and  C_12 
REMARK    6  A    between atoms: C_12  and  C_13 
REMARK    7  A    between atoms: C_17  and  C_18 
REMARK    8  A    between atoms: C_21  and  O_22 
ROOT
HETATM    1  N   UNL     1     -43.498  57.979 -50.956  1.00  0.00    -0.242 N 
HETATM    2  C   UNL     1     -43.783  59.179 -51.601  1.00  0.00     0.289 C 
HETATM    3  O   UNL     1     -44.648  59.918 -51.133  1.00  0.00    -0.264 OA
HETATM    4  H   UNL     1     -44.073  57.774 -50.145  1.00  0.00     0.192 HD
ENDROOT
BRANCH   2   5
HETATM    5  C   UNL     1     -43.052  59.485 -52.807  1.00  0.00     0.121 A 
HETATM    6  N   UNL     1     -41.704  59.678 -52.868  1.00  0.00    -0.272 N 
HETATM    7  H   UNL     1     -41.062  59.605 -52.084  1.00  0.00     0.189 HD
HETATM    8  N   UNL     1     -41.226  59.927 -54.093  1.00  0.00    -0.174 NA
HETATM    9  C   UNL     1     -42.310  59.883 -54.886  1.00  0.00     0.089 A 
HETATM   10  C   UNL     1     -43.481  59.649 -54.109  1.00  0.00     0.071 A 
BRANCH   9  11
HETATM   11  C   UNL     1     -42.194  60.042 -56.337  1.00  0.00    -0.005 A 
HETATM   12  C   UNL     1     -42.092  61.310 -56.920  1.00  0.00     0.016 A 
HETATM   13  C   UNL     1     -42.021  61.445 -58.311  1.00  0.00     0.037 A 
HETATM   14  C   UNL     1     -42.045  60.323 -59.142  1.00  0.00     0.068 A 
HETATM   15  C   UNL     1     -42.144  59.056 -58.569  1.00  0.00     0.037 A 
HETATM   16  C   UNL     1     -42.221  58.920 -57.177  1.00  0.00     0.016 A 
BRANCH  14  17
HETATM   17  O   UNL     1     -41.974  60.598 -60.479  1.00  0.00    -0.356 OA
HETATM   18  C   UNL     1     -42.994  60.045 -61.301  1.00  0.00     0.210 C 
ENDBRANCH  14  17
ENDBRANCH   9  11
ENDBRANCH   2   5
BRANCH   1  19
HETATM   19  N   UNL     1     -42.738  57.001 -51.528  1.00  0.00    -0.184 NA
HETATM   20  C   UNL     1     -43.355  55.929 -51.908  1.00  0.00     0.150 C 
BRANCH  20  21
HETATM   21  C   UNL     1     -42.616  54.851 -52.600  1.00  0.00    -0.017 A 
HETATM   22  C   UNL     1     -42.844  54.602 -53.958  1.00  0.00     0.016 A 
HETATM   23  C   UNL     1     -42.155  53.577 -54.610  1.00  0.00     0.037 A 
HETATM   24  C   UNL     1     -41.237  52.794 -53.910  1.00  0.00     0.068 A 
HETATM   25  C   UNL     1     -41.023  53.042 -52.549  1.00  0.00     0.037 A 
HETATM   26  C   UNL     1     -41.708  54.068 -51.889  1.00  0.00     0.016 A 
BRANCH  24  27
HETATM   27  O   UNL     1     -40.504  51.765 -54.434  1.00  0.00    -0.351 OA
BRANCH  27  28
HETATM   28  C   UNL     1     -39.415  51.286 -53.640  1.00  0.00     0.175 C 
BRANCH  28  29
HETATM   29  C   UNL     1     -39.571  49.779 -53.472  1.00  0.00     0.022 C 
HETATM   30  C   UNL     1     -39.626  49.381 -52.008  1.00  0.00     0.007 C 
ENDBRANCH  28  29
ENDBRANCH  27  28
ENDBRANCH  24  27
ENDBRANCH  20  21
ENDBRANCH   1  19
TORSDOF 8
ENDMDL
MODEL 6
REMARK VINA RESULT:      -6.6     15.396     16.785
REMARK  8 active torsions:
REMARK  status: ('A' for Active; 'I' for Inactive)
REMARK    1  A    between atoms: C_2  and  C_3 
REMARK    2  A    between atoms: C_3  and  O_4 
REMARK    3  A    between atoms: O_4  and  C_5 
REMARK    4  A    between atoms: C_8  and  C_9 
REMARK    5  A    between atoms: N_10  and  N_11 
REMARK       I    between atoms: N_11  and  C_12 
REMARK    6  A    between atoms: C_12  and  C_13 
REMARK    7  A    between atoms: C_17  and  C_18 
REMARK    8  A    between atoms: C_21  and  O_22 
ROOT
HETATM    1  N   UNL     1     -35.338  42.495 -54.266  1.00  0.00    -0.242 N 
HETATM    2  C   UNL     1     -35.617  42.255 -52.924  1.00  0.00     0.289 C 
HETATM    3  O   UNL     1     -35.009  42.891 -52.064  1.00  0.00    -0.264 OA
HETATM    4  H   UNL     1     -34.598  43.167 -54.443  1.00  0.00     0.192 HD
ENDROOT
BRANCH   2   5
HETATM    5  C   UNL     1     -36.605  41.249 -52.611  1.00  0.00     0.121 A 
HETATM    6  N   UNL     1     -36.361  39.908 -52.576  1.00  0.00    -0.272 N 
HETATM    7  H   UNL     1     -35.460  39.469 -52.741  1.00  0.00     0.189 HD
HETATM    8  N   UNL     1     -37.414  39.153 -52.239  1.00  0.00    -0.174 NA
HETATM    9  C   UNL     1     -38.401  40.040 -52.027  1.00  0.00     0.089 A 
HETATM   10  C   UNL     1     -37.943  41.363 -52.291  1.00  0.00     0.071 A 
BRANCH   9  11
HETATM   11  C   UNL     1     -39.722  39.606 -51.566  1.00  0.00    -0.005 A 
HETATM   12  C   UNL     1     -40.882  40.282 -51.959  1.00  0.00     0.016 A 
HETATM   13  C   UNL     1     -42.133  39.878 -51.478  1.00  0.00     0.037 A 
HETATM   14  C   UNL     1     -42.248  38.794 -50.605  1.00  0.00     0.068 A 
HETATM   15  C   UNL     1     -41.097  38.113 -50.212  1.00  0.00     0.037 A 
HETATM   16  C   UNL     1     -39.845  38.520 -50.687  1.00  0.00     0.016 A 
BRANCH  14  17
HETATM   17  O   UNL     1     -43.526  38.510 -50.210  1.00  0.00    -0.356 OA
HETATM   18  C   UNL     1     -43.672  37.704 -49.047  1.00  0.00     0.210 C 
ENDBRANCH  14  17
ENDBRANCH   9  11
ENDBRANCH   2   5
BRANCH   1  19
HETATM   19  N   UNL     1     -35.782  41.679 -55.265  1.00  0.00    -0.184 NA
HETATM   20  C   UNL     1     -36.631  42.187 -56.100  1.00  0.00     0.150 C 
BRANCH  20  21
HETATM   21  C   UNL     1     -37.108  41.393 -57.252  1.00  0.00    -0.017 A 
HETATM   22  C   UNL     1     -37.773  40.180 -57.044  1.00  0.00     0.016 A 
HETATM   23  C   UNL     1     -38.214  39.424 -58.132  1.00  0.00     0.037 A 
HETATM   24  C   UNL     1     -37.992  39.873 -59.433  1.00  0.00     0.068 A 
HETATM   25  C   UNL     1     -37.316  41.083 -59.634  1.00  0.00     0.037 A 
HETATM   26  C   UNL     1     -36.872  41.847 -58.549  1.00  0.00     0.016 A 
BRANCH  24  27
HETATM   27  O   UNL     1     -38.373  39.226 -60.577  1.00  0.00    -0.351 OA
BRANCH  27  28
HETATM   28  C   UNL     1     -39.048  37.976 -60.410  1.00  0.00     0.175 C 
BRANCH  28  29
HETATM   29  C   UNL     1     -40.311  37.996 -61.263  1.00  0.00     0.022 C 
HETATM   30  C   UNL     1     -41.452  37.256 -60.589  1.00  0.00     0.007 C 
ENDBRANCH  28  29
ENDBRANCH  27  28
ENDBRANCH  24  27
ENDBRANCH  20  21
ENDBRANCH   1  19
TORSDOF 8
ENDMDL
MODEL 7
REMARK VINA RESULT:      -6.4      2.055      7.795
REMARK  8 active torsions:
REMARK  status: ('A' for Active; 'I' for Inactive)
REMARK    1  A    between atoms: C_2  and  C_3 
REMARK    2  A    between atoms: C_3  and  O_4 
REMARK    3  A    between atoms: O_4  and  C_5 
REMARK    4  A    between atoms: C_8  and  C_9 
REMARK    5  A    between atoms: N_10  and  N_11 
REMARK       I    between atoms: N_11  and  C_12 
REMARK    6  A    between atoms: C_12  and  C_13 
REMARK    7  A    between atoms: C_17  and  C_18 
REMARK    8  A    between atoms: C_21  and  O_22 
ROOT
HETATM    1  N   UNL     1     -44.035  58.762 -51.113  1.00  0.00    -0.242 N 
HETATM    2  C   UNL     1     -44.478  59.563 -52.162  1.00  0.00     0.289 C 
HETATM    3  O   UNL     1     -45.085  60.602 -51.906  1.00  0.00    -0.264 OA
HETATM    4  H   UNL     1     -44.293  59.081 -50.185  1.00  0.00     0.192 HD
ENDROOT
BRANCH   2   5
HETATM    5  C   UNL     1     -44.211  59.116 -53.509  1.00  0.00     0.121 A 
HETATM    6  N   UNL     1     -42.968  58.872 -54.013  1.00  0.00    -0.272 N 
HETATM    7  H   UNL     1     -42.097  58.952 -53.496  1.00  0.00     0.189 HD
HETATM    8  N   UNL     1     -42.949  58.440 -55.279  1.00  0.00    -0.174 NA
HETATM    9  C   UNL     1     -44.245  58.382 -55.628  1.00  0.00     0.089 A 
HETATM   10  C   UNL     1     -45.066  58.838 -54.557  1.00  0.00     0.071 A 
BRANCH   9  11
HETATM   11  C   UNL     1     -44.654  57.881 -56.942  1.00  0.00    -0.005 A 
HETATM   12  C   UNL     1     -45.927  58.154 -57.455  1.00  0.00     0.016 A 
HETATM   13  C   UNL     1     -46.316  57.635 -58.696  1.00  0.00     0.037 A 
HETATM   14  C   UNL     1     -45.443  56.843 -59.446  1.00  0.00     0.068 A 
HETATM   15  C   UNL     1     -44.171  56.570 -58.943  1.00  0.00     0.037 A 
HETATM   16  C   UNL     1     -43.784  57.083 -57.699  1.00  0.00     0.016 A 
BRANCH  14  17
HETATM   17  O   UNL     1     -45.951  56.399 -60.635  1.00  0.00    -0.356 OA
HETATM   18  C   UNL     1     -47.330  56.648 -60.874  1.00  0.00     0.210 C 
ENDBRANCH  14  17
ENDBRANCH   9  11
ENDBRANCH   2   5
BRANCH   1  19
HETATM   19  N   UNL     1     -43.573  57.493 -51.303  1.00  0.00    -0.184 NA
HETATM   20  C   UNL     1     -42.414  57.212 -50.801  1.00  0.00     0.150 C 
BRANCH  20  21
HETATM   21  C   UNL     1     -41.872  55.840 -50.901  1.00  0.00    -0.017 A 
HETATM   22  C   UNL     1     -40.700  55.495 -50.219  1.00  0.00     0.016 A 
HETATM   23  C   UNL     1     -40.182  54.202 -50.321  1.00  0.00     0.037 A 
HETATM   24  C   UNL     1     -40.828  53.248 -51.107  1.00  0.00     0.068 A 
HETATM   25  C   UNL     1     -41.994  53.605 -51.796  1.00  0.00     0.037 A 
HETATM   26  C   UNL     1     -42.521  54.897 -51.697  1.00  0.00     0.016 A 
BRANCH  24  27
HETATM   27  O   UNL     1     -40.420  51.955 -51.288  1.00  0.00    -0.351 OA
BRANCH  27  28
HETATM   28  C   UNL     1     -39.276  51.755 -52.122  1.00  0.00     0.175 C 
BRANCH  28  29
HETATM   29  C   UNL     1     -39.754  51.590 -53.560  1.00  0.00     0.022 C 
HETATM   30  C   UNL     1     -39.798  50.129 -53.970  1.00  0.00     0.007 C 
ENDBRANCH  28  29
ENDBRANCH  27  28
ENDBRANCH  24  27
ENDBRANCH  20  21
ENDBRANCH   1  19
TORSDOF 8
ENDMDL
MODEL 8
REMARK VINA RESULT:      -6.2      2.694      8.226
REMARK  8 active torsions:
REMARK  status: ('A' for Active; 'I' for Inactive)
REMARK    1  A    between atoms: C_2  and  C_3 
REMARK    2  A    between atoms: C_3  and  O_4 
REMARK    3  A    between atoms: O_4  and  C_5 
REMARK    4  A    between atoms: C_8  and  C_9 
REMARK    5  A    between atoms: N_10  and  N_11 
REMARK       I    between atoms: N_11  and  C_12 
REMARK    6  A    between atoms: C_12  and  C_13 
REMARK    7  A    between atoms: C_17  and  C_18 
REMARK    8  A    between atoms: C_21  and  O_22 
ROOT
HETATM    1  N   UNL     1     -41.160  54.253 -51.419  1.00  0.00    -0.242 N 
HETATM    2  C   UNL     1     -40.992  53.698 -52.684  1.00  0.00     0.289 C 
HETATM    3  O   UNL     1     -40.201  52.767 -52.828  1.00  0.00    -0.264 OA
HETATM    4  H   UNL     1     -40.566  53.866 -50.693  1.00  0.00     0.192 HD
ENDROOT
BRANCH   2   5
HETATM    5  C   UNL     1     -41.752  54.264 -53.774  1.00  0.00     0.121 A 
HETATM    6  N   UNL     1     -43.114  54.314 -53.824  1.00  0.00    -0.272 N 
HETATM    7  H   UNL     1     -43.743  53.985 -53.098  1.00  0.00     0.189 HD
HETATM    8  N   UNL     1     -43.614  54.905 -54.916  1.00  0.00    -0.174 NA
HETATM    9  C   UNL     1     -42.530  55.276 -55.617  1.00  0.00     0.089 A 
HETATM   10  C   UNL     1     -41.343  54.854 -54.952  1.00  0.00     0.071 A 
BRANCH   9  11
HETATM   11  C   UNL     1     -42.657  56.029 -56.867  1.00  0.00    -0.005 A 
HETATM   12  C   UNL     1     -43.113  55.413 -58.039  1.00  0.00     0.016 A 
HETATM   13  C   UNL     1     -43.192  56.136 -59.234  1.00  0.00     0.037 A 
HETATM   14  C   UNL     1     -42.824  57.483 -59.280  1.00  0.00     0.068 A 
HETATM   15  C   UNL     1     -42.373  58.105 -58.117  1.00  0.00     0.037 A 
HETATM   16  C   UNL     1     -42.288  57.380 -56.922  1.00  0.00     0.016 A 
BRANCH  14  17
HETATM   17  O   UNL     1     -42.946  58.068 -60.511  1.00  0.00    -0.356 OA
HETATM   18  C   UNL     1     -42.190  59.252 -60.734  1.00  0.00     0.210 C 
ENDBRANCH  14  17
ENDBRANCH   9  11
ENDBRANCH   2   5
BRANCH   1  19
HETATM   19  N   UNL     1     -41.825  55.426 -51.215  1.00  0.00    -0.184 NA
HETATM   20  C   UNL     1     -41.109  56.504 -51.177  1.00  0.00     0.150 C 
BRANCH  20  21
HETATM   21  C   UNL     1     -41.758  57.824 -51.031  1.00  0.00    -0.017 A 
HETATM   22  C   UNL     1     -41.059  58.893 -50.460  1.00  0.00     0.016 A 
HETATM   23  C   UNL     1     -41.676  60.137 -50.312  1.00  0.00     0.037 A 
HETATM   24  C   UNL     1     -42.994  60.321 -50.728  1.00  0.00     0.068 A 
HETATM   25  C   UNL     1     -43.691  59.243 -51.288  1.00  0.00     0.037 A 
HETATM   26  C   UNL     1     -43.080  57.994 -51.442  1.00  0.00     0.016 A 
BRANCH  24  27
HETATM   27  O   UNL     1     -43.705  61.486 -50.636  1.00  0.00    -0.351 OA
BRANCH  27  28
HETATM   28  C   UNL     1     -44.043  61.926 -49.318  1.00  0.00     0.175 C 
BRANCH  28  29
HETATM   29  C   UNL     1     -44.166  63.445 -49.338  1.00  0.00     0.022 C 
HETATM   30  C   UNL     1     -42.878  64.105 -49.798  1.00  0.00     0.007 C 
ENDBRANCH  28  29
ENDBRANCH  27  28
ENDBRANCH  24  27
ENDBRANCH  20  21
ENDBRANCH   1  19
TORSDOF 8
ENDMDL
MODEL 9
REMARK VINA RESULT:      -6.2     15.945     18.517
REMARK  8 active torsions:
REMARK  status: ('A' for Active; 'I' for Inactive)
REMARK    1  A    between atoms: C_2  and  C_3 
REMARK    2  A    between atoms: C_3  and  O_4 
REMARK    3  A    between atoms: O_4  and  C_5 
REMARK    4  A    between atoms: C_8  and  C_9 
REMARK    5  A    between atoms: N_10  and  N_11 
REMARK       I    between atoms: N_11  and  C_12 
REMARK    6  A    between atoms: C_12  and  C_13 
REMARK    7  A    between atoms: C_17  and  C_18 
REMARK    8  A    between atoms: C_21  and  O_22 
ROOT
HETATM    1  N   UNL     1     -39.358  38.877 -50.723  1.00  0.00    -0.242 N 
HETATM    2  C   UNL     1     -38.877  38.415 -49.501  1.00  0.00     0.289 C 
HETATM    3  O   UNL     1     -39.665  38.255 -48.570  1.00  0.00    -0.264 OA
HETATM    4  H   UNL     1     -40.348  39.097 -50.744  1.00  0.00     0.192 HD
ENDROOT
BRANCH   2   5
HETATM    5  C   UNL     1     -37.460  38.162 -49.388  1.00  0.00     0.121 A 
HETATM    6  N   UNL     1     -36.829  37.057 -49.876  1.00  0.00    -0.272 N 
HETATM    7  H   UNL     1     -37.274  36.304 -50.392  1.00  0.00     0.189 HD
HETATM    8  N   UNL     1     -35.504  37.035 -49.684  1.00  0.00    -0.174 NA
HETATM    9  C   UNL     1     -35.244  38.190 -49.048  1.00  0.00     0.089 A 
HETATM   10  C   UNL     1     -36.451  38.905 -48.807  1.00  0.00     0.071 A 
BRANCH   9  11
HETATM   11  C   UNL     1     -33.871  38.577 -48.714  1.00  0.00    -0.005 A 
HETATM   12  C   UNL     1     -33.243  38.095 -47.560  1.00  0.00     0.016 A 
HETATM   13  C   UNL     1     -31.946  38.506 -47.237  1.00  0.00     0.037 A 
HETATM   14  C   UNL     1     -31.251  39.398 -48.058  1.00  0.00     0.068 A 
HETATM   15  C   UNL     1     -31.869  39.881 -49.211  1.00  0.00     0.037 A 
HETATM   16  C   UNL     1     -33.169  39.475 -49.532  1.00  0.00     0.016 A 
BRANCH  14  17
HETATM   17  O   UNL     1     -29.996  39.719 -47.622  1.00  0.00    -0.356 OA
HETATM   18  C   UNL     1     -29.888  40.224 -46.297  1.00  0.00     0.210 C 
ENDBRANCH  14  17
ENDBRANCH   9  11
ENDBRANCH   2   5
BRANCH   1  19
HETATM   19  N   UNL     1     -38.534  39.306 -51.721  1.00  0.00    -0.184 NA
HETATM   20  C   UNL     1     -38.663  40.538 -52.095  1.00  0.00     0.150 C 
BRANCH  20  21
HETATM   21  C   UNL     1     -37.761  41.102 -53.122  1.00  0.00    -0.017 A 
HETATM   22  C   UNL     1     -38.083  40.993 -54.479  1.00  0.00     0.016 A 
HETATM   23  C   UNL     1     -37.226  41.516 -55.450  1.00  0.00     0.037 A 
HETATM   24  C   UNL     1     -36.042  42.148 -55.072  1.00  0.00     0.068 A 
HETATM   25  C   UNL     1     -35.721  42.245 -53.712  1.00  0.00     0.037 A 
HETATM   26  C   UNL     1     -36.575  41.725 -52.734  1.00  0.00     0.016 A 
BRANCH  24  27
HETATM   27  O   UNL     1     -35.124  42.698 -55.924  1.00  0.00    -0.351 OA
BRANCH  27  28
HETATM   28  C   UNL     1     -34.728  41.897 -57.041  1.00  0.00     0.175 C 
BRANCH  28  29
HETATM   29  C   UNL     1     -33.731  40.853 -56.553  1.00  0.00     0.022 C 
HETATM   30  C   UNL     1     -34.194  39.444 -56.875  1.00  0.00     0.007 C 
ENDBRANCH  28  29
ENDBRANCH  27  28
ENDBRANCH  24  27
ENDBRANCH  20  21
ENDBRANCH   1  19
TORSDOF 8
ENDMDL
MODEL 10
REMARK VINA RESULT:      -6.2      3.114      8.353
REMARK  8 active torsions:
REMARK  status: ('A' for Active; 'I' for Inactive)
REMARK    1  A    between atoms: C_2  and  C_3 
REMARK    2  A    between atoms: C_3  and  O_4 
REMARK    3  A    between atoms: O_4  and  C_5 
REMARK    4  A    between atoms: C_8  and  C_9 
REMARK    5  A    between atoms: N_10  and  N_11 
REMARK       I    between atoms: N_11  and  C_12 
REMARK    6  A    between atoms: C_12  and  C_13 
REMARK    7  A    between atoms: C_17  and  C_18 
REMARK    8  A    between atoms: C_21  and  O_22 
ROOT
HETATM    1  N   UNL     1     -41.096  55.469 -53.442  1.00  0.00    -0.242 N 
HETATM    2  C   UNL     1     -40.895  55.047 -54.753  1.00  0.00     0.289 C 
HETATM    3  O   UNL     1     -40.019  54.214 -54.986  1.00  0.00    -0.264 OA
HETATM    4  H   UNL     1     -40.457  55.078 -52.757  1.00  0.00     0.192 HD
ENDROOT
BRANCH   2   5
HETATM    5  C   UNL     1     -41.722  55.631 -55.782  1.00  0.00     0.121 A 
HETATM    6  N   UNL     1     -41.737  56.955 -56.107  1.00  0.00    -0.272 N 
HETATM    7  H   UNL     1     -41.155  57.672 -55.683  1.00  0.00     0.189 HD
HETATM    8  N   UNL     1     -42.562  57.280 -57.110  1.00  0.00    -0.174 NA
HETATM    9  C   UNL     1     -43.111  56.110 -57.477  1.00  0.00     0.089 A 
HETATM   10  C   UNL     1     -42.640  55.058 -56.639  1.00  0.00     0.071 A 
BRANCH   9  11
HETATM   11  C   UNL     1     -44.036  56.030 -58.610  1.00  0.00    -0.005 A 
HETATM   12  C   UNL     1     -44.928  57.071 -58.890  1.00  0.00     0.016 A 
HETATM   13  C   UNL     1     -45.832  56.961 -59.953  1.00  0.00     0.037 A 
HETATM   14  C   UNL     1     -45.857  55.819 -60.756  1.00  0.00     0.068 A 
HETATM   15  C   UNL     1     -44.969  54.779 -60.486  1.00  0.00     0.037 A 
HETATM   16  C   UNL     1     -44.069  54.885 -59.419  1.00  0.00     0.016 A 
BRANCH  14  17
HETATM   17  O   UNL     1     -46.790  55.842 -61.755  1.00  0.00    -0.356 OA
HETATM   18  C   UNL     1     -47.890  56.727 -61.583  1.00  0.00     0.210 C 
ENDBRANCH  14  17
ENDBRANCH   9  11
ENDBRANCH   2   5
BRANCH   1  19
HETATM   19  N   UNL     1     -41.868  56.549 -53.128  1.00  0.00    -0.184 NA
HETATM   20  C   UNL     1     -43.024  56.307 -52.601  1.00  0.00     0.150 C 
BRANCH  20  21
HETATM   21  C   UNL     1     -43.892  57.422 -52.167  1.00  0.00    -0.017 A 
HETATM   22  C   UNL     1     -43.840  58.654 -52.829  1.00  0.00     0.016 A 
HETATM   23  C   UNL     1     -44.652  59.711 -52.413  1.00  0.00     0.037 A 
HETATM   24  C   UNL     1     -45.518  59.546 -51.332  1.00  0.00     0.068 A 
HETATM   25  C   UNL     1     -45.557  58.314 -50.668  1.00  0.00     0.037 A 
HETATM   26  C   UNL     1     -44.748  57.250 -51.079  1.00  0.00     0.016 A 
BRANCH  24  27
HETATM   27  O   UNL     1     -46.358  60.502 -50.831  1.00  0.00    -0.351 OA
BRANCH  27  28
HETATM   28  C   UNL     1     -45.749  61.705 -50.354  1.00  0.00     0.175 C 
BRANCH  28  29
HETATM   29  C   UNL     1     -44.892  61.360 -49.143  1.00  0.00     0.022 C 
HETATM   30  C   UNL     1     -45.458  61.958 -47.868  1.00  0.00     0.007 C 
ENDBRANCH  28  29
ENDBRANCH  27  28
ENDBRANCH  24  27
ENDBRANCH  20  21
ENDBRANCH   1  19
TORSDOF 8
ENDMDL
