MODEL 1
REMARK VINA RESULT:      -8.3      0.000      0.000
REMARK  6 active torsions:
REMARK  status: ('A' for Active; 'I' for Inactive)
REMARK    1  A    between atoms: O_2  and  C_3 
REMARK    2  A    between atoms: C_3  and  C_4 
REMARK    3  A    between atoms: C_4  and  N_5 
REMARK       I    between atoms: N_5  and  C_6 
REMARK    4  A    between atoms: C_6  and  C_7 
REMARK    5  A    between atoms: C_12  and  C_13 
REMARK    6  A    between atoms: C_22  and  C_23 
ROOT
HETATM    1  C   UNL     1     -44.400  59.305 -51.187  1.00  0.00     0.148 A 
HETATM    2  N   UNL     1     -43.532  59.481 -52.209  1.00  0.00    -0.165 NA
HETATM    3  N   UNL     1     -43.329  58.231 -52.666  1.00  0.00    -0.240 N 
HETATM    4  C   UNL     1     -44.104  57.285 -52.060  1.00  0.00     0.123 A 
HETATM    5  N   UNL     1     -44.095  55.998 -52.453  1.00  0.00    -0.366 N 
HETATM    6  C   UNL     1     -43.369  55.525 -53.624  1.00  0.00     0.118 C 
HETATM    7  C   UNL     1     -42.846  56.678 -54.501  1.00  0.00     0.066 C 
HETATM    8  C   UNL     1     -42.406  57.946 -53.744  1.00  0.00     0.221 C 
HETATM    9  C   UNL     1     -44.784  57.940 -51.068  1.00  0.00     0.088 A 
HETATM   10  H   UNL     1     -44.676  55.304 -51.986  1.00  0.00     0.161 HD
ENDROOT
BRANCH   1  11
HETATM   11  C   UNL     1     -44.877  60.412 -50.343  1.00  0.00     0.272 C 
HETATM   12  N   UNL     1     -45.377  60.013 -49.125  1.00  0.00    -0.354 N 
HETATM   13  H   UNL     1     -45.188  59.046 -48.871  1.00  0.00     0.162 HD
HETATM   14  O   UNL     1     -44.814  61.586 -50.696  1.00  0.00    -0.266 OA
BRANCH  12  15
HETATM   15  C   UNL     1     -45.671  60.975 -48.084  1.00  0.00     0.149 C 
BRANCH  15  16
HETATM   16  C   UNL     1     -45.848  60.314 -46.721  1.00  0.00     0.186 C 
BRANCH  16  17
HETATM   17  O   UNL     1     -46.594  59.103 -46.884  1.00  0.00    -0.394 OA
HETATM   18  C   UNL     1     -47.164  58.672 -45.656  1.00  0.00     0.201 C 
ENDBRANCH  16  17
ENDBRANCH  15  16
ENDBRANCH  12  15
ENDBRANCH   1  11
BRANCH   8  19
HETATM   19  C   UNL     1     -40.993  57.882 -53.214  1.00  0.00     0.409 C 
HETATM   20  F   UNL     1     -40.915  57.610 -51.899  1.00  0.00    -0.169 F 
HETATM   21  F   UNL     1     -40.299  56.909 -53.861  1.00  0.00    -0.169 F 
HETATM   22  F   UNL     1     -40.317  59.033 -53.431  1.00  0.00    -0.169 F 
ENDBRANCH   8  19
BRANCH   6  23
HETATM   23  C   UNL     1     -42.335  54.475 -53.252  1.00  0.00    -0.034 A 
HETATM   24  C   UNL     1     -41.902  54.380 -51.916  1.00  0.00     0.034 A 
HETATM   25  C   UNL     1     -40.915  53.461 -51.537  1.00  0.00     0.056 A 
HETATM   26 CL   UNL     1     -40.431  53.444 -49.878  1.00  0.00    -0.083 Cl
HETATM   27  C   UNL     1     -40.351  52.610 -52.491  1.00  0.00     0.055 A 
HETATM   28 CL   UNL     1     -39.127  51.457 -52.100  1.00  0.00    -0.083 Cl
HETATM   29  C   UNL     1     -40.776  52.686 -53.818  1.00  0.00     0.026 A 
HETATM   30  C   UNL     1     -41.753  53.614 -54.193  1.00  0.00     0.011 A 
ENDBRANCH   6  23
TORSDOF 6
ENDMDL
MODEL 2
REMARK VINA RESULT:      -7.7      4.385      6.630
REMARK  6 active torsions:
REMARK  status: ('A' for Active; 'I' for Inactive)
REMARK    1  A    between atoms: O_2  and  C_3 
REMARK    2  A    between atoms: C_3  and  C_4 
REMARK    3  A    between atoms: C_4  and  N_5 
REMARK       I    between atoms: N_5  and  C_6 
REMARK    4  A    between atoms: C_6  and  C_7 
REMARK    5  A    between atoms: C_12  and  C_13 
REMARK    6  A    between atoms: C_22  and  C_23 
ROOT
HETATM    1  C   UNL     1     -44.028  57.281 -56.519  1.00  0.00     0.148 A 
HETATM    2  N   UNL     1     -43.909  57.554 -55.199  1.00  0.00    -0.165 NA
HETATM    3  N   UNL     1     -42.862  56.801 -54.817  1.00  0.00    -0.240 N 
HETATM    4  C   UNL     1     -42.242  56.148 -55.843  1.00  0.00     0.123 A 
HETATM    5  N   UNL     1     -41.125  55.421 -55.653  1.00  0.00    -0.366 N 
HETATM    6  C   UNL     1     -40.411  55.369 -54.385  1.00  0.00     0.118 C 
HETATM    7  C   UNL     1     -40.908  56.427 -53.382  1.00  0.00     0.066 C 
HETATM    8  C   UNL     1     -42.414  56.747 -53.441  1.00  0.00     0.221 C 
HETATM    9  C   UNL     1     -42.996  56.406 -56.957  1.00  0.00     0.088 A 
HETATM   10  H   UNL     1     -40.678  54.936 -56.430  1.00  0.00     0.161 HD
ENDROOT
BRANCH   1  11
HETATM   11  C   UNL     1     -45.091  57.851 -57.361  1.00  0.00     0.272 C 
HETATM   12  N   UNL     1     -45.349  57.128 -58.504  1.00  0.00    -0.354 N 
HETATM   13  H   UNL     1     -44.925  56.205 -58.541  1.00  0.00     0.162 HD
HETATM   14  O   UNL     1     -45.701  58.871 -57.055  1.00  0.00    -0.266 OA
BRANCH  12  15
HETATM   15  C   UNL     1     -46.509  57.411 -59.322  1.00  0.00     0.149 C 
BRANCH  15  16
HETATM   16  C   UNL     1     -46.858  56.248 -60.246  1.00  0.00     0.186 C 
BRANCH  16  17
HETATM   17  O   UNL     1     -45.849  55.240 -60.130  1.00  0.00    -0.394 OA
HETATM   18  C   UNL     1     -45.105  55.105 -61.333  1.00  0.00     0.201 C 
ENDBRANCH  16  17
ENDBRANCH  15  16
ENDBRANCH  12  15
ENDBRANCH   1  11
BRANCH   8  19
HETATM   19  C   UNL     1     -43.274  55.786 -52.653  1.00  0.00     0.409 C 
HETATM   20  F   UNL     1     -42.693  55.329 -51.528  1.00  0.00    -0.169 F 
HETATM   21  F   UNL     1     -44.429  56.397 -52.281  1.00  0.00    -0.169 F 
HETATM   22  F   UNL     1     -43.637  54.710 -53.387  1.00  0.00    -0.169 F 
ENDBRANCH   8  19
BRANCH   6  23
HETATM   23  C   UNL     1     -40.338  53.950 -53.845  1.00  0.00    -0.034 A 
HETATM   24  C   UNL     1     -40.330  53.745 -52.453  1.00  0.00     0.034 A 
HETATM   25  C   UNL     1     -40.212  52.459 -51.909  1.00  0.00     0.056 A 
HETATM   26 CL   UNL     1     -40.182  52.317 -50.187  1.00  0.00    -0.083 Cl
HETATM   27  C   UNL     1     -40.113  51.351 -52.755  1.00  0.00     0.055 A 
HETATM   28 CL   UNL     1     -39.960  49.738 -52.159  1.00  0.00    -0.083 Cl
HETATM   29  C   UNL     1     -40.128  51.538 -54.137  1.00  0.00     0.026 A 
HETATM   30  C   UNL     1     -40.232  52.825 -54.674  1.00  0.00     0.011 A 
ENDBRANCH   6  23
TORSDOF 6
ENDMDL
MODEL 3
REMARK VINA RESULT:      -7.4      2.822      3.650
REMARK  6 active torsions:
REMARK  status: ('A' for Active; 'I' for Inactive)
REMARK    1  A    between atoms: O_2  and  C_3 
REMARK    2  A    between atoms: C_3  and  C_4 
REMARK    3  A    between atoms: C_4  and  N_5 
REMARK       I    between atoms: N_5  and  C_6 
REMARK    4  A    between atoms: C_6  and  C_7 
REMARK    5  A    between atoms: C_12  and  C_13 
REMARK    6  A    between atoms: C_22  and  C_23 
ROOT
HETATM    1  C   UNL     1     -44.115  58.163 -52.517  1.00  0.00     0.148 A 
HETATM    2  N   UNL     1     -44.159  57.392 -51.406  1.00  0.00    -0.165 NA
HETATM    3  N   UNL     1     -43.088  56.590 -51.540  1.00  0.00    -0.240 N 
HETATM    4  C   UNL     1     -42.306  56.882 -52.620  1.00  0.00     0.123 A 
HETATM    5  N   UNL     1     -41.148  56.238 -52.855  1.00  0.00    -0.366 N 
HETATM    6  C   UNL     1     -40.565  55.276 -51.930  1.00  0.00     0.118 C 
HETATM    7  C   UNL     1     -41.264  55.278 -50.557  1.00  0.00     0.066 C 
HETATM    8  C   UNL     1     -42.779  55.550 -50.580  1.00  0.00     0.221 C 
HETATM    9  C   UNL     1     -42.963  57.873 -53.298  1.00  0.00     0.088 A 
HETATM   10  H   UNL     1     -40.578  56.466 -53.669  1.00  0.00     0.161 HD
ENDROOT
BRANCH   1  11
HETATM   11  C   UNL     1     -45.138  59.174 -52.829  1.00  0.00     0.272 C 
HETATM   12  N   UNL     1     -45.817  59.643 -51.728  1.00  0.00    -0.354 N 
HETATM   13  H   UNL     1     -45.417  59.391 -50.827  1.00  0.00     0.162 HD
HETATM   14  O   UNL     1     -45.348  59.571 -53.972  1.00  0.00    -0.266 OA
BRANCH  12  15
HETATM   15  C   UNL     1     -46.686  60.797 -51.819  1.00  0.00     0.149 C 
BRANCH  15  16
HETATM   16  C   UNL     1     -46.013  62.067 -51.308  1.00  0.00     0.186 C 
BRANCH  16  17
HETATM   17  O   UNL     1     -45.999  62.044 -49.877  1.00  0.00    -0.394 OA
HETATM   18  C   UNL     1     -46.988  62.906 -49.332  1.00  0.00     0.201 C 
ENDBRANCH  16  17
ENDBRANCH  15  16
ENDBRANCH  12  15
ENDBRANCH   1  11
BRANCH   8  19
HETATM   19  C   UNL     1     -43.616  54.323 -50.858  1.00  0.00     0.409 C 
HETATM   20  F   UNL     1     -43.970  54.184 -52.149  1.00  0.00    -0.169 F 
HETATM   21  F   UNL     1     -42.926  53.204 -50.515  1.00  0.00    -0.169 F 
HETATM   22  F   UNL     1     -44.751  54.306 -50.123  1.00  0.00    -0.169 F 
ENDBRANCH   8  19
BRANCH   6  23
HETATM   23  C   UNL     1     -40.408  53.908 -52.574  1.00  0.00    -0.034 A 
HETATM   24  C   UNL     1     -40.031  52.813 -51.774  1.00  0.00     0.034 A 
HETATM   25  C   UNL     1     -39.826  51.544 -52.333  1.00  0.00     0.056 A 
HETATM   26 CL   UNL     1     -39.336  50.271 -51.271  1.00  0.00    -0.083 Cl
HETATM   27  C   UNL     1     -40.005  51.348 -53.704  1.00  0.00     0.055 A 
HETATM   28 CL   UNL     1     -39.765  49.816 -54.464  1.00  0.00    -0.083 Cl
HETATM   29  C   UNL     1     -40.387  52.423 -54.508  1.00  0.00     0.026 A 
HETATM   30  C   UNL     1     -40.578  53.690 -53.948  1.00  0.00     0.011 A 
ENDBRANCH   6  23
TORSDOF 6
ENDMDL
MODEL 4
REMARK VINA RESULT:      -7.2      5.345      7.570
REMARK  6 active torsions:
REMARK  status: ('A' for Active; 'I' for Inactive)
REMARK    1  A    between atoms: O_2  and  C_3 
REMARK    2  A    between atoms: C_3  and  C_4 
REMARK    3  A    between atoms: C_4  and  N_5 
REMARK       I    between atoms: N_5  and  C_6 
REMARK    4  A    between atoms: C_6  and  C_7 
REMARK    5  A    between atoms: C_12  and  C_13 
REMARK    6  A    between atoms: C_22  and  C_23 
ROOT
HETATM    1  C   UNL     1     -44.061  56.402 -58.394  1.00  0.00     0.148 A 
HETATM    2  N   UNL     1     -44.436  57.198 -57.366  1.00  0.00    -0.165 NA
HETATM    3  N   UNL     1     -43.499  56.962 -56.430  1.00  0.00    -0.240 N 
HETATM    4  C   UNL     1     -42.491  56.142 -56.847  1.00  0.00     0.123 A 
HETATM    5  N   UNL     1     -41.426  55.870 -56.070  1.00  0.00    -0.366 N 
HETATM    6  C   UNL     1     -41.189  56.515 -54.786  1.00  0.00     0.118 C 
HETATM    7  C   UNL     1     -42.125  57.714 -54.543  1.00  0.00     0.066 C 
HETATM    8  C   UNL     1     -43.546  57.577 -55.120  1.00  0.00     0.221 C 
HETATM    9  C   UNL     1     -42.842  55.729 -58.104  1.00  0.00     0.088 A 
HETATM   10  H   UNL     1     -40.684  55.252 -56.395  1.00  0.00     0.161 HD
ENDROOT
BRANCH   1  11
HETATM   11  C   UNL     1     -44.833  56.291 -59.642  1.00  0.00     0.272 C 
HETATM   12  N   UNL     1     -46.198  56.296 -59.459  1.00  0.00    -0.354 N 
HETATM   13  H   UNL     1     -46.513  56.564 -58.529  1.00  0.00     0.162 HD
HETATM   14  O   UNL     1     -44.300  56.219 -60.745  1.00  0.00    -0.266 OA
BRANCH  12  15
HETATM   15  C   UNL     1     -47.103  56.429 -60.580  1.00  0.00     0.149 C 
BRANCH  15  16
HETATM   16  C   UNL     1     -47.442  57.886 -60.877  1.00  0.00     0.186 C 
BRANCH  16  17
HETATM   17  O   UNL     1     -48.072  57.967 -62.160  1.00  0.00    -0.394 OA
HETATM   18  C   UNL     1     -48.781  56.776 -62.470  1.00  0.00     0.201 C 
ENDBRANCH  16  17
ENDBRANCH  15  16
ENDBRANCH  12  15
ENDBRANCH   1  11
BRANCH   8  19
HETATM   19  C   UNL     1     -44.499  56.820 -54.225  1.00  0.00     0.409 C 
HETATM   20  F   UNL     1     -45.798  57.034 -54.505  1.00  0.00    -0.169 F 
HETATM   21  F   UNL     1     -44.284  55.484 -54.345  1.00  0.00    -0.169 F 
HETATM   22  F   UNL     1     -44.312  57.116 -52.919  1.00  0.00    -0.169 F 
ENDBRANCH   8  19
BRANCH   6  23
HETATM   23  C   UNL     1     -41.131  55.500 -53.655  1.00  0.00    -0.034 A 
HETATM   24  C   UNL     1     -41.272  55.944 -52.327  1.00  0.00     0.034 A 
HETATM   25  C   UNL     1     -41.175  55.053 -51.250  1.00  0.00     0.056 A 
HETATM   26 CL   UNL     1     -41.332  55.702 -49.656  1.00  0.00    -0.083 Cl
HETATM   27  C   UNL     1     -40.947  53.695 -51.487  1.00  0.00     0.055 A 
HETATM   28 CL   UNL     1     -40.811  52.538 -50.212  1.00  0.00    -0.083 Cl
HETATM   29  C   UNL     1     -40.814  53.239 -52.799  1.00  0.00     0.026 A 
HETATM   30  C   UNL     1     -40.898  54.135 -53.869  1.00  0.00     0.011 A 
ENDBRANCH   6  23
TORSDOF 6
ENDMDL
MODEL 5
REMARK VINA RESULT:      -7.1      4.968      7.912
REMARK  6 active torsions:
REMARK  status: ('A' for Active; 'I' for Inactive)
REMARK    1  A    between atoms: O_2  and  C_3 
REMARK    2  A    between atoms: C_3  and  C_4 
REMARK    3  A    between atoms: C_4  and  N_5 
REMARK       I    between atoms: N_5  and  C_6 
REMARK    4  A    between atoms: C_6  and  C_7 
REMARK    5  A    between atoms: C_12  and  C_13 
REMARK    6  A    between atoms: C_22  and  C_23 
ROOT
HETATM    1  C   UNL     1     -41.540  54.409 -52.429  1.00  0.00     0.148 A 
HETATM    2  N   UNL     1     -41.062  55.631 -52.097  1.00  0.00    -0.165 NA
HETATM    3  N   UNL     1     -42.088  56.455 -52.378  1.00  0.00    -0.240 N 
HETATM    4  C   UNL     1     -43.227  55.811 -52.767  1.00  0.00     0.123 A 
HETATM    5  N   UNL     1     -44.375  56.474 -53.001  1.00  0.00    -0.366 N 
HETATM    6  C   UNL     1     -44.543  57.897 -52.741  1.00  0.00     0.118 C 
HETATM    7  C   UNL     1     -43.376  58.493 -51.932  1.00  0.00     0.066 C 
HETATM    8  C   UNL     1     -41.988  57.891 -52.220  1.00  0.00     0.221 C 
HETATM    9  C   UNL     1     -42.897  54.485 -52.849  1.00  0.00     0.088 A 
HETATM   10  H   UNL     1     -45.215  55.979 -53.296  1.00  0.00     0.161 HD
ENDROOT
BRANCH   1  11
HETATM   11  C   UNL     1     -40.733  53.183 -52.335  1.00  0.00     0.272 C 
HETATM   12  N   UNL     1     -40.410  52.630 -53.554  1.00  0.00    -0.354 N 
HETATM   13  H   UNL     1     -40.594  53.218 -54.363  1.00  0.00     0.162 HD
HETATM   14  O   UNL     1     -40.369  52.711 -51.262  1.00  0.00    -0.266 OA
BRANCH  12  15
HETATM   15  C   UNL     1     -39.436  51.564 -53.658  1.00  0.00     0.149 C 
BRANCH  15  16
HETATM   16  C   UNL     1     -40.055  50.266 -54.166  1.00  0.00     0.186 C 
BRANCH  16  17
HETATM   17  O   UNL     1     -39.514  49.168 -53.424  1.00  0.00    -0.394 OA
HETATM   18  C   UNL     1     -39.608  49.389 -52.024  1.00  0.00     0.201 C 
ENDBRANCH  16  17
ENDBRANCH  15  16
ENDBRANCH  12  15
ENDBRANCH   1  11
BRANCH   8  19
HETATM   19  C   UNL     1     -41.295  58.497 -53.418  1.00  0.00     0.409 C 
HETATM   20  F   UNL     1     -41.510  57.832 -54.568  1.00  0.00    -0.169 F 
HETATM   21  F   UNL     1     -41.731  59.770 -53.609  1.00  0.00    -0.169 F 
HETATM   22  F   UNL     1     -39.957  58.580 -53.242  1.00  0.00    -0.169 F 
ENDBRANCH   8  19
BRANCH   6  23
HETATM   23  C   UNL     1     -44.906  58.656 -54.008  1.00  0.00    -0.034 A 
HETATM   24  C   UNL     1     -44.868  57.985 -55.244  1.00  0.00     0.034 A 
HETATM   25  C   UNL     1     -45.146  58.657 -56.443  1.00  0.00     0.056 A 
HETATM   26 CL   UNL     1     -45.043  57.751 -57.911  1.00  0.00    -0.083 Cl
HETATM   27  C   UNL     1     -45.479  60.013 -56.421  1.00  0.00     0.055 A 
HETATM   28 CL   UNL     1     -45.828  60.908 -57.856  1.00  0.00    -0.083 Cl
HETATM   29  C   UNL     1     -45.529  60.690 -55.201  1.00  0.00     0.026 A 
HETATM   30  C   UNL     1     -45.238  60.018 -54.010  1.00  0.00     0.011 A 
ENDBRANCH   6  23
TORSDOF 6
ENDMDL
MODEL 6
REMARK VINA RESULT:      -7.0      2.022      2.769
REMARK  6 active torsions:
REMARK  status: ('A' for Active; 'I' for Inactive)
REMARK    1  A    between atoms: O_2  and  C_3 
REMARK    2  A    between atoms: C_3  and  C_4 
REMARK    3  A    between atoms: C_4  and  N_5 
REMARK       I    between atoms: N_5  and  C_6 
REMARK    4  A    between atoms: C_6  and  C_7 
REMARK    5  A    between atoms: C_12  and  C_13 
REMARK    6  A    between atoms: C_22  and  C_23 
ROOT
HETATM    1  C   UNL     1     -45.043  59.784 -50.693  1.00  0.00     0.148 A 
HETATM    2  N   UNL     1     -43.973  60.054 -51.475  1.00  0.00    -0.165 NA
HETATM    3  N   UNL     1     -43.658  58.856 -51.999  1.00  0.00    -0.240 N 
HETATM    4  C   UNL     1     -44.535  57.861 -51.678  1.00  0.00     0.123 A 
HETATM    5  N   UNL     1     -44.422  56.620 -52.187  1.00  0.00    -0.366 N 
HETATM    6  C   UNL     1     -43.450  56.262 -53.210  1.00  0.00     0.118 C 
HETATM    7  C   UNL     1     -42.761  57.492 -53.829  1.00  0.00     0.066 C 
HETATM    8  C   UNL     1     -42.516  58.672 -52.871  1.00  0.00     0.221 C 
HETATM    9  C   UNL     1     -45.426  58.418 -50.800  1.00  0.00     0.088 A 
HETATM   10  H   UNL     1     -45.083  55.887 -51.933  1.00  0.00     0.161 HD
ENDROOT
BRANCH   1  11
HETATM   11  C   UNL     1     -45.709  60.804 -49.868  1.00  0.00     0.272 C 
HETATM   12  N   UNL     1     -46.115  61.916 -50.571  1.00  0.00    -0.354 N 
HETATM   13  H   UNL     1     -46.086  61.827 -51.584  1.00  0.00     0.162 HD
HETATM   14  O   UNL     1     -45.897  60.661 -48.663  1.00  0.00    -0.266 OA
BRANCH  12  15
HETATM   15  C   UNL     1     -46.985  62.905 -49.971  1.00  0.00     0.149 C 
BRANCH  15  16
HETATM   16  C   UNL     1     -47.598  63.839 -51.009  1.00  0.00     0.186 C 
BRANCH  16  17
HETATM   17  O   UNL     1     -48.906  64.225 -50.576  1.00  0.00    -0.394 OA
HETATM   18  C   UNL     1     -49.046  64.103 -49.167  1.00  0.00     0.201 C 
ENDBRANCH  16  17
ENDBRANCH  15  16
ENDBRANCH  12  15
ENDBRANCH   1  11
BRANCH   8  19
HETATM   19  C   UNL     1     -41.254  58.542 -52.051  1.00  0.00     0.409 C 
HETATM   20  F   UNL     1     -41.449  58.014 -50.828  1.00  0.00    -0.169 F 
HETATM   21  F   UNL     1     -40.367  57.736 -52.692  1.00  0.00    -0.169 F 
HETATM   22  F   UNL     1     -40.631  59.731 -51.885  1.00  0.00    -0.169 F 
ENDBRANCH   8  19
BRANCH   6  23
HETATM   23  C   UNL     1     -42.510  55.169 -52.728  1.00  0.00    -0.034 A 
HETATM   24  C   UNL     1     -41.830  54.380 -53.675  1.00  0.00     0.034 A 
HETATM   25  C   UNL     1     -40.993  53.330 -53.277  1.00  0.00     0.056 A 
HETATM   26 CL   UNL     1     -40.228  52.402 -54.518  1.00  0.00    -0.083 Cl
HETATM   27  C   UNL     1     -40.812  53.058 -51.919  1.00  0.00     0.055 A 
HETATM   28 CL   UNL     1     -39.801  51.777 -51.353  1.00  0.00    -0.083 Cl
HETATM   29  C   UNL     1     -41.472  53.837 -50.968  1.00  0.00     0.026 A 
HETATM   30  C   UNL     1     -42.317  54.875 -51.370  1.00  0.00     0.011 A 
ENDBRANCH   6  23
TORSDOF 6
ENDMDL
MODEL 7
REMARK VINA RESULT:      -6.9      4.430      5.863
REMARK  6 active torsions:
REMARK  status: ('A' for Active; 'I' for Inactive)
REMARK    1  A    between atoms: O_2  and  C_3 
REMARK    2  A    between atoms: C_3  and  C_4 
REMARK    3  A    between atoms: C_4  and  N_5 
REMARK       I    between atoms: N_5  and  C_6 
REMARK    4  A    between atoms: C_6  and  C_7 
REMARK    5  A    between atoms: C_12  and  C_13 
REMARK    6  A    between atoms: C_22  and  C_23 
ROOT
HETATM    1  C   UNL     1     -43.985  56.902 -57.044  1.00  0.00     0.148 A 
HETATM    2  N   UNL     1     -43.913  57.355 -55.771  1.00  0.00    -0.165 NA
HETATM    3  N   UNL     1     -42.868  56.681 -55.258  1.00  0.00    -0.240 N 
HETATM    4  C   UNL     1     -42.207  55.905 -56.166  1.00  0.00     0.123 A 
HETATM    5  N   UNL     1     -41.086  55.232 -55.845  1.00  0.00    -0.366 N 
HETATM    6  C   UNL     1     -40.413  55.367 -54.561  1.00  0.00     0.118 C 
HETATM    7  C   UNL     1     -40.957  56.542 -53.727  1.00  0.00     0.066 C 
HETATM    8  C   UNL     1     -42.465  56.823 -53.874  1.00  0.00     0.221 C 
HETATM    9  C   UNL     1     -42.927  55.994 -57.327  1.00  0.00     0.088 A 
HETATM   10  H   UNL     1     -40.607  54.654 -56.534  1.00  0.00     0.161 HD
ENDROOT
BRANCH   1  11
HETATM   11  C   UNL     1     -45.029  57.332 -57.988  1.00  0.00     0.272 C 
HETATM   12  N   UNL     1     -46.148  57.858 -57.384  1.00  0.00    -0.354 N 
HETATM   13  H   UNL     1     -46.054  58.065 -56.392  1.00  0.00     0.162 HD
HETATM   14  O   UNL     1     -44.897  57.242 -59.205  1.00  0.00    -0.266 OA
BRANCH  12  15
HETATM   15  C   UNL     1     -47.165  58.539 -58.156  1.00  0.00     0.149 C 
BRANCH  15  16
HETATM   16  C   UNL     1     -46.910  60.040 -58.248  1.00  0.00     0.186 C 
BRANCH  16  17
HETATM   17  O   UNL     1     -46.208  60.467 -57.076  1.00  0.00    -0.394 OA
HETATM   18  C   UNL     1     -46.795  61.630 -56.510  1.00  0.00     0.201 C 
ENDBRANCH  16  17
ENDBRANCH  15  16
ENDBRANCH  12  15
ENDBRANCH   1  11
BRANCH   8  19
HETATM   19  C   UNL     1     -43.336  55.963 -52.989  1.00  0.00     0.409 C 
HETATM   20  F   UNL     1     -42.822  55.743 -51.764  1.00  0.00    -0.169 F 
HETATM   21  F   UNL     1     -44.544  56.558 -52.809  1.00  0.00    -0.169 F 
HETATM   22  F   UNL     1     -43.589  54.756 -53.544  1.00  0.00    -0.169 F 
ENDBRANCH   8  19
BRANCH   6  23
HETATM   23  C   UNL     1     -40.336  54.036 -53.829  1.00  0.00    -0.034 A 
HETATM   24  C   UNL     1     -40.419  54.020 -52.424  1.00  0.00     0.034 A 
HETATM   25  C   UNL     1     -40.303  52.823 -51.705  1.00  0.00     0.056 A 
HETATM   26 CL   UNL     1     -40.389  52.913 -49.981  1.00  0.00    -0.083 Cl
HETATM   27  C   UNL     1     -40.113  51.616 -52.384  1.00  0.00     0.055 A 
HETATM   28 CL   UNL     1     -39.956  50.104 -51.566  1.00  0.00    -0.083 Cl
HETATM   29  C   UNL     1     -40.038  51.616 -53.777  1.00  0.00     0.026 A 
HETATM   30  C   UNL     1     -40.141  52.815 -54.490  1.00  0.00     0.011 A 
ENDBRANCH   6  23
TORSDOF 6
ENDMDL
MODEL 8
REMARK VINA RESULT:      -6.9      3.814      5.825
REMARK  6 active torsions:
REMARK  status: ('A' for Active; 'I' for Inactive)
REMARK    1  A    between atoms: O_2  and  C_3 
REMARK    2  A    between atoms: C_3  and  C_4 
REMARK    3  A    between atoms: C_4  and  N_5 
REMARK       I    between atoms: N_5  and  C_6 
REMARK    4  A    between atoms: C_6  and  C_7 
REMARK    5  A    between atoms: C_12  and  C_13 
REMARK    6  A    between atoms: C_22  and  C_23 
ROOT
HETATM    1  C   UNL     1     -42.292  59.488 -54.122  1.00  0.00     0.148 A 
HETATM    2  N   UNL     1     -43.348  58.709 -53.794  1.00  0.00    -0.165 NA
HETATM    3  N   UNL     1     -42.776  57.614 -53.260  1.00  0.00    -0.240 N 
HETATM    4  C   UNL     1     -41.420  57.702 -53.132  1.00  0.00     0.123 A 
HETATM    5  N   UNL     1     -40.697  56.735 -52.538  1.00  0.00    -0.366 N 
HETATM    6  C   UNL     1     -41.294  55.586 -51.872  1.00  0.00     0.118 C 
HETATM    7  C   UNL     1     -42.816  55.732 -51.688  1.00  0.00     0.066 C 
HETATM    8  C   UNL     1     -43.555  56.477 -52.816  1.00  0.00     0.221 C 
HETATM    9  C   UNL     1     -41.067  58.889 -53.717  1.00  0.00     0.088 A 
HETATM   10  H   UNL     1     -39.684  56.814 -52.455  1.00  0.00     0.161 HD
ENDROOT
BRANCH   1  11
HETATM   11  C   UNL     1     -42.436  60.789 -54.793  1.00  0.00     0.272 C 
HETATM   12  N   UNL     1     -42.068  60.779 -56.119  1.00  0.00    -0.354 N 
HETATM   13  H   UNL     1     -41.927  59.858 -56.527  1.00  0.00     0.162 HD
HETATM   14  O   UNL     1     -42.863  61.786 -54.218  1.00  0.00    -0.266 OA
BRANCH  12  15
HETATM   15  C   UNL     1     -42.362  61.901 -56.986  1.00  0.00     0.149 C 
BRANCH  15  16
HETATM   16  C   UNL     1     -41.429  61.956 -58.192  1.00  0.00     0.186 C 
BRANCH  16  17
HETATM   17  O   UNL     1     -42.177  61.652 -59.374  1.00  0.00    -0.394 OA
HETATM   18  C   UNL     1     -42.030  60.290 -59.749  1.00  0.00     0.201 C 
ENDBRANCH  16  17
ENDBRANCH  15  16
ENDBRANCH  12  15
ENDBRANCH   1  11
BRANCH   8  19
HETATM   19  C   UNL     1     -43.914  55.602 -53.994  1.00  0.00     0.409 C 
HETATM   20  F   UNL     1     -43.979  54.290 -53.700  1.00  0.00    -0.169 F 
HETATM   21  F   UNL     1     -45.131  55.958 -54.482  1.00  0.00    -0.169 F 
HETATM   22  F   UNL     1     -43.041  55.745 -55.017  1.00  0.00    -0.169 F 
ENDBRANCH   8  19
BRANCH   6  23
HETATM   23  C   UNL     1     -40.841  54.279 -52.503  1.00  0.00    -0.034 A 
HETATM   24  C   UNL     1     -40.524  53.189 -51.671  1.00  0.00     0.034 A 
HETATM   25  C   UNL     1     -40.055  51.981 -52.205  1.00  0.00     0.056 A 
HETATM   26 CL   UNL     1     -39.664  50.713 -51.097  1.00  0.00    -0.083 Cl
HETATM   27  C   UNL     1     -39.907  51.840 -53.587  1.00  0.00     0.055 A 
HETATM   28 CL   UNL     1     -39.330  50.386 -54.317  1.00  0.00    -0.083 Cl
HETATM   29  C   UNL     1     -40.227  52.909 -54.425  1.00  0.00     0.026 A 
HETATM   30  C   UNL     1     -40.681  54.117 -53.886  1.00  0.00     0.011 A 
ENDBRANCH   6  23
TORSDOF 6
ENDMDL
MODEL 9
REMARK VINA RESULT:      -6.8      4.479      7.354
REMARK  6 active torsions:
REMARK  status: ('A' for Active; 'I' for Inactive)
REMARK    1  A    between atoms: O_2  and  C_3 
REMARK    2  A    between atoms: C_3  and  C_4 
REMARK    3  A    between atoms: C_4  and  N_5 
REMARK       I    between atoms: N_5  and  C_6 
REMARK    4  A    between atoms: C_6  and  C_7 
REMARK    5  A    between atoms: C_12  and  C_13 
REMARK    6  A    between atoms: C_22  and  C_23 
ROOT
HETATM    1  C   UNL     1     -41.695  54.618 -51.350  1.00  0.00     0.148 A 
HETATM    2  N   UNL     1     -41.258  55.899 -51.349  1.00  0.00    -0.165 NA
HETATM    3  N   UNL     1     -42.162  56.539 -52.111  1.00  0.00    -0.240 N 
HETATM    4  C   UNL     1     -43.209  55.757 -52.507  1.00  0.00     0.123 A 
HETATM    5  N   UNL     1     -44.248  56.257 -53.201  1.00  0.00    -0.366 N 
HETATM    6  C   UNL     1     -44.416  57.676 -53.478  1.00  0.00     0.118 C 
HETATM    7  C   UNL     1     -43.438  58.555 -52.676  1.00  0.00     0.066 C 
HETATM    8  C   UNL     1     -42.045  57.947 -52.426  1.00  0.00     0.221 C 
HETATM    9  C   UNL     1     -42.920  54.495 -52.063  1.00  0.00     0.088 A 
HETATM   10  H   UNL     1     -45.020  55.658 -53.493  1.00  0.00     0.161 HD
ENDROOT
BRANCH   1  11
HETATM   11  C   UNL     1     -40.978  53.528 -50.672  1.00  0.00     0.272 C 
HETATM   12  N   UNL     1     -40.611  52.495 -51.505  1.00  0.00    -0.354 N 
HETATM   13  H   UNL     1     -40.703  52.683 -52.500  1.00  0.00     0.162 HD
HETATM   14  O   UNL     1     -40.717  53.553 -49.472  1.00  0.00    -0.266 OA
BRANCH  12  15
HETATM   15  C   UNL     1     -39.704  51.459 -51.059  1.00  0.00     0.149 C 
BRANCH  15  16
HETATM   16  C   UNL     1     -39.504  50.375 -52.113  1.00  0.00     0.186 C 
BRANCH  16  17
HETATM   17  O   UNL     1     -39.576  50.970 -53.413  1.00  0.00    -0.394 OA
HETATM   18  C   UNL     1     -39.898  50.009 -54.409  1.00  0.00     0.201 C 
ENDBRANCH  16  17
ENDBRANCH  15  16
ENDBRANCH  12  15
ENDBRANCH   1  11
BRANCH   8  19
HETATM   19  C   UNL     1     -41.078  58.145 -53.570  1.00  0.00     0.409 C 
HETATM   20  F   UNL     1     -41.445  59.108 -54.436  1.00  0.00    -0.169 F 
HETATM   21  F   UNL     1     -39.856  58.491 -53.089  1.00  0.00    -0.169 F 
HETATM   22  F   UNL     1     -40.894  57.009 -54.281  1.00  0.00    -0.169 F 
ENDBRANCH   8  19
BRANCH   6  23
HETATM   23  C   UNL     1     -44.456  57.952 -54.973  1.00  0.00    -0.034 A 
HETATM   24  C   UNL     1     -43.840  57.044 -55.854  1.00  0.00     0.034 A 
HETATM   25  C   UNL     1     -43.808  57.282 -57.235  1.00  0.00     0.056 A 
HETATM   26 CL   UNL     1     -43.001  56.122 -58.229  1.00  0.00    -0.083 Cl
HETATM   27  C   UNL     1     -44.405  58.432 -57.759  1.00  0.00     0.055 A 
HETATM   28 CL   UNL     1     -44.402  58.795 -59.446  1.00  0.00    -0.083 Cl
HETATM   29  C   UNL     1     -45.028  59.336 -56.898  1.00  0.00     0.026 A 
HETATM   30  C   UNL     1     -45.045  59.101 -55.519  1.00  0.00     0.011 A 
ENDBRANCH   6  23
TORSDOF 6
ENDMDL
MODEL 10
REMARK VINA RESULT:      -6.7      4.697      7.473
REMARK  6 active torsions:
REMARK  status: ('A' for Active; 'I' for Inactive)
REMARK    1  A    between atoms: O_2  and  C_3 
REMARK    2  A    between atoms: C_3  and  C_4 
REMARK    3  A    between atoms: C_4  and  N_5 
REMARK       I    between atoms: N_5  and  C_6 
REMARK    4  A    between atoms: C_6  and  C_7 
REMARK    5  A    between atoms: C_12  and  C_13 
REMARK    6  A    between atoms: C_22  and  C_23 
ROOT
HETATM    1  C   UNL     1     -42.286  54.971 -52.310  1.00  0.00     0.148 A 
HETATM    2  N   UNL     1     -42.315  56.300 -52.057  1.00  0.00    -0.165 NA
HETATM    3  N   UNL     1     -42.966  56.806 -53.121  1.00  0.00    -0.240 N 
HETATM    4  C   UNL     1     -43.445  55.861 -53.980  1.00  0.00     0.123 A 
HETATM    5  N   UNL     1     -44.196  56.186 -55.050  1.00  0.00    -0.366 N 
HETATM    6  C   UNL     1     -44.667  57.538 -55.314  1.00  0.00     0.118 C 
HETATM    7  C   UNL     1     -44.447  58.486 -54.119  1.00  0.00     0.066 C 
HETATM    8  C   UNL     1     -43.175  58.229 -53.290  1.00  0.00     0.221 C 
HETATM    9  C   UNL     1     -42.990  54.660 -53.506  1.00  0.00     0.088 A 
HETATM   10  H   UNL     1     -44.542  55.468 -55.684  1.00  0.00     0.161 HD
ENDROOT
BRANCH   1  11
HETATM   11  C   UNL     1     -41.618  54.003 -51.425  1.00  0.00     0.272 C 
HETATM   12  N   UNL     1     -40.767  53.142 -52.078  1.00  0.00    -0.354 N 
HETATM   13  H   UNL     1     -40.552  53.387 -53.042  1.00  0.00     0.162 HD
HETATM   14  O   UNL     1     -41.797  53.985 -50.210  1.00  0.00    -0.266 OA
BRANCH  12  15
HETATM   15  C   UNL     1     -39.859  52.286 -51.344  1.00  0.00     0.149 C 
BRANCH  15  16
HETATM   16  C   UNL     1     -39.498  51.026 -52.124  1.00  0.00     0.186 C 
BRANCH  16  17
HETATM   17  O   UNL     1     -39.553  51.312 -53.525  1.00  0.00    -0.394 OA
HETATM   18  C   UNL     1     -39.919  50.164 -54.277  1.00  0.00     0.201 C 
ENDBRANCH  16  17
ENDBRANCH  15  16
ENDBRANCH  12  15
ENDBRANCH   1  11
BRANCH   8  19
HETATM   19  C   UNL     1     -41.933  58.872 -53.860  1.00  0.00     0.409 C 
HETATM   20  F   UNL     1     -41.374  58.180 -54.871  1.00  0.00    -0.169 F 
HETATM   21  F   UNL     1     -42.230  60.107 -54.343  1.00  0.00    -0.169 F 
HETATM   22  F   UNL     1     -40.978  59.056 -52.919  1.00  0.00    -0.169 F 
ENDBRANCH   8  19
BRANCH   6  23
HETATM   23  C   UNL     1     -44.159  58.054 -56.651  1.00  0.00    -0.034 A 
HETATM   24  C   UNL     1     -43.609  57.145 -57.573  1.00  0.00     0.034 A 
HETATM   25  C   UNL     1     -43.083  57.581 -58.796  1.00  0.00     0.056 A 
HETATM   26 CL   UNL     1     -42.403  56.389 -59.847  1.00  0.00    -0.083 Cl
HETATM   27  C   UNL     1     -43.110  58.939 -59.122  1.00  0.00     0.055 A 
HETATM   28 CL   UNL     1     -42.476  59.552 -60.607  1.00  0.00    -0.083 Cl
HETATM   29  C   UNL     1     -43.660  59.852 -58.222  1.00  0.00     0.026 A 
HETATM   30  C   UNL     1     -44.172  59.413 -56.997  1.00  0.00     0.011 A 
ENDBRANCH   6  23
TORSDOF 6
ENDMDL
