MODEL 1
REMARK VINA RESULT:      -9.2      0.000      0.000
REMARK  6 active torsions:
REMARK  status: ('A' for Active; 'I' for Inactive)
REMARK    1  A    between atoms: C_3  and  C_4 
REMARK    2  A    between atoms: C_4  and  N_5 
REMARK    3  A    between atoms: C_4  and  C_9 
REMARK       I    between atoms: N_5  and  C_6 
REMARK       I    between atoms: C_6  and  N_7 
REMARK    4  A    between atoms: C_9  and  C_10 
REMARK       I    between atoms: C_10  and  N_11 
REMARK    5  A    between atoms: N_11  and  N_12 
REMARK       I    between atoms: N_12  and  C_13 
REMARK    6  A    between atoms: C_13  and  C_14 
ROOT
HETATM    1  C   UNL     1     -42.082  55.753 -54.686  1.00  0.00     0.238 C 
HETATM    2  N   UNL     1     -41.663  55.569 -55.988  1.00  0.00    -0.267 N 
HETATM    3  O   UNL     1     -43.259  55.971 -54.397  1.00  0.00    -0.272 OA
HETATM    4  H   UNL     1     -40.740  55.204 -56.226  1.00  0.00     0.190 HD
ENDROOT
BRANCH   1   5
HETATM    5  C   UNL     1     -40.952  55.722 -53.683  1.00  0.00     0.134 C 
BRANCH   5   6
HETATM    6  C   UNL     1     -41.238  54.733 -52.539  1.00  0.00     0.129 C 
BRANCH   6   7
HETATM    7  C   UNL     1     -40.659  53.343 -52.793  1.00  0.00    -0.013 A 
HETATM    8  C   UNL     1     -40.740  52.768 -54.076  1.00  0.00     0.011 A 
HETATM    9  C   UNL     1     -40.219  51.499 -54.343  1.00  0.00     0.001 A 
HETATM   10  C   UNL     1     -39.604  50.773 -53.332  1.00  0.00     0.002 A 
HETATM   11  C   UNL     1     -39.518  51.313 -52.051  1.00  0.00     0.024 A 
HETATM   12  C   UNL     1     -40.044  52.583 -51.779  1.00  0.00     0.042 A 
HETATM   13 CL   UNL     1     -39.892  53.146 -50.149  1.00  0.00    -0.084 Cl
ENDBRANCH   6   7
BRANCH   6  14
HETATM   14  N   UNL     1     -42.643  54.657 -52.133  1.00  0.00    -0.339 N 
HETATM   15  C   UNL     1     -43.112  54.938 -50.890  1.00  0.00     0.292 C 
HETATM   16  N   UNL     1     -44.449  54.724 -50.791  1.00  0.00    -0.254 NA
HETATM   17  O   UNL     1     -42.459  55.321 -49.931  1.00  0.00    -0.254 OA
HETATM   18  H   UNL     1     -45.001  54.964 -51.602  1.00  0.00     0.128 HD
HETATM   19  H   UNL     1     -44.838  55.033 -49.909  1.00  0.00     0.128 HD
HETATM   20  H   UNL     1     -43.183  53.953 -52.618  1.00  0.00     0.164 HD
ENDBRANCH   6  14
ENDBRANCH   5   6
ENDBRANCH   1   5
BRANCH   2  21
HETATM   21  N   UNL     1     -42.645  55.438 -56.972  1.00  0.00    -0.263 N 
HETATM   22  C   UNL     1     -42.908  56.517 -57.787  1.00  0.00     0.270 C 
HETATM   23  O   UNL     1     -42.326  57.593 -57.672  1.00  0.00    -0.266 OA
HETATM   24  H   UNL     1     -43.166  54.563 -56.973  1.00  0.00     0.190 HD
BRANCH  22  25
HETATM   25  C   UNL     1     -43.964  56.330 -58.818  1.00  0.00     0.036 A 
HETATM   26  C   UNL     1     -45.051  57.208 -58.934  1.00  0.00     0.057 A 
HETATM   27  C   UNL     1     -45.981  56.946 -59.919  1.00  0.00     0.106 A 
HETATM   28  C   UNL     1     -45.869  55.865 -60.762  1.00  0.00     0.105 A 
HETATM   29  O   UNL     1     -47.092  57.688 -60.172  1.00  0.00    -0.323 OA
HETATM   30  O   UNL     1     -46.893  55.796 -61.653  1.00  0.00    -0.323 OA
HETATM   31  C   UNL     1     -44.821  54.977 -60.667  1.00  0.00     0.041 A 
HETATM   32  C   UNL     1     -47.668  56.951 -61.271  1.00  0.00     0.352 A 
HETATM   33  C   UNL     1     -43.860  55.211 -59.678  1.00  0.00     0.020 A 
ENDBRANCH  22  25
ENDBRANCH   2  21
TORSDOF 6
ENDMDL
MODEL 2
REMARK VINA RESULT:      -8.6      3.493      9.369
REMARK  6 active torsions:
REMARK  status: ('A' for Active; 'I' for Inactive)
REMARK    1  A    between atoms: C_3  and  C_4 
REMARK    2  A    between atoms: C_4  and  N_5 
REMARK    3  A    between atoms: C_4  and  C_9 
REMARK       I    between atoms: N_5  and  C_6 
REMARK       I    between atoms: C_6  and  N_7 
REMARK    4  A    between atoms: C_9  and  C_10 
REMARK       I    between atoms: C_10  and  N_11 
REMARK    5  A    between atoms: N_11  and  N_12 
REMARK       I    between atoms: N_12  and  C_13 
REMARK    6  A    between atoms: C_13  and  C_14 
ROOT
HETATM    1  C   UNL     1     -43.026  56.210 -56.272  1.00  0.00     0.238 C 
HETATM    2  N   UNL     1     -41.769  55.665 -56.441  1.00  0.00    -0.267 N 
HETATM    3  O   UNL     1     -43.888  55.674 -55.575  1.00  0.00    -0.272 OA
HETATM    4  H   UNL     1     -40.992  56.183 -56.853  1.00  0.00     0.190 HD
ENDROOT
BRANCH   1   5
HETATM    5  C   UNL     1     -43.242  57.476 -57.070  1.00  0.00     0.134 C 
BRANCH   5   6
HETATM    6  C   UNL     1     -43.999  57.196 -58.381  1.00  0.00     0.129 C 
BRANCH   6   7
HETATM    7  C   UNL     1     -45.196  58.120 -58.587  1.00  0.00    -0.013 A 
HETATM    8  C   UNL     1     -46.289  58.071 -57.699  1.00  0.00     0.011 A 
HETATM    9  C   UNL     1     -47.400  58.904 -57.858  1.00  0.00     0.001 A 
HETATM   10  C   UNL     1     -47.445  59.809 -58.911  1.00  0.00     0.002 A 
HETATM   11  C   UNL     1     -46.383  59.873 -59.809  1.00  0.00     0.024 A 
HETATM   12  C   UNL     1     -45.270  59.035 -59.656  1.00  0.00     0.042 A 
HETATM   13 CL   UNL     1     -44.018  59.193 -60.840  1.00  0.00    -0.084 Cl
ENDBRANCH   6   7
BRANCH   6  14
HETATM   14  N   UNL     1     -44.369  55.794 -58.585  1.00  0.00    -0.339 N 
HETATM   15  C   UNL     1     -44.398  55.162 -59.787  1.00  0.00     0.292 C 
HETATM   16  N   UNL     1     -44.836  53.882 -59.678  1.00  0.00    -0.254 NA
HETATM   17  O   UNL     1     -44.097  55.638 -60.871  1.00  0.00    -0.254 OA
HETATM   18  H   UNL     1     -44.543  53.378 -58.853  1.00  0.00     0.128 HD
HETATM   19  H   UNL     1     -44.759  53.359 -60.541  1.00  0.00     0.128 HD
HETATM   20  H   UNL     1     -45.050  55.439 -57.927  1.00  0.00     0.164 HD
ENDBRANCH   6  14
ENDBRANCH   5   6
ENDBRANCH   1   5
BRANCH   2  21
HETATM   21  N   UNL     1     -41.421  54.577 -55.637  1.00  0.00    -0.263 N 
HETATM   22  C   UNL     1     -40.797  54.822 -54.433  1.00  0.00     0.270 C 
HETATM   23  O   UNL     1     -40.520  55.955 -54.048  1.00  0.00    -0.266 OA
HETATM   24  H   UNL     1     -41.584  53.654 -56.035  1.00  0.00     0.190 HD
BRANCH  22  25
HETATM   25  C   UNL     1     -40.444  53.631 -53.614  1.00  0.00     0.036 A 
HETATM   26  C   UNL     1     -40.250  52.367 -54.190  1.00  0.00     0.057 A 
HETATM   27  C   UNL     1     -39.930  51.324 -53.345  1.00  0.00     0.106 A 
HETATM   28  C   UNL     1     -39.808  51.494 -51.986  1.00  0.00     0.105 A 
HETATM   29  O   UNL     1     -39.710  50.038 -53.729  1.00  0.00    -0.323 OA
HETATM   30  O   UNL     1     -39.490  50.337 -51.346  1.00  0.00    -0.323 OA
HETATM   31  C   UNL     1     -40.003  52.718 -51.388  1.00  0.00     0.041 A 
HETATM   32  C   UNL     1     -39.434  49.417 -52.455  1.00  0.00     0.352 A 
HETATM   33  C   UNL     1     -40.331  53.799 -52.215  1.00  0.00     0.020 A 
ENDBRANCH  22  25
ENDBRANCH   2  21
TORSDOF 6
ENDMDL
MODEL 3
REMARK VINA RESULT:      -8.5      3.549      9.404
REMARK  6 active torsions:
REMARK  status: ('A' for Active; 'I' for Inactive)
REMARK    1  A    between atoms: C_3  and  C_4 
REMARK    2  A    between atoms: C_4  and  N_5 
REMARK    3  A    between atoms: C_4  and  C_9 
REMARK       I    between atoms: N_5  and  C_6 
REMARK       I    between atoms: C_6  and  N_7 
REMARK    4  A    between atoms: C_9  and  C_10 
REMARK       I    between atoms: C_10  and  N_11 
REMARK    5  A    between atoms: N_11  and  N_12 
REMARK       I    between atoms: N_12  and  C_13 
REMARK    6  A    between atoms: C_13  and  C_14 
ROOT
HETATM    1  C   UNL     1     -42.606  55.767 -56.737  1.00  0.00     0.238 C 
HETATM    2  N   UNL     1     -41.411  55.700 -56.049  1.00  0.00    -0.267 N 
HETATM    3  O   UNL     1     -43.269  54.766 -57.007  1.00  0.00    -0.272 OA
HETATM    4  H   UNL     1     -40.952  56.522 -55.656  1.00  0.00     0.190 HD
ENDROOT
BRANCH   1   5
HETATM    5  C   UNL     1     -42.970  57.170 -57.168  1.00  0.00     0.134 C 
BRANCH   5   6
HETATM    6  C   UNL     1     -43.421  57.210 -58.639  1.00  0.00     0.129 C 
BRANCH   6   7
HETATM    7  C   UNL     1     -43.187  58.567 -59.299  1.00  0.00    -0.013 A 
HETATM    8  C   UNL     1     -42.250  58.692 -60.344  1.00  0.00     0.011 A 
HETATM    9  C   UNL     1     -42.012  59.919 -60.970  1.00  0.00     0.001 A 
HETATM   10  C   UNL     1     -42.707  61.052 -60.566  1.00  0.00     0.002 A 
HETATM   11  C   UNL     1     -43.632  60.959 -59.529  1.00  0.00     0.024 A 
HETATM   12  C   UNL     1     -43.868  59.732 -58.895  1.00  0.00     0.042 A 
HETATM   13 CL   UNL     1     -45.029  59.740 -57.611  1.00  0.00    -0.084 Cl
ENDBRANCH   6   7
BRANCH   6  14
HETATM   14  N   UNL     1     -44.787  56.735 -58.873  1.00  0.00    -0.339 N 
HETATM   15  C   UNL     1     -45.192  56.029 -59.962  1.00  0.00     0.292 C 
HETATM   16  N   UNL     1     -46.524  55.776 -59.936  1.00  0.00    -0.254 NA
HETATM   17  O   UNL     1     -44.493  55.655 -60.891  1.00  0.00    -0.254 OA
HETATM   18  H   UNL     1     -46.924  55.576 -59.030  1.00  0.00     0.128 HD
HETATM   19  H   UNL     1     -46.827  55.158 -60.677  1.00  0.00     0.128 HD
HETATM   20  H   UNL     1     -45.509  57.325 -58.485  1.00  0.00     0.164 HD
ENDBRANCH   6  14
ENDBRANCH   5   6
ENDBRANCH   1   5
BRANCH   2  21
HETATM   21  N   UNL     1     -41.058  54.473 -55.483  1.00  0.00    -0.263 N 
HETATM   22  C   UNL     1     -40.847  54.413 -54.123  1.00  0.00     0.270 C 
HETATM   23  O   UNL     1     -40.941  55.396 -53.392  1.00  0.00    -0.266 OA
HETATM   24  H   UNL     1     -40.901  53.706 -56.134  1.00  0.00     0.190 HD
BRANCH  22  25
HETATM   25  C   UNL     1     -40.470  53.085 -53.568  1.00  0.00     0.036 A 
HETATM   26  C   UNL     1     -40.416  52.847 -52.186  1.00  0.00     0.057 A 
HETATM   27  C   UNL     1     -40.050  51.584 -51.771  1.00  0.00     0.106 A 
HETATM   28  C   UNL     1     -39.739  50.581 -52.660  1.00  0.00     0.105 A 
HETATM   29  O   UNL     1     -39.944  51.179 -50.476  1.00  0.00    -0.323 OA
HETATM   30  O   UNL     1     -39.405  49.421 -52.036  1.00  0.00    -0.323 OA
HETATM   31  C   UNL     1     -39.771  50.785 -54.021  1.00  0.00     0.041 A 
HETATM   32  C   UNL     1     -39.532  49.807 -50.652  1.00  0.00     0.352 A 
HETATM   33  C   UNL     1     -40.136  52.056 -54.478  1.00  0.00     0.020 A 
ENDBRANCH  22  25
ENDBRANCH   2  21
TORSDOF 6
ENDMDL
MODEL 4
REMARK VINA RESULT:      -8.3      3.463      8.828
REMARK  6 active torsions:
REMARK  status: ('A' for Active; 'I' for Inactive)
REMARK    1  A    between atoms: C_3  and  C_4 
REMARK    2  A    between atoms: C_4  and  N_5 
REMARK    3  A    between atoms: C_4  and  C_9 
REMARK       I    between atoms: N_5  and  C_6 
REMARK       I    between atoms: C_6  and  N_7 
REMARK    4  A    between atoms: C_9  and  C_10 
REMARK       I    between atoms: C_10  and  N_11 
REMARK    5  A    between atoms: N_11  and  N_12 
REMARK       I    between atoms: N_12  and  C_13 
REMARK    6  A    between atoms: C_13  and  C_14 
ROOT
HETATM    1  C   UNL     1     -44.778  57.773 -55.051  1.00  0.00     0.238 C 
HETATM    2  N   UNL     1     -45.008  56.479 -54.632  1.00  0.00    -0.267 N 
HETATM    3  O   UNL     1     -43.999  58.527 -54.468  1.00  0.00    -0.272 OA
HETATM    4  H   UNL     1     -45.496  55.790 -55.205  1.00  0.00     0.190 HD
ENDROOT
BRANCH   1   5
HETATM    5  C   UNL     1     -45.618  58.175 -56.243  1.00  0.00     0.134 C 
BRANCH   5   6
HETATM    6  C   UNL     1     -44.748  58.447 -57.483  1.00  0.00     0.129 C 
BRANCH   6   7
HETATM    7  C   UNL     1     -44.724  57.277 -58.463  1.00  0.00    -0.013 A 
HETATM    8  C   UNL     1     -43.654  56.360 -58.443  1.00  0.00     0.011 A 
HETATM    9  C   UNL     1     -43.602  55.278 -59.326  1.00  0.00     0.001 A 
HETATM   10  C   UNL     1     -44.619  55.085 -60.251  1.00  0.00     0.002 A 
HETATM   11  C   UNL     1     -45.685  55.981 -60.299  1.00  0.00     0.024 A 
HETATM   12  C   UNL     1     -45.737  57.071 -59.420  1.00  0.00     0.042 A 
HETATM   13 CL   UNL     1     -47.100  58.125 -59.581  1.00  0.00    -0.084 Cl
ENDBRANCH   6   7
BRANCH   6  14
HETATM   14  N   UNL     1     -43.394  58.920 -57.187  1.00  0.00    -0.339 N 
HETATM   15  C   UNL     1     -42.804  60.004 -57.756  1.00  0.00     0.292 C 
HETATM   16  N   UNL     1     -41.525  60.167 -57.333  1.00  0.00    -0.254 NA
HETATM   17  O   UNL     1     -43.306  60.766 -58.568  1.00  0.00    -0.254 OA
HETATM   18  H   UNL     1     -41.343  59.947 -56.365  1.00  0.00     0.128 HD
HETATM   19  H   UNL     1     -41.105  61.029 -57.656  1.00  0.00     0.128 HD
HETATM   20  H   UNL     1     -42.739  58.191 -56.937  1.00  0.00     0.164 HD
ENDBRANCH   6  14
ENDBRANCH   5   6
ENDBRANCH   1   5
BRANCH   2  21
HETATM   21  N   UNL     1     -44.180  55.966 -53.631  1.00  0.00    -0.263 N 
HETATM   22  C   UNL     1     -43.364  54.898 -53.936  1.00  0.00     0.270 C 
HETATM   23  O   UNL     1     -43.348  54.370 -55.045  1.00  0.00    -0.266 OA
HETATM   24  H   UNL     1     -44.292  56.371 -52.704  1.00  0.00     0.190 HD
BRANCH  22  25
HETATM   25  C   UNL     1     -42.503  54.385 -52.837  1.00  0.00     0.036 A 
HETATM   26  C   UNL     1     -42.722  54.738 -51.497  1.00  0.00     0.057 A 
HETATM   27  C   UNL     1     -41.866  54.214 -50.551  1.00  0.00     0.106 A 
HETATM   28  C   UNL     1     -40.825  53.381 -50.888  1.00  0.00     0.105 A 
HETATM   29  O   UNL     1     -41.930  54.450 -49.213  1.00  0.00    -0.323 OA
HETATM   30  O   UNL     1     -40.108  52.984 -49.803  1.00  0.00    -0.323 OA
HETATM   31  C   UNL     1     -40.574  53.024 -52.193  1.00  0.00     0.041 A 
HETATM   32  C   UNL     1     -40.810  53.669 -48.745  1.00  0.00     0.352 A 
HETATM   33  C   UNL     1     -41.423  53.539 -53.180  1.00  0.00     0.020 A 
ENDBRANCH  22  25
ENDBRANCH   2  21
TORSDOF 6
ENDMDL
MODEL 5
REMARK VINA RESULT:      -8.3      3.035      9.145
REMARK  6 active torsions:
REMARK  status: ('A' for Active; 'I' for Inactive)
REMARK    1  A    between atoms: C_3  and  C_4 
REMARK    2  A    between atoms: C_4  and  N_5 
REMARK    3  A    between atoms: C_4  and  C_9 
REMARK       I    between atoms: N_5  and  C_6 
REMARK       I    between atoms: C_6  and  N_7 
REMARK    4  A    between atoms: C_9  and  C_10 
REMARK       I    between atoms: C_10  and  N_11 
REMARK    5  A    between atoms: N_11  and  N_12 
REMARK       I    between atoms: N_12  and  C_13 
REMARK    6  A    between atoms: C_13  and  C_14 
ROOT
HETATM    1  C   UNL     1     -43.243  56.859 -56.544  1.00  0.00     0.238 C 
HETATM    2  N   UNL     1     -43.803  55.756 -55.932  1.00  0.00    -0.267 N 
HETATM    3  O   UNL     1     -42.035  57.093 -56.503  1.00  0.00    -0.272 OA
HETATM    4  H   UNL     1     -44.759  55.448 -56.114  1.00  0.00     0.190 HD
ENDROOT
BRANCH   1   5
HETATM    5  C   UNL     1     -44.263  57.761 -57.202  1.00  0.00     0.134 C 
BRANCH   5   6
HETATM    6  C   UNL     1     -44.020  57.879 -58.718  1.00  0.00     0.129 C 
BRANCH   6   7
HETATM    7  C   UNL     1     -45.251  57.528 -59.549  1.00  0.00    -0.013 A 
HETATM    8  C   UNL     1     -46.130  58.545 -59.972  1.00  0.00     0.011 A 
HETATM    9  C   UNL     1     -47.266  58.259 -60.735  1.00  0.00     0.001 A 
HETATM   10  C   UNL     1     -47.551  56.948 -61.094  1.00  0.00     0.002 A 
HETATM   11  C   UNL     1     -46.704  55.922 -60.682  1.00  0.00     0.024 A 
HETATM   12  C   UNL     1     -45.568  56.205 -59.911  1.00  0.00     0.042 A 
HETATM   13 CL   UNL     1     -44.598  54.849 -59.445  1.00  0.00    -0.084 Cl
ENDBRANCH   6   7
BRANCH   6  14
HETATM   14  N   UNL     1     -42.833  57.172 -59.203  1.00  0.00    -0.339 N 
HETATM   15  C   UNL     1     -41.957  57.656 -60.122  1.00  0.00     0.292 C 
HETATM   16  N   UNL     1     -40.986  56.757 -60.422  1.00  0.00    -0.254 NA
HETATM   17  O   UNL     1     -41.996  58.751 -60.662  1.00  0.00    -0.254 OA
HETATM   18  H   UNL     1     -40.649  56.191 -59.657  1.00  0.00     0.128 HD
HETATM   19  H   UNL     1     -40.261  57.136 -61.018  1.00  0.00     0.128 HD
HETATM   20  H   UNL     1     -42.923  56.165 -59.225  1.00  0.00     0.164 HD
ENDBRANCH   6  14
ENDBRANCH   5   6
ENDBRANCH   1   5
BRANCH   2  21
HETATM   21  N   UNL     1     -42.935  54.789 -55.421  1.00  0.00    -0.263 N 
HETATM   22  C   UNL     1     -42.681  54.783 -54.067  1.00  0.00     0.270 C 
HETATM   23  O   UNL     1     -43.173  55.603 -53.296  1.00  0.00    -0.266 OA
HETATM   24  H   UNL     1     -42.478  54.189 -56.105  1.00  0.00     0.190 HD
BRANCH  22  25
HETATM   25  C   UNL     1     -41.748  53.735 -53.571  1.00  0.00     0.036 A 
HETATM   26  C   UNL     1     -41.421  52.610 -54.341  1.00  0.00     0.057 A 
HETATM   27  C   UNL     1     -40.550  51.692 -53.790  1.00  0.00     0.106 A 
HETATM   28  C   UNL     1     -40.017  51.852 -52.533  1.00  0.00     0.105 A 
HETATM   29  O   UNL     1     -40.126  50.548 -54.392  1.00  0.00    -0.323 OA
HETATM   30  O   UNL     1     -39.187  50.831 -52.189  1.00  0.00    -0.323 OA
HETATM   31  C   UNL     1     -40.327  52.938 -51.746  1.00  0.00     0.041 A 
HETATM   32  C   UNL     1     -39.265  50.005 -53.369  1.00  0.00     0.352 A 
HETATM   33  C   UNL     1     -41.209  53.889 -52.273  1.00  0.00     0.020 A 
ENDBRANCH  22  25
ENDBRANCH   2  21
TORSDOF 6
ENDMDL
MODEL 6
REMARK VINA RESULT:      -8.2      5.537      6.726
REMARK  6 active torsions:
REMARK  status: ('A' for Active; 'I' for Inactive)
REMARK    1  A    between atoms: C_3  and  C_4 
REMARK    2  A    between atoms: C_4  and  N_5 
REMARK    3  A    between atoms: C_4  and  C_9 
REMARK       I    between atoms: N_5  and  C_6 
REMARK       I    between atoms: C_6  and  N_7 
REMARK    4  A    between atoms: C_9  and  C_10 
REMARK       I    between atoms: C_10  and  N_11 
REMARK    5  A    between atoms: N_11  and  N_12 
REMARK       I    between atoms: N_12  and  C_13 
REMARK    6  A    between atoms: C_13  and  C_14 
ROOT
HETATM    1  C   UNL     1     -43.292  55.533 -51.669  1.00  0.00     0.238 C 
HETATM    2  N   UNL     1     -43.220  56.447 -50.637  1.00  0.00    -0.267 N 
HETATM    3  O   UNL     1     -43.702  55.836 -52.790  1.00  0.00    -0.272 OA
HETATM    4  H   UNL     1     -42.712  56.264 -49.771  1.00  0.00     0.190 HD
ENDROOT
BRANCH   1   5
HETATM    5  C   UNL     1     -42.879  54.137 -51.263  1.00  0.00     0.134 C 
BRANCH   5   6
HETATM    6  C   UNL     1     -41.360  54.038 -51.040  1.00  0.00     0.129 C 
BRANCH   6   7
HETATM    7  C   UNL     1     -40.677  53.070 -52.003  1.00  0.00    -0.013 A 
HETATM    8  C   UNL     1     -40.220  51.819 -51.542  1.00  0.00     0.011 A 
HETATM    9  C   UNL     1     -39.593  50.909 -52.398  1.00  0.00     0.001 A 
HETATM   10  C   UNL     1     -39.407  51.227 -53.737  1.00  0.00     0.002 A 
HETATM   11  C   UNL     1     -39.841  52.460 -54.218  1.00  0.00     0.024 A 
HETATM   12  C   UNL     1     -40.465  53.378 -53.361  1.00  0.00     0.042 A 
HETATM   13 CL   UNL     1     -40.948  54.882 -54.066  1.00  0.00    -0.084 Cl
ENDBRANCH   6   7
BRANCH   6  14
HETATM   14  N   UNL     1     -40.960  53.778 -49.655  1.00  0.00    -0.339 N 
HETATM   15  C   UNL     1     -40.888  54.717 -48.675  1.00  0.00     0.292 C 
HETATM   16  N   UNL     1     -40.433  54.198 -47.507  1.00  0.00    -0.254 NA
HETATM   17  O   UNL     1     -41.168  55.901 -48.776  1.00  0.00    -0.254 OA
HETATM   18  H   UNL     1     -40.739  53.261 -47.285  1.00  0.00     0.128 HD
HETATM   19  H   UNL     1     -40.478  54.851 -46.736  1.00  0.00     0.128 HD
HETATM   20  H   UNL     1     -40.292  53.028 -49.544  1.00  0.00     0.164 HD
ENDBRANCH   6  14
ENDBRANCH   5   6
ENDBRANCH   1   5
BRANCH   2  21
HETATM   21  N   UNL     1     -43.442  57.790 -50.945  1.00  0.00    -0.263 N 
HETATM   22  C   UNL     1     -42.350  58.611 -51.130  1.00  0.00     0.270 C 
HETATM   23  O   UNL     1     -41.193  58.213 -51.018  1.00  0.00    -0.266 OA
HETATM   24  H   UNL     1     -44.412  58.100 -50.936  1.00  0.00     0.190 HD
BRANCH  22  25
HETATM   25  C   UNL     1     -42.637  60.035 -51.453  1.00  0.00     0.036 A 
HETATM   26  C   UNL     1     -42.730  60.490 -52.776  1.00  0.00     0.057 A 
HETATM   27  C   UNL     1     -42.994  61.830 -52.972  1.00  0.00     0.106 A 
HETATM   28  C   UNL     1     -43.157  62.705 -51.924  1.00  0.00     0.105 A 
HETATM   29  O   UNL     1     -43.117  62.441 -54.181  1.00  0.00    -0.323 OA
HETATM   30  O   UNL     1     -43.407  63.974 -52.343  1.00  0.00    -0.323 OA
HETATM   31  C   UNL     1     -43.060  62.294 -50.614  1.00  0.00     0.041 A 
HETATM   32  C   UNL     1     -43.375  63.801 -53.775  1.00  0.00     0.352 A 
HETATM   33  C   UNL     1     -42.790  60.941 -50.378  1.00  0.00     0.020 A 
ENDBRANCH  22  25
ENDBRANCH   2  21
TORSDOF 6
ENDMDL
MODEL 7
REMARK VINA RESULT:      -8.1      2.775      3.631
REMARK  6 active torsions:
REMARK  status: ('A' for Active; 'I' for Inactive)
REMARK    1  A    between atoms: C_3  and  C_4 
REMARK    2  A    between atoms: C_4  and  N_5 
REMARK    3  A    between atoms: C_4  and  C_9 
REMARK       I    between atoms: N_5  and  C_6 
REMARK       I    between atoms: C_6  and  N_7 
REMARK    4  A    between atoms: C_9  and  C_10 
REMARK       I    between atoms: C_10  and  N_11 
REMARK    5  A    between atoms: N_11  and  N_12 
REMARK       I    between atoms: N_12  and  C_13 
REMARK    6  A    between atoms: C_13  and  C_14 
ROOT
HETATM    1  C   UNL     1     -43.055  55.914 -55.199  1.00  0.00     0.238 C 
HETATM    2  N   UNL     1     -42.060  55.943 -56.155  1.00  0.00    -0.267 N 
HETATM    3  O   UNL     1     -43.667  56.925 -54.854  1.00  0.00    -0.272 OA
HETATM    4  H   UNL     1     -41.680  55.098 -56.583  1.00  0.00     0.190 HD
ENDROOT
BRANCH   1   5
HETATM    5  C   UNL     1     -43.261  54.546 -54.590  1.00  0.00     0.134 C 
BRANCH   5   6
HETATM    6  C   UNL     1     -42.563  54.423 -53.224  1.00  0.00     0.129 C 
BRANCH   6   7
HETATM    7  C   UNL     1     -41.470  53.357 -53.206  1.00  0.00    -0.013 A 
HETATM    8  C   UNL     1     -41.346  52.455 -54.281  1.00  0.00     0.011 A 
HETATM    9  C   UNL     1     -40.356  51.468 -54.297  1.00  0.00     0.001 A 
HETATM   10  C   UNL     1     -39.464  51.360 -53.238  1.00  0.00     0.002 A 
HETATM   11  C   UNL     1     -39.569  52.233 -52.158  1.00  0.00     0.024 A 
HETATM   12  C   UNL     1     -40.565  53.220 -52.136  1.00  0.00     0.042 A 
HETATM   13 CL   UNL     1     -40.608  54.238 -50.737  1.00  0.00    -0.084 Cl
ENDBRANCH   6   7
BRANCH   6  14
HETATM   14  N   UNL     1     -43.471  54.272 -52.084  1.00  0.00    -0.339 N 
HETATM   15  C   UNL     1     -43.839  55.272 -51.243  1.00  0.00     0.292 C 
HETATM   16  N   UNL     1     -44.643  54.826 -50.244  1.00  0.00    -0.254 NA
HETATM   17  O   UNL     1     -43.507  56.445 -51.312  1.00  0.00    -0.254 OA
HETATM   18  H   UNL     1     -45.308  54.108 -50.493  1.00  0.00     0.128 HD
HETATM   19  H   UNL     1     -45.020  55.571 -49.673  1.00  0.00     0.128 HD
HETATM   20  H   UNL     1     -43.441  53.363 -51.642  1.00  0.00     0.164 HD
ENDBRANCH   6  14
ENDBRANCH   5   6
ENDBRANCH   1   5
BRANCH   2  21
HETATM   21  N   UNL     1     -41.890  57.125 -56.878  1.00  0.00    -0.263 N 
HETATM   22  C   UNL     1     -42.349  57.173 -58.176  1.00  0.00     0.270 C 
HETATM   23  O   UNL     1     -42.885  56.215 -58.727  1.00  0.00    -0.266 OA
HETATM   24  H   UNL     1     -41.359  57.862 -56.417  1.00  0.00     0.190 HD
BRANCH  22  25
HETATM   25  C   UNL     1     -42.142  58.453 -58.906  1.00  0.00     0.036 A 
HETATM   26  C   UNL     1     -41.908  59.661 -58.233  1.00  0.00     0.057 A 
HETATM   27  C   UNL     1     -41.734  60.795 -58.999  1.00  0.00     0.106 A 
HETATM   28  C   UNL     1     -41.791  60.766 -60.373  1.00  0.00     0.105 A 
HETATM   29  O   UNL     1     -41.500  62.045 -58.516  1.00  0.00    -0.323 OA
HETATM   30  O   UNL     1     -41.594  61.993 -60.925  1.00  0.00    -0.323 OA
HETATM   31  C   UNL     1     -42.031  59.600 -61.064  1.00  0.00     0.041 A 
HETATM   32  C   UNL     1     -41.416  62.800 -59.743  1.00  0.00     0.352 A 
HETATM   33  C   UNL     1     -42.214  58.430 -60.318  1.00  0.00     0.020 A 
ENDBRANCH  22  25
ENDBRANCH   2  21
TORSDOF 6
ENDMDL
MODEL 8
REMARK VINA RESULT:      -7.9      3.840      9.445
REMARK  6 active torsions:
REMARK  status: ('A' for Active; 'I' for Inactive)
REMARK    1  A    between atoms: C_3  and  C_4 
REMARK    2  A    between atoms: C_4  and  N_5 
REMARK    3  A    between atoms: C_4  and  C_9 
REMARK       I    between atoms: N_5  and  C_6 
REMARK       I    between atoms: C_6  and  N_7 
REMARK    4  A    between atoms: C_9  and  C_10 
REMARK       I    between atoms: C_10  and  N_11 
REMARK    5  A    between atoms: N_11  and  N_12 
REMARK       I    between atoms: N_12  and  C_13 
REMARK    6  A    between atoms: C_13  and  C_14 
ROOT
HETATM    1  C   UNL     1     -43.381  57.254 -57.294  1.00  0.00     0.238 C 
HETATM    2  N   UNL     1     -43.913  56.282 -56.472  1.00  0.00    -0.267 N 
HETATM    3  O   UNL     1     -42.287  57.775 -57.076  1.00  0.00    -0.272 OA
HETATM    4  H   UNL     1     -44.716  55.712 -56.738  1.00  0.00     0.190 HD
ENDROOT
BRANCH   1   5
HETATM    5  C   UNL     1     -44.297  57.645 -58.431  1.00  0.00     0.134 C 
BRANCH   5   6
HETATM    6  C   UNL     1     -43.598  57.506 -59.795  1.00  0.00     0.129 C 
BRANCH   6   7
HETATM    7  C   UNL     1     -43.350  58.848 -60.478  1.00  0.00    -0.013 A 
HETATM    8  C   UNL     1     -42.032  59.305 -60.681  1.00  0.00     0.011 A 
HETATM    9  C   UNL     1     -41.770  60.529 -61.304  1.00  0.00     0.001 A 
HETATM   10  C   UNL     1     -42.820  61.326 -61.740  1.00  0.00     0.002 A 
HETATM   11  C   UNL     1     -44.133  60.904 -61.545  1.00  0.00     0.024 A 
HETATM   12  C   UNL     1     -44.399  59.680 -60.914  1.00  0.00     0.042 A 
HETATM   13 CL   UNL     1     -46.067  59.266 -60.713  1.00  0.00    -0.084 Cl
ENDBRANCH   6   7
BRANCH   6  14
HETATM   14  N   UNL     1     -44.228  56.552 -60.711  1.00  0.00    -0.339 N 
HETATM   15  C   UNL     1     -44.416  55.232 -60.454  1.00  0.00     0.292 C 
HETATM   16  N   UNL     1     -44.971  54.583 -61.509  1.00  0.00    -0.254 NA
HETATM   17  O   UNL     1     -44.126  54.638 -59.427  1.00  0.00    -0.254 OA
HETATM   18  H   UNL     1     -45.664  55.097 -62.035  1.00  0.00     0.128 HD
HETATM   19  H   UNL     1     -45.223  53.626 -61.301  1.00  0.00     0.128 HD
HETATM   20  H   UNL     1     -44.087  56.756 -61.691  1.00  0.00     0.164 HD
ENDBRANCH   6  14
ENDBRANCH   5   6
ENDBRANCH   1   5
BRANCH   2  21
HETATM   21  N   UNL     1     -43.088  55.750 -55.479  1.00  0.00    -0.263 N 
HETATM   22  C   UNL     1     -43.020  54.380 -55.344  1.00  0.00     0.270 C 
HETATM   23  O   UNL     1     -43.667  53.611 -56.049  1.00  0.00    -0.266 OA
HETATM   24  H   UNL     1     -42.641  56.422 -54.857  1.00  0.00     0.190 HD
BRANCH  22  25
HETATM   25  C   UNL     1     -42.129  53.862 -54.270  1.00  0.00     0.036 A 
HETATM   26  C   UNL     1     -42.380  54.115 -52.913  1.00  0.00     0.057 A 
HETATM   27  C   UNL     1     -41.492  53.596 -51.993  1.00  0.00     0.106 A 
HETATM   28  C   UNL     1     -40.393  52.860 -52.371  1.00  0.00     0.105 A 
HETATM   29  O   UNL     1     -41.579  53.743 -50.644  1.00  0.00    -0.323 OA
HETATM   30  O   UNL     1     -39.655  52.449 -51.306  1.00  0.00    -0.323 OA
HETATM   31  C   UNL     1     -40.112  52.605 -53.694  1.00  0.00     0.041 A 
HETATM   32  C   UNL     1     -40.409  53.016 -50.215  1.00  0.00     0.352 A 
HETATM   33  C   UNL     1     -40.990  53.118 -54.655  1.00  0.00     0.020 A 
ENDBRANCH  22  25
ENDBRANCH   2  21
TORSDOF 6
ENDMDL
MODEL 9
REMARK VINA RESULT:      -7.8      4.071      8.374
REMARK  6 active torsions:
REMARK  status: ('A' for Active; 'I' for Inactive)
REMARK    1  A    between atoms: C_3  and  C_4 
REMARK    2  A    between atoms: C_4  and  N_5 
REMARK    3  A    between atoms: C_4  and  C_9 
REMARK       I    between atoms: N_5  and  C_6 
REMARK       I    between atoms: C_6  and  N_7 
REMARK    4  A    between atoms: C_9  and  C_10 
REMARK       I    between atoms: C_10  and  N_11 
REMARK    5  A    between atoms: N_11  and  N_12 
REMARK       I    between atoms: N_12  and  C_13 
REMARK    6  A    between atoms: C_13  and  C_14 
ROOT
HETATM    1  C   UNL     1     -43.236  56.973 -54.707  1.00  0.00     0.238 C 
HETATM    2  N   UNL     1     -41.909  56.658 -54.915  1.00  0.00    -0.267 N 
HETATM    3  O   UNL     1     -44.092  56.113 -54.498  1.00  0.00    -0.272 OA
HETATM    4  H   UNL     1     -41.166  57.357 -54.900  1.00  0.00     0.190 HD
ENDROOT
BRANCH   1   5
HETATM    5  C   UNL     1     -43.527  58.452 -54.826  1.00  0.00     0.134 C 
BRANCH   5   6
HETATM    6  C   UNL     1     -42.300  59.301 -54.449  1.00  0.00     0.129 C 
BRANCH   6   7
HETATM    7  C   UNL     1     -42.277  59.697 -52.975  1.00  0.00    -0.013 A 
HETATM    8  C   UNL     1     -43.407  60.301 -52.388  1.00  0.00     0.011 A 
HETATM    9  C   UNL     1     -43.420  60.674 -51.041  1.00  0.00     0.001 A 
HETATM   10  C   UNL     1     -42.303  60.452 -50.247  1.00  0.00     0.002 A 
HETATM   11  C   UNL     1     -41.169  59.865 -50.803  1.00  0.00     0.024 A 
HETATM   12  C   UNL     1     -41.150  59.495 -52.155  1.00  0.00     0.042 A 
HETATM   13 CL   UNL     1     -39.682  58.788 -52.739  1.00  0.00    -0.084 Cl
ENDBRANCH   6   7
BRANCH   6  14
HETATM   14  N   UNL     1     -42.071  60.461 -55.314  1.00  0.00    -0.339 N 
HETATM   15  C   UNL     1     -41.824  60.402 -56.649  1.00  0.00     0.292 C 
HETATM   16  N   UNL     1     -41.593  61.631 -57.177  1.00  0.00    -0.254 NA
HETATM   17  O   UNL     1     -41.783  59.397 -57.341  1.00  0.00    -0.254 OA
HETATM   18  H   UNL     1     -42.143  62.390 -56.801  1.00  0.00     0.128 HD
HETATM   19  H   UNL     1     -41.518  61.623 -58.186  1.00  0.00     0.128 HD
HETATM   20  H   UNL     1     -41.626  61.245 -54.857  1.00  0.00     0.164 HD
ENDBRANCH   6  14
ENDBRANCH   5   6
ENDBRANCH   1   5
BRANCH   2  21
HETATM   21  N   UNL     1     -41.512  55.339 -54.686  1.00  0.00    -0.263 N 
HETATM   22  C   UNL     1     -41.092  54.989 -53.421  1.00  0.00     0.270 C 
HETATM   23  O   UNL     1     -41.035  55.792 -52.494  1.00  0.00    -0.266 OA
HETATM   24  H   UNL     1     -41.486  54.729 -55.501  1.00  0.00     0.190 HD
BRANCH  22  25
HETATM   25  C   UNL     1     -40.677  53.573 -53.227  1.00  0.00     0.036 A 
HETATM   26  C   UNL     1     -40.418  53.044 -51.955  1.00  0.00     0.057 A 
HETATM   27  C   UNL     1     -40.034  51.721 -51.880  1.00  0.00     0.106 A 
HETATM   28  C   UNL     1     -39.897  50.934 -52.999  1.00  0.00     0.105 A 
HETATM   29  O   UNL     1     -39.743  51.048 -50.734  1.00  0.00    -0.323 OA
HETATM   30  O   UNL     1     -39.508  49.667 -52.697  1.00  0.00    -0.323 OA
HETATM   31  C   UNL     1     -40.131  51.425 -54.264  1.00  0.00     0.041 A 
HETATM   32  C   UNL     1     -39.408  49.747 -51.260  1.00  0.00     0.352 A 
HETATM   33  C   UNL     1     -40.521  52.764 -54.377  1.00  0.00     0.020 A 
ENDBRANCH  22  25
ENDBRANCH   2  21
TORSDOF 6
ENDMDL
MODEL 10
REMARK VINA RESULT:      -7.8      5.374      8.888
REMARK  6 active torsions:
REMARK  status: ('A' for Active; 'I' for Inactive)
REMARK    1  A    between atoms: C_3  and  C_4 
REMARK    2  A    between atoms: C_4  and  N_5 
REMARK    3  A    between atoms: C_4  and  C_9 
REMARK       I    between atoms: N_5  and  C_6 
REMARK       I    between atoms: C_6  and  N_7 
REMARK    4  A    between atoms: C_9  and  C_10 
REMARK       I    between atoms: C_10  and  N_11 
REMARK    5  A    between atoms: N_11  and  N_12 
REMARK       I    between atoms: N_12  and  C_13 
REMARK    6  A    between atoms: C_13  and  C_14 
ROOT
HETATM    1  C   UNL     1     -42.876  57.180 -52.160  1.00  0.00     0.238 C 
HETATM    2  N   UNL     1     -42.977  56.268 -53.191  1.00  0.00    -0.267 N 
HETATM    3  O   UNL     1     -42.513  56.858 -51.028  1.00  0.00    -0.272 OA
HETATM    4  H   UNL     1     -43.090  56.546 -54.166  1.00  0.00     0.190 HD
ENDROOT
BRANCH   1   5
HETATM    5  C   UNL     1     -43.310  58.575 -52.548  1.00  0.00     0.134 C 
BRANCH   5   6
HETATM    6  C   UNL     1     -42.497  59.649 -51.804  1.00  0.00     0.129 C 
BRANCH   6   7
HETATM    7  C   UNL     1     -42.971  61.069 -52.100  1.00  0.00    -0.013 A 
HETATM    8  C   UNL     1     -42.806  61.615 -53.389  1.00  0.00     0.011 A 
HETATM    9  C   UNL     1     -43.231  62.911 -53.695  1.00  0.00     0.001 A 
HETATM   10  C   UNL     1     -43.832  63.694 -52.719  1.00  0.00     0.002 A 
HETATM   11  C   UNL     1     -44.000  63.184 -51.434  1.00  0.00     0.024 A 
HETATM   12  C   UNL     1     -43.570  61.887 -51.122  1.00  0.00     0.042 A 
HETATM   13 CL   UNL     1     -43.818  61.365 -49.491  1.00  0.00    -0.084 Cl
ENDBRANCH   6   7
BRANCH   6  14
HETATM   14  N   UNL     1     -41.045  59.531 -51.956  1.00  0.00    -0.339 N 
HETATM   15  C   UNL     1     -40.154  59.489 -50.931  1.00  0.00     0.292 C 
HETATM   16  N   UNL     1     -38.873  59.437 -51.374  1.00  0.00    -0.254 NA
HETATM   17  O   UNL     1     -40.412  59.510 -49.737  1.00  0.00    -0.254 OA
HETATM   18  H   UNL     1     -38.709  58.887 -52.205  1.00  0.00     0.128 HD
HETATM   19  H   UNL     1     -38.200  59.292 -50.632  1.00  0.00     0.128 HD
HETATM   20  H   UNL     1     -40.675  59.959 -52.794  1.00  0.00     0.164 HD
ENDBRANCH   6  14
ENDBRANCH   5   6
ENDBRANCH   1   5
BRANCH   2  21
HETATM   21  N   UNL     1     -42.466  54.987 -52.975  1.00  0.00    -0.263 N 
HETATM   22  C   UNL     1     -41.200  54.698 -53.438  1.00  0.00     0.270 C 
HETATM   23  O   UNL     1     -40.513  55.514 -54.046  1.00  0.00    -0.266 OA
HETATM   24  H   UNL     1     -43.102  54.314 -52.551  1.00  0.00     0.190 HD
BRANCH  22  25
HETATM   25  C   UNL     1     -40.700  53.319 -53.187  1.00  0.00     0.036 A 
HETATM   26  C   UNL     1     -40.493  52.831 -51.889  1.00  0.00     0.057 A 
HETATM   27  C   UNL     1     -40.022  51.540 -51.760  1.00  0.00     0.106 A 
HETATM   28  C   UNL     1     -39.753  50.747 -52.851  1.00  0.00     0.105 A 
HETATM   29  O   UNL     1     -39.764  50.909 -50.584  1.00  0.00    -0.323 OA
HETATM   30  O   UNL     1     -39.297  49.517 -52.496  1.00  0.00    -0.323 OA
HETATM   31  C   UNL     1     -39.934  51.200 -54.139  1.00  0.00     0.041 A 
HETATM   32  C   UNL     1     -39.302  49.627 -51.058  1.00  0.00     0.352 A 
HETATM   33  C   UNL     1     -40.409  52.505 -54.306  1.00  0.00     0.020 A 
ENDBRANCH  22  25
ENDBRANCH   2  21
TORSDOF 6
ENDMDL
