MODEL 1
REMARK VINA RESULT:      -9.2      0.000      0.000
REMARK  4 active torsions:
REMARK  status: ('A' for Active; 'I' for Inactive)
REMARK    1  A    between atoms: C_3  and  C_4 
REMARK    2  A    between atoms: C_14  and  N_15 
REMARK       I    between atoms: N_15  and  C_16 
REMARK    3  A    between atoms: C_16  and  C_17 
REMARK    4  A    between atoms: C_20  and  N_21 
ROOT
HETATM    1  N   UNL     1     -41.828  57.056 -56.131  1.00  0.00    -0.322 N 
HETATM    2  C   UNL     1     -42.333  55.794 -56.375  1.00  0.00     0.256 C 
HETATM    3  O   UNL     1     -43.236  55.509 -57.153  1.00  0.00    -0.267 OA
HETATM    4  H   UNL     1     -41.210  57.163 -55.334  1.00  0.00     0.169 HD
ENDROOT
BRANCH   1   5
HETATM    5  C   UNL     1     -42.089  58.236 -56.874  1.00  0.00     0.049 A 
HETATM    6  C   UNL     1     -42.029  59.493 -56.229  1.00  0.00     0.037 A 
HETATM    7  C   UNL     1     -42.144  60.669 -56.988  1.00  0.00     0.017 A 
HETATM    8  C   UNL     1     -42.363  60.610 -58.364  1.00  0.00     0.001 A 
HETATM    9  C   UNL     1     -42.468  59.374 -58.992  1.00  0.00     0.002 A 
HETATM   10  C   UNL     1     -42.329  58.195 -58.254  1.00  0.00     0.030 A 
BRANCH   6  11
HETATM   11  C   UNL     1     -41.926  59.629 -54.776  1.00  0.00     0.141 A 
HETATM   12  N   UNL     1     -41.012  59.094 -53.991  1.00  0.00    -0.228 NA
HETATM   13  C   UNL     1     -41.310  59.522 -52.720  1.00  0.00     0.086 A 
HETATM   14  C   UNL     1     -42.425  60.351 -52.725  1.00  0.00     0.062 A 
HETATM   15  C   UNL     1     -40.668  59.245 -51.505  1.00  0.00     0.034 A 
HETATM   16  N   UNL     1     -42.779  60.427 -54.045  1.00  0.00    -0.338 N 
HETATM   17  C   UNL     1     -42.960  60.927 -51.570  1.00  0.00     0.032 A 
HETATM   18  H   UNL     1     -43.532  60.978 -54.432  1.00  0.00     0.167 HD
HETATM   19  C   UNL     1     -42.310  60.634 -50.366  1.00  0.00     0.002 A 
HETATM   20  C   UNL     1     -41.182  59.809 -50.330  1.00  0.00     0.002 A 
ENDBRANCH   6  11
ENDBRANCH   1   5
BRANCH   2  21
HETATM   21  C   UNL     1     -41.751  54.716 -55.532  1.00  0.00     0.032 A 
HETATM   22  C   UNL     1     -40.381  54.455 -55.512  1.00  0.00     0.019 A 
HETATM   23  C   UNL     1     -39.875  53.415 -54.716  1.00  0.00     0.031 A 
HETATM   24  C   UNL     1     -40.710  52.609 -53.920  1.00  0.00     0.045 A 
HETATM   25  C   UNL     1     -42.086  52.892 -53.967  1.00  0.00     0.031 A 
HETATM   26  C   UNL     1     -42.604  53.924 -54.766  1.00  0.00     0.019 A 
BRANCH  24  27
HETATM   27  N   UNL     1     -40.184  51.542 -53.116  1.00  0.00    -0.252 N 
HETATM   28  C   UNL     1     -39.952  50.259 -53.568  1.00  0.00     0.231 C 
HETATM   29  O   UNL     1     -40.035  49.802 -54.700  1.00  0.00    -0.273 OA
HETATM   30  C   UNL     1     -39.564  49.392 -52.409  1.00  0.00     0.113 C 
HETATM   31  C   UNL     1     -39.212  50.373 -51.326  1.00  0.00     0.113 C 
HETATM   32  C   UNL     1     -39.831  51.657 -51.786  1.00  0.00     0.231 C 
HETATM   33  O   UNL     1     -39.942  52.611 -51.026  1.00  0.00    -0.273 OA
ENDBRANCH  24  27
ENDBRANCH   2  21
TORSDOF 4
ENDMDL
MODEL 2
REMARK VINA RESULT:      -9.1      2.901      7.642
REMARK  4 active torsions:
REMARK  status: ('A' for Active; 'I' for Inactive)
REMARK    1  A    between atoms: C_3  and  C_4 
REMARK    2  A    between atoms: C_14  and  N_15 
REMARK       I    between atoms: N_15  and  C_16 
REMARK    3  A    between atoms: C_16  and  C_17 
REMARK    4  A    between atoms: C_20  and  N_21 
ROOT
HETATM    1  N   UNL     1     -42.755  58.583 -53.587  1.00  0.00    -0.322 N 
HETATM    2  C   UNL     1     -42.324  59.071 -54.806  1.00  0.00     0.256 C 
HETATM    3  O   UNL     1     -41.499  59.958 -54.984  1.00  0.00    -0.267 OA
HETATM    4  H   UNL     1     -43.570  57.979 -53.591  1.00  0.00     0.169 HD
ENDROOT
BRANCH   1   5
HETATM    5  C   UNL     1     -42.183  58.845 -52.316  1.00  0.00     0.049 A 
HETATM    6  C   UNL     1     -41.268  57.922 -51.760  1.00  0.00     0.037 A 
HETATM    7  C   UNL     1     -40.592  58.243 -50.572  1.00  0.00     0.017 A 
HETATM    8  C   UNL     1     -40.846  59.444 -49.911  1.00  0.00     0.001 A 
HETATM    9  C   UNL     1     -41.780  60.333 -50.433  1.00  0.00     0.002 A 
HETATM   10  C   UNL     1     -42.442  60.038 -51.628  1.00  0.00     0.030 A 
BRANCH   6  11
HETATM   11  C   UNL     1     -41.045  56.593 -52.331  1.00  0.00     0.141 A 
HETATM   12  N   UNL     1     -40.824  56.299 -53.597  1.00  0.00    -0.228 NA
HETATM   13  C   UNL     1     -40.648  54.938 -53.643  1.00  0.00     0.086 A 
HETATM   14  C   UNL     1     -40.749  54.382 -52.374  1.00  0.00     0.062 A 
HETATM   15  C   UNL     1     -40.394  54.101 -54.739  1.00  0.00     0.034 A 
HETATM   16  N   UNL     1     -40.970  55.457 -51.555  1.00  0.00    -0.338 N 
HETATM   17  C   UNL     1     -40.619  53.014 -52.120  1.00  0.00     0.032 A 
HETATM   18  H   UNL     1     -41.059  55.435 -50.549  1.00  0.00     0.167 HD
HETATM   19  C   UNL     1     -40.372  52.194 -53.226  1.00  0.00     0.002 A 
HETATM   20  C   UNL     1     -40.259  52.725 -54.515  1.00  0.00     0.002 A 
ENDBRANCH   6  11
ENDBRANCH   1   5
BRANCH   2  21
HETATM   21  C   UNL     1     -43.015  58.491 -55.989  1.00  0.00     0.032 A 
HETATM   22  C   UNL     1     -43.630  59.294 -56.949  1.00  0.00     0.019 A 
HETATM   23  C   UNL     1     -44.287  58.706 -58.041  1.00  0.00     0.031 A 
HETATM   24  C   UNL     1     -44.352  57.310 -58.211  1.00  0.00     0.045 A 
HETATM   25  C   UNL     1     -43.729  56.528 -57.223  1.00  0.00     0.031 A 
HETATM   26  C   UNL     1     -43.076  57.106 -56.123  1.00  0.00     0.019 A 
BRANCH  24  27
HETATM   27  N   UNL     1     -45.034  56.717 -59.327  1.00  0.00    -0.252 N 
HETATM   28  C   UNL     1     -46.385  56.842 -59.577  1.00  0.00     0.231 C 
HETATM   29  O   UNL     1     -47.226  57.524 -59.007  1.00  0.00    -0.273 OA
HETATM   30  C   UNL     1     -46.757  55.954 -60.726  1.00  0.00     0.113 C 
HETATM   31  C   UNL     1     -45.438  55.612 -61.359  1.00  0.00     0.113 C 
HETATM   32  C   UNL     1     -44.430  55.949 -60.302  1.00  0.00     0.231 C 
HETATM   33  O   UNL     1     -43.269  55.572 -60.395  1.00  0.00    -0.273 OA
ENDBRANCH  24  27
ENDBRANCH   2  21
TORSDOF 4
ENDMDL
MODEL 3
REMARK VINA RESULT:      -9.0      2.663      7.694
REMARK  4 active torsions:
REMARK  status: ('A' for Active; 'I' for Inactive)
REMARK    1  A    between atoms: C_3  and  C_4 
REMARK    2  A    between atoms: C_14  and  N_15 
REMARK       I    between atoms: N_15  and  C_16 
REMARK    3  A    between atoms: C_16  and  C_17 
REMARK    4  A    between atoms: C_20  and  N_21 
ROOT
HETATM    1  N   UNL     1     -41.270  54.682 -55.413  1.00  0.00    -0.322 N 
HETATM    2  C   UNL     1     -42.570  54.706 -55.881  1.00  0.00     0.256 C 
HETATM    3  O   UNL     1     -43.458  53.910 -55.602  1.00  0.00    -0.267 OA
HETATM    4  H   UNL     1     -40.602  55.294 -55.868  1.00  0.00     0.169 HD
ENDROOT
BRANCH   1   5
HETATM    5  C   UNL     1     -40.758  53.879 -54.361  1.00  0.00     0.049 A 
HETATM    6  C   UNL     1     -41.067  54.206 -53.022  1.00  0.00     0.037 A 
HETATM    7  C   UNL     1     -40.685  53.336 -51.988  1.00  0.00     0.017 A 
HETATM    8  C   UNL     1     -39.965  52.175 -52.264  1.00  0.00     0.001 A 
HETATM    9  C   UNL     1     -39.621  51.874 -53.578  1.00  0.00     0.002 A 
HETATM   10  C   UNL     1     -40.017  52.718 -54.620  1.00  0.00     0.030 A 
BRANCH   6  11
HETATM   11  C   UNL     1     -41.710  55.466 -52.647  1.00  0.00     0.141 A 
HETATM   12  N   UNL     1     -41.241  56.684 -52.834  1.00  0.00    -0.228 NA
HETATM   13  C   UNL     1     -42.201  57.537 -52.346  1.00  0.00     0.086 A 
HETATM   14  C   UNL     1     -43.293  56.828 -51.860  1.00  0.00     0.062 A 
HETATM   15  C   UNL     1     -42.212  58.937 -52.286  1.00  0.00     0.034 A 
HETATM   16  N   UNL     1     -42.970  55.518 -52.090  1.00  0.00    -0.338 N 
HETATM   17  C   UNL     1     -44.417  57.437 -51.297  1.00  0.00     0.032 A 
HETATM   18  H   UNL     1     -43.551  54.715 -51.895  1.00  0.00     0.167 HD
HETATM   19  C   UNL     1     -44.407  58.835 -51.240  1.00  0.00     0.002 A 
HETATM   20  C   UNL     1     -43.326  59.576 -51.727  1.00  0.00     0.002 A 
ENDBRANCH   6  11
ENDBRANCH   1   5
BRANCH   2  21
HETATM   21  C   UNL     1     -42.853  55.770 -56.880  1.00  0.00     0.032 A 
HETATM   22  C   UNL     1     -42.767  57.124 -56.558  1.00  0.00     0.019 A 
HETATM   23  C   UNL     1     -43.061  58.097 -57.526  1.00  0.00     0.031 A 
HETATM   24  C   UNL     1     -43.447  57.756 -58.836  1.00  0.00     0.045 A 
HETATM   25  C   UNL     1     -43.532  56.383 -59.127  1.00  0.00     0.031 A 
HETATM   26  C   UNL     1     -43.248  55.402 -58.164  1.00  0.00     0.019 A 
BRANCH  24  27
HETATM   27  N   UNL     1     -43.755  58.758 -59.817  1.00  0.00    -0.252 N 
HETATM   28  C   UNL     1     -44.986  59.364 -59.961  1.00  0.00     0.231 C 
HETATM   29  O   UNL     1     -45.990  59.269 -59.267  1.00  0.00    -0.273 OA
HETATM   30  C   UNL     1     -44.970  60.225 -61.187  1.00  0.00     0.113 C 
HETATM   31  C   UNL     1     -43.509  60.366 -61.510  1.00  0.00     0.113 C 
HETATM   32  C   UNL     1     -42.860  59.256 -60.742  1.00  0.00     0.231 C 
HETATM   33  O   UNL     1     -41.700  58.931 -60.964  1.00  0.00    -0.273 OA
ENDBRANCH  24  27
ENDBRANCH   2  21
TORSDOF 4
ENDMDL
MODEL 4
REMARK VINA RESULT:      -9.0      2.663      7.660
REMARK  4 active torsions:
REMARK  status: ('A' for Active; 'I' for Inactive)
REMARK    1  A    between atoms: C_3  and  C_4 
REMARK    2  A    between atoms: C_14  and  N_15 
REMARK       I    between atoms: N_15  and  C_16 
REMARK    3  A    between atoms: C_16  and  C_17 
REMARK    4  A    between atoms: C_20  and  N_21 
ROOT
HETATM    1  N   UNL     1     -41.244  54.623 -55.407  1.00  0.00    -0.322 N 
HETATM    2  C   UNL     1     -42.553  54.685 -55.842  1.00  0.00     0.256 C 
HETATM    3  O   UNL     1     -43.461  53.924 -55.531  1.00  0.00    -0.267 OA
HETATM    4  H   UNL     1     -40.567  55.206 -55.886  1.00  0.00     0.169 HD
ENDROOT
BRANCH   1   5
HETATM    5  C   UNL     1     -40.733  53.815 -54.358  1.00  0.00     0.049 A 
HETATM    6  C   UNL     1     -41.051  54.131 -53.018  1.00  0.00     0.037 A 
HETATM    7  C   UNL     1     -40.670  53.256 -51.988  1.00  0.00     0.017 A 
HETATM    8  C   UNL     1     -39.942  52.101 -52.269  1.00  0.00     0.001 A 
HETATM    9  C   UNL     1     -39.589  51.812 -53.583  1.00  0.00     0.002 A 
HETATM   10  C   UNL     1     -39.984  52.661 -54.620  1.00  0.00     0.030 A 
BRANCH   6  11
HETATM   11  C   UNL     1     -41.703  55.385 -52.637  1.00  0.00     0.141 A 
HETATM   12  N   UNL     1     -41.221  56.604 -52.774  1.00  0.00    -0.228 NA
HETATM   13  C   UNL     1     -42.197  57.450 -52.305  1.00  0.00     0.086 A 
HETATM   14  C   UNL     1     -43.310  56.736 -51.881  1.00  0.00     0.062 A 
HETATM   15  C   UNL     1     -42.204  58.849 -52.210  1.00  0.00     0.034 A 
HETATM   16  N   UNL     1     -42.984  55.430 -52.131  1.00  0.00    -0.338 N 
HETATM   17  C   UNL     1     -44.454  57.337 -51.349  1.00  0.00     0.032 A 
HETATM   18  H   UNL     1     -43.576  54.626 -51.980  1.00  0.00     0.167 HD
HETATM   19  C   UNL     1     -44.440  58.733 -51.257  1.00  0.00     0.002 A 
HETATM   20  C   UNL     1     -43.337  59.480 -51.681  1.00  0.00     0.002 A 
ENDBRANCH   6  11
ENDBRANCH   1   5
BRANCH   2  21
HETATM   21  C   UNL     1     -42.826  55.747 -56.848  1.00  0.00     0.032 A 
HETATM   22  C   UNL     1     -42.747  57.102 -56.528  1.00  0.00     0.019 A 
HETATM   23  C   UNL     1     -43.030  58.072 -57.502  1.00  0.00     0.031 A 
HETATM   24  C   UNL     1     -43.398  57.726 -58.816  1.00  0.00     0.045 A 
HETATM   25  C   UNL     1     -43.476  56.353 -59.105  1.00  0.00     0.031 A 
HETATM   26  C   UNL     1     -43.203  55.375 -58.136  1.00  0.00     0.019 A 
BRANCH  24  27
HETATM   27  N   UNL     1     -43.695  58.726 -59.803  1.00  0.00    -0.252 N 
HETATM   28  C   UNL     1     -42.789  59.215 -60.722  1.00  0.00     0.231 C 
HETATM   29  O   UNL     1     -41.642  58.858 -60.956  1.00  0.00    -0.273 OA
HETATM   30  C   UNL     1     -43.412  60.356 -61.468  1.00  0.00     0.113 C 
HETATM   31  C   UNL     1     -44.879  60.222 -61.172  1.00  0.00     0.113 C 
HETATM   32  C   UNL     1     -44.926  59.326 -59.972  1.00  0.00     0.231 C 
HETATM   33  O   UNL     1     -45.956  59.198 -59.321  1.00  0.00    -0.273 OA
ENDBRANCH  24  27
ENDBRANCH   2  21
TORSDOF 4
ENDMDL
MODEL 5
REMARK VINA RESULT:      -8.6      3.395      8.630
REMARK  4 active torsions:
REMARK  status: ('A' for Active; 'I' for Inactive)
REMARK    1  A    between atoms: C_3  and  C_4 
REMARK    2  A    between atoms: C_14  and  N_15 
REMARK       I    between atoms: N_15  and  C_16 
REMARK    3  A    between atoms: C_16  and  C_17 
REMARK    4  A    between atoms: C_20  and  N_21 
ROOT
HETATM    1  N   UNL     1     -42.285  55.700 -52.515  1.00  0.00    -0.322 N 
HETATM    2  C   UNL     1     -41.839  56.592 -51.558  1.00  0.00     0.256 C 
HETATM    3  O   UNL     1     -40.836  56.475 -50.864  1.00  0.00    -0.267 OA
HETATM    4  H   UNL     1     -43.221  55.840 -52.879  1.00  0.00     0.169 HD
ENDROOT
BRANCH   1   5
HETATM    5  C   UNL     1     -41.574  54.592 -53.041  1.00  0.00     0.049 A 
HETATM    6  C   UNL     1     -41.269  54.551 -54.421  1.00  0.00     0.037 A 
HETATM    7  C   UNL     1     -40.444  53.531 -54.921  1.00  0.00     0.017 A 
HETATM    8  C   UNL     1     -39.958  52.532 -54.079  1.00  0.00     0.001 A 
HETATM    9  C   UNL     1     -40.294  52.545 -52.729  1.00  0.00     0.002 A 
HETATM   10  C   UNL     1     -41.094  53.568 -52.213  1.00  0.00     0.030 A 
BRANCH   6  11
HETATM   11  C   UNL     1     -41.843  55.493 -55.382  1.00  0.00     0.141 A 
HETATM   12  N   UNL     1     -41.874  56.807 -55.286  1.00  0.00    -0.228 NA
HETATM   13  C   UNL     1     -42.484  57.256 -56.432  1.00  0.00     0.086 A 
HETATM   14  C   UNL     1     -42.826  56.193 -57.259  1.00  0.00     0.062 A 
HETATM   15  C   UNL     1     -42.782  58.564 -56.839  1.00  0.00     0.034 A 
HETATM   16  N   UNL     1     -42.381  55.088 -56.585  1.00  0.00    -0.338 N 
HETATM   17  C   UNL     1     -43.467  56.352 -58.490  1.00  0.00     0.032 A 
HETATM   18  H   UNL     1     -42.427  54.132 -56.906  1.00  0.00     0.167 HD
HETATM   19  C   UNL     1     -43.761  57.664 -58.877  1.00  0.00     0.002 A 
HETATM   20  C   UNL     1     -43.424  58.754 -58.069  1.00  0.00     0.002 A 
ENDBRANCH   6  11
ENDBRANCH   1   5
BRANCH   2  21
HETATM   21  C   UNL     1     -42.737  57.755 -51.324  1.00  0.00     0.032 A 
HETATM   22  C   UNL     1     -44.124  57.644 -51.413  1.00  0.00     0.019 A 
HETATM   23  C   UNL     1     -44.934  58.771 -51.202  1.00  0.00     0.031 A 
HETATM   24  C   UNL     1     -44.393  60.034 -50.897  1.00  0.00     0.045 A 
HETATM   25  C   UNL     1     -42.992  60.115 -50.822  1.00  0.00     0.031 A 
HETATM   26  C   UNL     1     -42.172  58.996 -51.039  1.00  0.00     0.019 A 
BRANCH  24  27
HETATM   27  N   UNL     1     -45.230  61.183 -50.692  1.00  0.00    -0.252 N 
HETATM   28  C   UNL     1     -45.439  62.178 -51.625  1.00  0.00     0.231 C 
HETATM   29  O   UNL     1     -45.071  62.248 -52.790  1.00  0.00    -0.273 OA
HETATM   30  C   UNL     1     -46.229  63.285 -50.994  1.00  0.00     0.113 C 
HETATM   31  C   UNL     1     -46.788  62.663 -49.745  1.00  0.00     0.113 C 
HETATM   32  C   UNL     1     -45.943  61.443 -49.539  1.00  0.00     0.231 C 
HETATM   33  O   UNL     1     -45.971  60.829 -48.480  1.00  0.00    -0.273 OA
ENDBRANCH  24  27
ENDBRANCH   2  21
TORSDOF 4
ENDMDL
MODEL 6
REMARK VINA RESULT:      -8.4      2.942      5.329
REMARK  4 active torsions:
REMARK  status: ('A' for Active; 'I' for Inactive)
REMARK    1  A    between atoms: C_3  and  C_4 
REMARK    2  A    between atoms: C_14  and  N_15 
REMARK       I    between atoms: N_15  and  C_16 
REMARK    3  A    between atoms: C_16  and  C_17 
REMARK    4  A    between atoms: C_20  and  N_21 
ROOT
HETATM    1  N   UNL     1     -43.779  58.660 -52.117  1.00  0.00    -0.322 N 
HETATM    2  C   UNL     1     -44.205  57.496 -51.507  1.00  0.00     0.256 C 
HETATM    3  O   UNL     1     -45.173  57.375 -50.766  1.00  0.00    -0.267 OA
HETATM    4  H   UNL     1     -42.864  58.647 -52.554  1.00  0.00     0.169 HD
ENDROOT
BRANCH   1   5
HETATM    5  C   UNL     1     -44.483  59.889 -52.192  1.00  0.00     0.049 A 
HETATM    6  C   UNL     1     -45.155  60.235 -53.387  1.00  0.00     0.037 A 
HETATM    7  C   UNL     1     -45.971  61.378 -53.419  1.00  0.00     0.017 A 
HETATM    8  C   UNL     1     -46.089  62.200 -52.300  1.00  0.00     0.001 A 
HETATM    9  C   UNL     1     -45.392  61.885 -51.138  1.00  0.00     0.002 A 
HETATM   10  C   UNL     1     -44.597  60.737 -51.083  1.00  0.00     0.030 A 
BRANCH   6  11
HETATM   11  C   UNL     1     -44.979  59.490 -54.634  1.00  0.00     0.141 A 
HETATM   12  N   UNL     1     -43.925  58.786 -54.997  1.00  0.00    -0.228 NA
HETATM   13  C   UNL     1     -44.234  58.252 -56.225  1.00  0.00     0.086 A 
HETATM   14  C   UNL     1     -45.512  58.625 -56.620  1.00  0.00     0.062 A 
HETATM   15  C   UNL     1     -43.468  57.432 -57.066  1.00  0.00     0.034 A 
HETATM   16  N   UNL     1     -45.976  59.384 -55.580  1.00  0.00    -0.338 N 
HETATM   17  C   UNL     1     -46.088  58.232 -57.831  1.00  0.00     0.032 A 
HETATM   18  H   UNL     1     -46.894  59.798 -55.504  1.00  0.00     0.167 HD
HETATM   19  C   UNL     1     -45.306  57.420 -58.660  1.00  0.00     0.002 A 
HETATM   20  C   UNL     1     -44.019  57.023 -58.287  1.00  0.00     0.002 A 
ENDBRANCH   6  11
ENDBRANCH   1   5
BRANCH   2  21
HETATM   21  C   UNL     1     -43.329  56.316 -51.733  1.00  0.00     0.032 A 
HETATM   22  C   UNL     1     -43.660  55.050 -51.252  1.00  0.00     0.019 A 
HETATM   23  C   UNL     1     -42.796  53.966 -51.472  1.00  0.00     0.031 A 
HETATM   24  C   UNL     1     -41.583  54.107 -52.174  1.00  0.00     0.045 A 
HETATM   25  C   UNL     1     -41.275  55.397 -52.640  1.00  0.00     0.031 A 
HETATM   26  C   UNL     1     -42.128  56.489 -52.418  1.00  0.00     0.019 A 
BRANCH  24  27
HETATM   27  N   UNL     1     -40.702  52.994 -52.386  1.00  0.00    -0.252 N 
HETATM   28  C   UNL     1     -40.105  52.262 -51.380  1.00  0.00     0.231 C 
HETATM   29  O   UNL     1     -40.265  52.323 -50.168  1.00  0.00    -0.273 OA
HETATM   30  C   UNL     1     -39.130  51.298 -51.985  1.00  0.00     0.113 C 
HETATM   31  C   UNL     1     -39.507  51.268 -53.440  1.00  0.00     0.113 C 
HETATM   32  C   UNL     1     -40.338  52.502 -53.624  1.00  0.00     0.231 C 
HETATM   33  O   UNL     1     -40.613  52.915 -54.743  1.00  0.00    -0.273 OA
ENDBRANCH  24  27
ENDBRANCH   2  21
TORSDOF 4
ENDMDL
MODEL 7
REMARK VINA RESULT:      -8.4      3.080      7.849
REMARK  4 active torsions:
REMARK  status: ('A' for Active; 'I' for Inactive)
REMARK    1  A    between atoms: C_3  and  C_4 
REMARK    2  A    between atoms: C_14  and  N_15 
REMARK       I    between atoms: N_15  and  C_16 
REMARK    3  A    between atoms: C_16  and  C_17 
REMARK    4  A    between atoms: C_20  and  N_21 
ROOT
HETATM    1  N   UNL     1     -43.259  59.135 -53.774  1.00  0.00    -0.322 N 
HETATM    2  C   UNL     1     -42.644  59.247 -55.006  1.00  0.00     0.256 C 
HETATM    3  O   UNL     1     -41.550  59.751 -55.230  1.00  0.00    -0.267 OA
HETATM    4  H   UNL     1     -44.235  58.861 -53.766  1.00  0.00     0.169 HD
ENDROOT
BRANCH   1   5
HETATM    5  C   UNL     1     -42.672  59.375 -52.504  1.00  0.00     0.049 A 
HETATM    6  C   UNL     1     -41.764  58.433 -51.968  1.00  0.00     0.037 A 
HETATM    7  C   UNL     1     -41.072  58.732 -50.783  1.00  0.00     0.017 A 
HETATM    8  C   UNL     1     -41.305  59.928 -50.106  1.00  0.00     0.001 A 
HETATM    9  C   UNL     1     -42.232  60.835 -50.608  1.00  0.00     0.002 A 
HETATM   10  C   UNL     1     -42.908  60.563 -51.800  1.00  0.00     0.030 A 
BRANCH   6  11
HETATM   11  C   UNL     1     -41.564  57.109 -52.557  1.00  0.00     0.141 A 
HETATM   12  N   UNL     1     -42.158  55.986 -52.207  1.00  0.00    -0.228 NA
HETATM   13  C   UNL     1     -41.671  55.021 -53.056  1.00  0.00     0.086 A 
HETATM   14  C   UNL     1     -40.766  55.566 -53.958  1.00  0.00     0.062 A 
HETATM   15  C   UNL     1     -41.959  53.650 -53.118  1.00  0.00     0.034 A 
HETATM   16  N   UNL     1     -40.738  56.897 -53.640  1.00  0.00    -0.338 N 
HETATM   17  C   UNL     1     -40.107  54.816 -54.935  1.00  0.00     0.032 A 
HETATM   18  H   UNL     1     -40.211  57.615 -54.116  1.00  0.00     0.167 HD
HETATM   19  C   UNL     1     -40.402  53.449 -54.977  1.00  0.00     0.002 A 
HETATM   20  C   UNL     1     -41.314  52.873 -54.088  1.00  0.00     0.002 A 
ENDBRANCH   6  11
ENDBRANCH   1   5
BRANCH   2  21
HETATM   21  C   UNL     1     -43.458  58.770 -56.155  1.00  0.00     0.032 A 
HETATM   22  C   UNL     1     -42.913  58.613 -57.429  1.00  0.00     0.019 A 
HETATM   23  C   UNL     1     -43.721  58.177 -58.491  1.00  0.00     0.031 A 
HETATM   24  C   UNL     1     -45.087  57.884 -58.319  1.00  0.00     0.045 A 
HETATM   25  C   UNL     1     -45.608  58.059 -57.025  1.00  0.00     0.031 A 
HETATM   26  C   UNL     1     -44.811  58.503 -55.958  1.00  0.00     0.019 A 
BRANCH  24  27
HETATM   27  N   UNL     1     -45.908  57.448 -59.413  1.00  0.00    -0.252 N 
HETATM   28  C   UNL     1     -45.838  56.200 -59.997  1.00  0.00     0.231 C 
HETATM   29  O   UNL     1     -45.184  55.218 -59.670  1.00  0.00    -0.273 OA
HETATM   30  C   UNL     1     -46.724  56.172 -61.206  1.00  0.00     0.113 C 
HETATM   31  C   UNL     1     -47.603  57.379 -61.037  1.00  0.00     0.113 C 
HETATM   32  C   UNL     1     -46.882  58.213 -60.022  1.00  0.00     0.231 C 
HETATM   33  O   UNL     1     -47.199  59.380 -59.825  1.00  0.00    -0.273 OA
ENDBRANCH  24  27
ENDBRANCH   2  21
TORSDOF 4
ENDMDL
MODEL 8
REMARK VINA RESULT:      -8.3     16.545     19.518
REMARK  4 active torsions:
REMARK  status: ('A' for Active; 'I' for Inactive)
REMARK    1  A    between atoms: C_3  and  C_4 
REMARK    2  A    between atoms: C_14  and  N_15 
REMARK       I    between atoms: N_15  and  C_16 
REMARK    3  A    between atoms: C_16  and  C_17 
REMARK    4  A    between atoms: C_20  and  N_21 
ROOT
HETATM    1  N   UNL     1     -35.253  40.317 -54.494  1.00  0.00    -0.322 N 
HETATM    2  C   UNL     1     -35.371  41.241 -55.514  1.00  0.00     0.256 C 
HETATM    3  O   UNL     1     -35.232  42.454 -55.418  1.00  0.00    -0.267 OA
HETATM    4  H   UNL     1     -35.573  39.374 -54.683  1.00  0.00     0.169 HD
ENDROOT
BRANCH   1   5
HETATM    5  C   UNL     1     -34.738  40.548 -53.192  1.00  0.00     0.049 A 
HETATM    6  C   UNL     1     -33.350  40.416 -52.959  1.00  0.00     0.037 A 
HETATM    7  C   UNL     1     -32.817  40.782 -51.712  1.00  0.00     0.017 A 
HETATM    8  C   UNL     1     -33.648  41.233 -50.688  1.00  0.00     0.001 A 
HETATM    9  C   UNL     1     -35.019  41.320 -50.901  1.00  0.00     0.002 A 
HETATM   10  C   UNL     1     -35.561  40.984 -52.145  1.00  0.00     0.030 A 
BRANCH   6  11
HETATM   11  C   UNL     1     -32.437  39.835 -53.944  1.00  0.00     0.141 A 
HETATM   12  N   UNL     1     -31.983  40.407 -55.041  1.00  0.00    -0.228 NA
HETATM   13  C   UNL     1     -31.143  39.490 -55.625  1.00  0.00     0.086 A 
HETATM   14  C   UNL     1     -31.068  38.331 -54.862  1.00  0.00     0.062 A 
HETATM   15  C   UNL     1     -30.403  39.578 -56.812  1.00  0.00     0.034 A 
HETATM   16  N   UNL     1     -31.875  38.587 -53.786  1.00  0.00    -0.338 N 
HETATM   17  C   UNL     1     -30.293  37.225 -55.218  1.00  0.00     0.032 A 
HETATM   18  H   UNL     1     -32.033  37.975 -52.999  1.00  0.00     0.167 HD
HETATM   19  C   UNL     1     -29.567  37.328 -56.410  1.00  0.00     0.002 A 
HETATM   20  C   UNL     1     -29.616  38.484 -57.195  1.00  0.00     0.002 A 
ENDBRANCH   6  11
ENDBRANCH   1   5
BRANCH   2  21
HETATM   21  C   UNL     1     -35.789  40.673 -56.824  1.00  0.00     0.032 A 
HETATM   22  C   UNL     1     -36.346  41.466 -57.827  1.00  0.00     0.019 A 
HETATM   23  C   UNL     1     -36.744  40.887 -59.042  1.00  0.00     0.031 A 
HETATM   24  C   UNL     1     -36.602  39.510 -59.295  1.00  0.00     0.045 A 
HETATM   25  C   UNL     1     -36.045  38.736 -58.262  1.00  0.00     0.031 A 
HETATM   26  C   UNL     1     -35.651  39.304 -57.040  1.00  0.00     0.019 A 
BRANCH  24  27
HETATM   27  N   UNL     1     -37.020  38.925 -60.538  1.00  0.00    -0.252 N 
HETATM   28  C   UNL     1     -36.167  38.550 -61.556  1.00  0.00     0.231 C 
HETATM   29  O   UNL     1     -34.944  38.532 -61.584  1.00  0.00    -0.273 OA
HETATM   30  C   UNL     1     -36.976  38.139 -62.749  1.00  0.00     0.113 C 
HETATM   31  C   UNL     1     -38.359  37.937 -62.195  1.00  0.00     0.113 C 
HETATM   32  C   UNL     1     -38.330  38.652 -60.879  1.00  0.00     0.231 C 
HETATM   33  O   UNL     1     -39.364  38.891 -60.269  1.00  0.00    -0.273 OA
ENDBRANCH  24  27
ENDBRANCH   2  21
TORSDOF 4
ENDMDL
MODEL 9
REMARK VINA RESULT:      -8.3      3.650      8.726
REMARK  4 active torsions:
REMARK  status: ('A' for Active; 'I' for Inactive)
REMARK    1  A    between atoms: C_3  and  C_4 
REMARK    2  A    between atoms: C_14  and  N_15 
REMARK       I    between atoms: N_15  and  C_16 
REMARK    3  A    between atoms: C_16  and  C_17 
REMARK    4  A    between atoms: C_20  and  N_21 
ROOT
HETATM    1  N   UNL     1     -42.397  56.041 -52.198  1.00  0.00    -0.322 N 
HETATM    2  C   UNL     1     -41.795  57.219 -51.800  1.00  0.00     0.256 C 
HETATM    3  O   UNL     1     -40.591  57.425 -51.705  1.00  0.00    -0.267 OA
HETATM    4  H   UNL     1     -43.398  55.960 -52.055  1.00  0.00     0.169 HD
ENDROOT
BRANCH   1   5
HETATM    5  C   UNL     1     -41.762  54.915 -52.782  1.00  0.00     0.049 A 
HETATM    6  C   UNL     1     -41.648  54.831 -54.188  1.00  0.00     0.037 A 
HETATM    7  C   UNL     1     -40.896  53.794 -54.764  1.00  0.00     0.017 A 
HETATM    8  C   UNL     1     -40.297  52.821 -53.965  1.00  0.00     0.001 A 
HETATM    9  C   UNL     1     -40.446  52.877 -52.583  1.00  0.00     0.002 A 
HETATM   10  C   UNL     1     -41.171  53.918 -51.995  1.00  0.00     0.030 A 
BRANCH   6  11
HETATM   11  C   UNL     1     -42.350  55.743 -55.092  1.00  0.00     0.141 A 
HETATM   12  N   UNL     1     -43.487  56.370 -54.862  1.00  0.00    -0.228 NA
HETATM   13  C   UNL     1     -43.732  57.128 -55.981  1.00  0.00     0.086 A 
HETATM   14  C   UNL     1     -42.716  56.974 -56.916  1.00  0.00     0.062 A 
HETATM   15  C   UNL     1     -44.807  57.979 -56.272  1.00  0.00     0.034 A 
HETATM   16  N   UNL     1     -41.837  56.114 -56.316  1.00  0.00    -0.338 N 
HETATM   17  C   UNL     1     -42.706  57.621 -58.154  1.00  0.00     0.032 A 
HETATM   18  H   UNL     1     -40.953  55.802 -56.692  1.00  0.00     0.167 HD
HETATM   19  C   UNL     1     -43.790  58.462 -58.429  1.00  0.00     0.002 A 
HETATM   20  C   UNL     1     -44.824  58.642 -57.506  1.00  0.00     0.002 A 
ENDBRANCH   6  11
ENDBRANCH   1   5
BRANCH   2  21
HETATM   21  C   UNL     1     -42.737  58.289 -51.377  1.00  0.00     0.032 A 
HETATM   22  C   UNL     1     -42.293  59.561 -51.018  1.00  0.00     0.019 A 
HETATM   23  C   UNL     1     -43.214  60.538 -50.607  1.00  0.00     0.031 A 
HETATM   24  C   UNL     1     -44.596  60.280 -50.541  1.00  0.00     0.045 A 
HETATM   25  C   UNL     1     -45.011  58.987 -50.902  1.00  0.00     0.031 A 
HETATM   26  C   UNL     1     -44.098  58.001 -51.307  1.00  0.00     0.019 A 
BRANCH  24  27
HETATM   27  N   UNL     1     -45.530  61.283 -50.111  1.00  0.00    -0.252 N 
HETATM   28  C   UNL     1     -45.759  61.628 -48.795  1.00  0.00     0.231 C 
HETATM   29  O   UNL     1     -45.185  61.262 -47.779  1.00  0.00    -0.273 OA
HETATM   30  C   UNL     1     -46.913  62.583 -48.731  1.00  0.00     0.113 C 
HETATM   31  C   UNL     1     -47.068  63.057 -50.149  1.00  0.00     0.113 C 
HETATM   32  C   UNL     1     -46.317  62.040 -50.954  1.00  0.00     0.231 C 
HETATM   33  O   UNL     1     -46.437  61.987 -52.172  1.00  0.00    -0.273 OA
ENDBRANCH  24  27
ENDBRANCH   2  21
TORSDOF 4
ENDMDL
MODEL 10
REMARK VINA RESULT:      -8.1      3.396      7.817
REMARK  4 active torsions:
REMARK  status: ('A' for Active; 'I' for Inactive)
REMARK    1  A    between atoms: C_3  and  C_4 
REMARK    2  A    between atoms: C_14  and  N_15 
REMARK       I    between atoms: N_15  and  C_16 
REMARK    3  A    between atoms: C_16  and  C_17 
REMARK    4  A    between atoms: C_20  and  N_21 
ROOT
HETATM    1  N   UNL     1     -42.683  55.220 -55.123  1.00  0.00    -0.322 N 
HETATM    2  C   UNL     1     -42.472  56.484 -55.640  1.00  0.00     0.256 C 
HETATM    3  O   UNL     1     -41.633  57.293 -55.263  1.00  0.00    -0.267 OA
HETATM    4  H   UNL     1     -43.526  54.735 -55.412  1.00  0.00     0.169 HD
ENDROOT
BRANCH   1   5
HETATM    5  C   UNL     1     -41.847  54.521 -54.215  1.00  0.00     0.049 A 
HETATM    6  C   UNL     1     -41.863  54.869 -52.845  1.00  0.00     0.037 A 
HETATM    7  C   UNL     1     -41.148  54.089 -51.921  1.00  0.00     0.017 A 
HETATM    8  C   UNL     1     -40.387  53.002 -52.346  1.00  0.00     0.001 A 
HETATM    9  C   UNL     1     -40.333  52.686 -53.700  1.00  0.00     0.002 A 
HETATM   10  C   UNL     1     -41.060  53.438 -54.627  1.00  0.00     0.030 A 
BRANCH   6  11
HETATM   11  C   UNL     1     -42.538  56.067 -52.344  1.00  0.00     0.141 A 
HETATM   12  N   UNL     1     -43.819  56.197 -52.060  1.00  0.00    -0.228 NA
HETATM   13  C   UNL     1     -43.975  57.482 -51.601  1.00  0.00     0.086 A 
HETATM   14  C   UNL     1     -42.759  58.155 -51.591  1.00  0.00     0.062 A 
HETATM   15  C   UNL     1     -45.131  58.149 -51.172  1.00  0.00     0.034 A 
HETATM   16  N   UNL     1     -41.859  57.226 -52.038  1.00  0.00    -0.338 N 
HETATM   17  C   UNL     1     -42.619  59.483 -51.179  1.00  0.00     0.032 A 
HETATM   18  H   UNL     1     -40.861  57.354 -52.126  1.00  0.00     0.167 HD
HETATM   19  C   UNL     1     -43.784  60.134 -50.759  1.00  0.00     0.002 A 
HETATM   20  C   UNL     1     -45.020  59.481 -50.753  1.00  0.00     0.002 A 
ENDBRANCH   6  11
ENDBRANCH   1   5
BRANCH   2  21
HETATM   21  C   UNL     1     -43.430  56.891 -56.701  1.00  0.00     0.032 A 
HETATM   22  C   UNL     1     -44.514  57.726 -56.433  1.00  0.00     0.019 A 
HETATM   23  C   UNL     1     -45.407  58.072 -57.460  1.00  0.00     0.031 A 
HETATM   24  C   UNL     1     -45.249  57.602 -58.777  1.00  0.00     0.045 A 
HETATM   25  C   UNL     1     -44.151  56.757 -59.014  1.00  0.00     0.031 A 
HETATM   26  C   UNL     1     -43.258  56.398 -57.992  1.00  0.00     0.019 A 
BRANCH  24  27
HETATM   27  N   UNL     1     -46.172  57.954 -59.819  1.00  0.00    -0.252 N 
HETATM   28  C   UNL     1     -47.105  57.096 -60.364  1.00  0.00     0.231 C 
HETATM   29  O   UNL     1     -47.407  55.957 -60.033  1.00  0.00    -0.273 OA
HETATM   30  C   UNL     1     -47.766  57.765 -61.531  1.00  0.00     0.113 C 
HETATM   31  C   UNL     1     -47.411  59.216 -61.364  1.00  0.00     0.113 C 
HETATM   32  C   UNL     1     -46.256  59.199 -60.410  1.00  0.00     0.231 C 
HETATM   33  O   UNL     1     -45.566  60.196 -60.238  1.00  0.00    -0.273 OA
ENDBRANCH  24  27
ENDBRANCH   2  21
TORSDOF 4
ENDMDL
