MODEL 1
REMARK VINA RESULT:      -7.0      0.000      0.000
REMARK  5 active torsions:
REMARK  status: ('A' for Active; 'I' for Inactive)
REMARK    1  A    between atoms: C_8  and  C_9 
REMARK    2  A    between atoms: C_11  and  O_12 
REMARK    3  A    between atoms: C_14  and  O_15 
REMARK    4  A    between atoms: C_18  and  C_19 
REMARK    5  A    between atoms: C_22  and  O_23 
ROOT
HETATM    1  C   UNL     1     -39.513  52.058 -54.661  1.00  0.00     0.070 C 
HETATM    2  C   UNL     1     -39.855  51.928 -53.225  1.00  0.00     0.033 A 
HETATM    3  N   UNL     1     -39.721  50.735 -52.565  1.00  0.00    -0.282 N 
HETATM    4  H   UNL     1     -39.417  49.843 -52.940  1.00  0.00     0.189 HD
HETATM    5  N   UNL     1     -39.984  50.809 -51.250  1.00  0.00    -0.179 NA
HETATM    6  C   UNL     1     -40.363  52.076 -51.079  1.00  0.00     0.066 A 
HETATM    7  C   UNL     1     -40.335  52.825 -52.287  1.00  0.00     0.001 A 
HETATM    8  C   UNL     1     -40.632  54.298 -52.327  1.00  0.00     0.070 C 
HETATM    9  C   UNL     1     -41.243  54.823 -50.999  1.00  0.00     0.102 C 
HETATM   10  C   UNL     1     -40.592  54.183 -49.738  1.00  0.00     0.071 C 
HETATM   11  C   UNL     1     -39.116  54.607 -49.611  1.00  0.00     0.047 C 
HETATM   12  C   UNL     1     -40.711  52.634 -49.743  1.00  0.00     0.100 C 
ENDROOT
BRANCH   8  13
HETATM   13  C   UNL     1     -41.434  54.669 -53.566  1.00  0.00    -0.046 A 
HETATM   14  C   UNL     1     -41.272  55.880 -54.268  1.00  0.00     0.047 A 
HETATM   15  C   UNL     1     -42.025  56.147 -55.414  1.00  0.00     0.101 A 
HETATM   16  C   UNL     1     -42.886  55.167 -55.910  1.00  0.00     0.099 A 
HETATM   17  C   UNL     1     -43.051  53.958 -55.254  1.00  0.00     0.040 A 
HETATM   18  C   UNL     1     -42.334  53.714 -54.082  1.00  0.00     0.011 A 
BRANCH  15  19
HETATM   19  O   UNL     1     -41.962  57.309 -56.139  1.00  0.00    -0.353 OA
HETATM   20  C   UNL     1     -42.329  58.474 -55.402  1.00  0.00     0.210 C 
ENDBRANCH  15  19
BRANCH  16  21
HETATM   21  O   UNL     1     -43.593  55.389 -57.059  1.00  0.00    -0.358 OA
HETATM   22  H   UNL     1     -42.979  55.879 -57.639  1.00  0.00     0.218 HD
ENDBRANCH  16  21
ENDBRANCH   8  13
BRANCH   9  23
HETATM   23  C   UNL     1     -42.763  54.640 -50.935  1.00  0.00     0.131 C 
HETATM   24  C   UNL     1     -43.597  55.897 -50.952  1.00  0.00     0.091 C 
HETATM   25  O   UNL     1     -43.300  53.533 -50.864  1.00  0.00    -0.298 OA
ENDBRANCH   9  23
BRANCH  10  26
HETATM   26  O   UNL     1     -41.246  54.725 -48.577  1.00  0.00    -0.389 OA
HETATM   27  H   UNL     1     -42.153  54.977 -48.832  1.00  0.00     0.210 HD
ENDBRANCH  10  26
TORSDOF 5
ENDMDL
MODEL 2
REMARK VINA RESULT:      -6.7      3.589      5.594
REMARK  5 active torsions:
REMARK  status: ('A' for Active; 'I' for Inactive)
REMARK    1  A    between atoms: C_8  and  C_9 
REMARK    2  A    between atoms: C_11  and  O_12 
REMARK    3  A    between atoms: C_14  and  O_15 
REMARK    4  A    between atoms: C_18  and  C_19 
REMARK    5  A    between atoms: C_22  and  O_23 
ROOT
HETATM    1  C   UNL     1     -42.198  59.113 -55.597  1.00  0.00     0.070 C 
HETATM    2  C   UNL     1     -42.467  57.663 -55.734  1.00  0.00     0.033 A 
HETATM    3  N   UNL     1     -43.179  57.166 -56.795  1.00  0.00    -0.282 N 
HETATM    4  H   UNL     1     -43.606  57.681 -57.558  1.00  0.00     0.189 HD
HETATM    5  N   UNL     1     -43.254  55.826 -56.819  1.00  0.00    -0.179 NA
HETATM    6  C   UNL     1     -42.627  55.459 -55.701  1.00  0.00     0.066 A 
HETATM    7  C   UNL     1     -42.136  56.567 -54.958  1.00  0.00     0.001 A 
HETATM    8  C   UNL     1     -41.316  56.397 -53.710  1.00  0.00     0.070 C 
HETATM    9  C   UNL     1     -41.321  54.937 -53.181  1.00  0.00     0.102 C 
HETATM   10  C   UNL     1     -41.250  53.880 -54.322  1.00  0.00     0.071 C 
HETATM   11  C   UNL     1     -39.897  53.959 -55.056  1.00  0.00     0.047 C 
HETATM   12  C   UNL     1     -42.422  54.032 -55.331  1.00  0.00     0.100 C 
ENDROOT
BRANCH   8  13
HETATM   13  C   UNL     1     -41.682  57.437 -52.660  1.00  0.00    -0.046 A 
HETATM   14  C   UNL     1     -40.732  58.168 -51.919  1.00  0.00     0.047 A 
HETATM   15  C   UNL     1     -41.138  59.125 -50.986  1.00  0.00     0.101 A 
HETATM   16  C   UNL     1     -42.496  59.414 -50.849  1.00  0.00     0.099 A 
HETATM   17  C   UNL     1     -43.453  58.728 -51.580  1.00  0.00     0.040 A 
HETATM   18  C   UNL     1     -43.047  57.737 -52.474  1.00  0.00     0.011 A 
BRANCH  15  19
HETATM   19  O   UNL     1     -40.288  59.858 -50.196  1.00  0.00    -0.353 OA
HETATM   20  C   UNL     1     -38.906  59.640 -50.475  1.00  0.00     0.210 C 
ENDBRANCH  15  19
BRANCH  16  21
HETATM   21  O   UNL     1     -42.909  60.384 -49.980  1.00  0.00    -0.358 OA
HETATM   22  H   UNL     1     -43.459  60.985 -50.519  1.00  0.00     0.218 HD
ENDBRANCH  16  21
ENDBRANCH   8  13
BRANCH   9  23
HETATM   23  C   UNL     1     -42.528  54.638 -52.285  1.00  0.00     0.131 C 
HETATM   24  C   UNL     1     -42.266  54.566 -50.801  1.00  0.00     0.091 C 
HETATM   25  O   UNL     1     -43.661  54.452 -52.731  1.00  0.00    -0.298 OA
ENDBRANCH   9  23
BRANCH  10  26
HETATM   26  O   UNL     1     -41.282  52.574 -53.720  1.00  0.00    -0.389 OA
HETATM   27  H   UNL     1     -41.581  52.674 -52.797  1.00  0.00     0.210 HD
ENDBRANCH  10  26
TORSDOF 5
ENDMDL
MODEL 3
REMARK VINA RESULT:      -6.6      3.062      5.910
REMARK  5 active torsions:
REMARK  status: ('A' for Active; 'I' for Inactive)
REMARK    1  A    between atoms: C_8  and  C_9 
REMARK    2  A    between atoms: C_11  and  O_12 
REMARK    3  A    between atoms: C_14  and  O_15 
REMARK    4  A    between atoms: C_18  and  C_19 
REMARK    5  A    between atoms: C_22  and  O_23 
ROOT
HETATM    1  C   UNL     1     -43.222  53.958 -55.504  1.00  0.00     0.070 C 
HETATM    2  C   UNL     1     -42.840  55.376 -55.701  1.00  0.00     0.033 A 
HETATM    3  N   UNL     1     -42.537  55.868 -56.944  1.00  0.00    -0.282 N 
HETATM    4  H   UNL     1     -42.510  55.367 -57.825  1.00  0.00     0.189 HD
HETATM    5  N   UNL     1     -42.302  57.189 -56.962  1.00  0.00    -0.179 NA
HETATM    6  C   UNL     1     -42.393  57.540 -55.679  1.00  0.00     0.066 A 
HETATM    7  C   UNL     1     -42.697  56.441 -54.830  1.00  0.00     0.001 A 
HETATM    8  C   UNL     1     -42.940  56.608 -53.356  1.00  0.00     0.070 C 
HETATM    9  C   UNL     1     -42.538  58.015 -52.837  1.00  0.00     0.102 C 
HETATM   10  C   UNL     1     -42.908  59.155 -53.831  1.00  0.00     0.071 C 
HETATM   11  C   UNL     1     -44.437  59.281 -53.973  1.00  0.00     0.047 C 
HETATM   12  C   UNL     1     -42.250  58.950 -55.223  1.00  0.00     0.100 C 
ENDROOT
BRANCH   8  13
HETATM   13  C   UNL     1     -42.334  55.459 -52.561  1.00  0.00    -0.046 A 
HETATM   14  C   UNL     1     -41.218  54.714 -52.992  1.00  0.00     0.047 A 
HETATM   15  C   UNL     1     -40.698  53.687 -52.200  1.00  0.00     0.101 A 
HETATM   16  C   UNL     1     -41.241  53.455 -50.936  1.00  0.00     0.099 A 
HETATM   17  C   UNL     1     -42.325  54.186 -50.476  1.00  0.00     0.040 A 
HETATM   18  C   UNL     1     -42.874  55.178 -51.289  1.00  0.00     0.011 A 
BRANCH  15  19
HETATM   19  O   UNL     1     -39.641  52.887 -52.552  1.00  0.00    -0.353 OA
HETATM   20  C   UNL     1     -39.939  51.956 -53.592  1.00  0.00     0.210 C 
ENDBRANCH  15  19
BRANCH  16  21
HETATM   21  O   UNL     1     -40.713  52.490 -50.126  1.00  0.00    -0.358 OA
HETATM   22  H   UNL     1     -41.239  51.688 -50.316  1.00  0.00     0.218 HD
ENDBRANCH  16  21
ENDBRANCH   8  13
BRANCH   9  23
HETATM   23  C   UNL     1     -41.051  58.112 -52.482  1.00  0.00     0.131 C 
HETATM   24  C   UNL     1     -40.708  58.158 -51.013  1.00  0.00     0.091 C 
HETATM   25  O   UNL     1     -40.163  58.161 -53.334  1.00  0.00    -0.298 OA
ENDBRANCH   9  23
BRANCH  10  26
HETATM   26  O   UNL     1     -42.473  60.402 -53.258  1.00  0.00    -0.389 OA
HETATM   27  H   UNL     1     -41.711  60.218 -52.678  1.00  0.00     0.210 HD
ENDBRANCH  10  26
TORSDOF 5
ENDMDL
MODEL 4
REMARK VINA RESULT:      -6.5     13.934     16.312
REMARK  5 active torsions:
REMARK  status: ('A' for Active; 'I' for Inactive)
REMARK    1  A    between atoms: C_8  and  C_9 
REMARK    2  A    between atoms: C_11  and  O_12 
REMARK    3  A    between atoms: C_14  and  O_15 
REMARK    4  A    between atoms: C_18  and  C_19 
REMARK    5  A    between atoms: C_22  and  O_23 
ROOT
HETATM    1  C   UNL     1     -36.573  41.945 -53.040  1.00  0.00     0.070 C 
HETATM    2  C   UNL     1     -35.224  41.465 -52.660  1.00  0.00     0.033 A 
HETATM    3  N   UNL     1     -34.563  41.979 -51.575  1.00  0.00    -0.282 N 
HETATM    4  H   UNL     1     -34.869  42.714 -50.947  1.00  0.00     0.189 HD
HETATM    5  N   UNL     1     -33.394  41.373 -51.315  1.00  0.00    -0.179 NA
HETATM    6  C   UNL     1     -33.274  40.488 -52.306  1.00  0.00     0.066 A 
HETATM    7  C   UNL     1     -34.375  40.518 -53.203  1.00  0.00     0.001 A 
HETATM    8  C   UNL     1     -34.507  39.548 -54.345  1.00  0.00     0.070 C 
HETATM    9  C   UNL     1     -33.205  38.741 -54.600  1.00  0.00     0.102 C 
HETATM   10  C   UNL     1     -32.487  38.318 -53.285  1.00  0.00     0.071 C 
HETATM   11  C   UNL     1     -33.347  37.314 -52.493  1.00  0.00     0.047 C 
HETATM   12  C   UNL     1     -32.129  39.542 -52.398  1.00  0.00     0.100 C 
ENDROOT
BRANCH   8  13
HETATM   13  C   UNL     1     -35.067  40.227 -55.587  1.00  0.00    -0.046 A 
HETATM   14  C   UNL     1     -36.086  39.673 -56.388  1.00  0.00     0.047 A 
HETATM   15  C   UNL     1     -36.571  40.362 -57.502  1.00  0.00     0.101 A 
HETATM   16  C   UNL     1     -36.097  41.646 -57.773  1.00  0.00     0.099 A 
HETATM   17  C   UNL     1     -35.112  42.227 -56.991  1.00  0.00     0.040 A 
HETATM   18  C   UNL     1     -34.593  41.516 -55.908  1.00  0.00     0.011 A 
BRANCH  15  19
HETATM   19  O   UNL     1     -37.533  39.887 -58.358  1.00  0.00    -0.353 OA
HETATM   20  C   UNL     1     -37.955  38.554 -58.074  1.00  0.00     0.210 C 
ENDBRANCH  15  19
BRANCH  16  21
HETATM   21  O   UNL     1     -36.597  42.357 -58.828  1.00  0.00    -0.358 OA
HETATM   22  H   UNL     1     -36.587  41.731 -59.578  1.00  0.00     0.218 HD
ENDBRANCH  16  21
ENDBRANCH   8  13
BRANCH   9  23
HETATM   23  C   UNL     1     -32.216  39.486 -55.503  1.00  0.00     0.131 C 
HETATM   24  C   UNL     1     -32.111  39.007 -56.931  1.00  0.00     0.091 C 
HETATM   25  O   UNL     1     -31.523  40.424 -55.104  1.00  0.00    -0.298 OA
ENDBRANCH   9  23
BRANCH  10  26
HETATM   26  O   UNL     1     -31.293  37.600 -53.643  1.00  0.00    -0.389 OA
HETATM   27  H   UNL     1     -30.962  37.965 -54.484  1.00  0.00     0.210 HD
ENDBRANCH  10  26
TORSDOF 5
ENDMDL
MODEL 5
REMARK VINA RESULT:      -6.5      2.255      2.890
REMARK  5 active torsions:
REMARK  status: ('A' for Active; 'I' for Inactive)
REMARK    1  A    between atoms: C_8  and  C_9 
REMARK    2  A    between atoms: C_11  and  O_12 
REMARK    3  A    between atoms: C_14  and  O_15 
REMARK    4  A    between atoms: C_18  and  C_19 
REMARK    5  A    between atoms: C_22  and  O_23 
ROOT
HETATM    1  C   UNL     1     -40.078  53.526 -54.338  1.00  0.00     0.070 C 
HETATM    2  C   UNL     1     -40.574  54.078 -53.056  1.00  0.00     0.033 A 
HETATM    3  N   UNL     1     -40.503  53.357 -51.893  1.00  0.00    -0.282 N 
HETATM    4  H   UNL     1     -40.153  52.414 -51.762  1.00  0.00     0.189 HD
HETATM    5  N   UNL     1     -40.909  54.036 -50.808  1.00  0.00    -0.179 NA
HETATM    6  C   UNL     1     -41.315  55.205 -51.305  1.00  0.00     0.066 A 
HETATM    7  C   UNL     1     -41.160  55.284 -52.715  1.00  0.00     0.001 A 
HETATM    8  C   UNL     1     -41.463  56.538 -53.487  1.00  0.00     0.070 C 
HETATM    9  C   UNL     1     -42.220  57.597 -52.640  1.00  0.00     0.102 C 
HETATM   10  C   UNL     1     -41.705  57.678 -51.173  1.00  0.00     0.071 C 
HETATM   11  C   UNL     1     -40.255  58.199 -51.132  1.00  0.00     0.047 C 
HETATM   12  C   UNL     1     -41.811  56.312 -50.442  1.00  0.00     0.100 C 
ENDROOT
BRANCH   8  13
HETATM   13  C   UNL     1     -42.127  56.222 -54.820  1.00  0.00    -0.046 A 
HETATM   14  C   UNL     1     -42.042  57.055 -55.953  1.00  0.00     0.047 A 
HETATM   15  C   UNL     1     -42.657  56.693 -57.154  1.00  0.00     0.101 A 
HETATM   16  C   UNL     1     -43.293  55.454 -57.250  1.00  0.00     0.099 A 
HETATM   17  C   UNL     1     -43.375  54.603 -56.160  1.00  0.00     0.040 A 
HETATM   18  C   UNL     1     -42.802  54.990 -54.948  1.00  0.00     0.011 A 
BRANCH  15  19
HETATM   19  O   UNL     1     -42.657  57.455 -58.295  1.00  0.00    -0.353 OA
HETATM   20  C   UNL     1     -42.012  58.719 -58.147  1.00  0.00     0.210 C 
ENDBRANCH  15  19
BRANCH  16  21
HETATM   21  O   UNL     1     -43.856  55.059 -58.431  1.00  0.00    -0.358 OA
HETATM   22  H   UNL     1     -44.720  55.514 -58.460  1.00  0.00     0.218 HD
ENDBRANCH  16  21
ENDBRANCH   8  13
BRANCH   9  23
HETATM   23  C   UNL     1     -43.736  57.376 -52.636  1.00  0.00     0.131 C 
HETATM   24  C   UNL     1     -44.560  58.332 -53.464  1.00  0.00     0.091 C 
HETATM   25  O   UNL     1     -44.278  56.478 -51.991  1.00  0.00    -0.298 OA
ENDBRANCH   9  23
BRANCH  10  26
HETATM   26  O   UNL     1     -42.487  58.670 -50.483  1.00  0.00    -0.389 OA
HETATM   27  H   UNL     1     -42.060  59.537 -50.615  1.00  0.00     0.210 HD
ENDBRANCH  10  26
TORSDOF 5
ENDMDL
MODEL 6
REMARK VINA RESULT:      -6.4     14.223     16.897
REMARK  5 active torsions:
REMARK  status: ('A' for Active; 'I' for Inactive)
REMARK    1  A    between atoms: C_8  and  C_9 
REMARK    2  A    between atoms: C_11  and  O_12 
REMARK    3  A    between atoms: C_14  and  O_15 
REMARK    4  A    between atoms: C_18  and  C_19 
REMARK    5  A    between atoms: C_22  and  O_23 
ROOT
HETATM    1  C   UNL     1     -35.891  42.061 -53.710  1.00  0.00     0.070 C 
HETATM    2  C   UNL     1     -36.852  41.584 -54.732  1.00  0.00     0.033 A 
HETATM    3  N   UNL     1     -38.201  41.563 -54.489  1.00  0.00    -0.282 N 
HETATM    4  H   UNL     1     -38.687  41.825 -53.639  1.00  0.00     0.189 HD
HETATM    5  N   UNL     1     -38.937  41.191 -55.548  1.00  0.00    -0.179 NA
HETATM    6  C   UNL     1     -38.025  40.902 -56.476  1.00  0.00     0.066 A 
HETATM    7  C   UNL     1     -36.694  41.097 -56.017  1.00  0.00     0.001 A 
HETATM    8  C   UNL     1     -35.501  40.925 -56.915  1.00  0.00     0.070 C 
HETATM    9  C   UNL     1     -35.858  40.243 -58.264  1.00  0.00     0.102 C 
HETATM   10  C   UNL     1     -37.220  40.727 -58.845  1.00  0.00     0.071 C 
HETATM   11  C   UNL     1     -37.147  42.215 -59.237  1.00  0.00     0.047 C 
HETATM   12  C   UNL     1     -38.394  40.484 -57.857  1.00  0.00     0.100 C 
ENDROOT
BRANCH   8  13
HETATM   13  C   UNL     1     -34.342  40.268 -56.178  1.00  0.00    -0.046 A 
HETATM   14  C   UNL     1     -34.507  39.303 -55.164  1.00  0.00     0.047 A 
HETATM   15  C   UNL     1     -33.398  38.722 -54.545  1.00  0.00     0.101 A 
HETATM   16  C   UNL     1     -32.117  39.044 -54.994  1.00  0.00     0.099 A 
HETATM   17  C   UNL     1     -31.923  39.972 -56.004  1.00  0.00     0.040 A 
HETATM   18  C   UNL     1     -33.031  40.588 -56.587  1.00  0.00     0.011 A 
BRANCH  15  19
HETATM   19  O   UNL     1     -33.462  37.805 -53.527  1.00  0.00    -0.353 OA
HETATM   20  C   UNL     1     -33.899  38.348 -52.282  1.00  0.00     0.210 C 
ENDBRANCH  15  19
BRANCH  16  21
HETATM   21  O   UNL     1     -31.021  38.447 -54.436  1.00  0.00    -0.358 OA
HETATM   22  H   UNL     1     -30.423  38.271 -55.189  1.00  0.00     0.218 HD
ENDBRANCH  16  21
ENDBRANCH   8  13
BRANCH   9  23
HETATM   23  C   UNL     1     -35.859  38.714 -58.171  1.00  0.00     0.131 C 
HETATM   24  C   UNL     1     -34.702  37.996 -58.821  1.00  0.00     0.091 C 
HETATM   25  O   UNL     1     -36.753  38.080 -57.607  1.00  0.00    -0.298 OA
ENDBRANCH   9  23
BRANCH  10  26
HETATM   26  O   UNL     1     -37.454  40.018 -60.075  1.00  0.00    -0.389 OA
HETATM   27  H   UNL     1     -36.593  39.720 -60.421  1.00  0.00     0.210 HD
ENDBRANCH  10  26
TORSDOF 5
ENDMDL
MODEL 7
REMARK VINA RESULT:      -6.2      3.339      4.999
REMARK  5 active torsions:
REMARK  status: ('A' for Active; 'I' for Inactive)
REMARK    1  A    between atoms: C_8  and  C_9 
REMARK    2  A    between atoms: C_11  and  O_12 
REMARK    3  A    between atoms: C_14  and  O_15 
REMARK    4  A    between atoms: C_18  and  C_19 
REMARK    5  A    between atoms: C_22  and  O_23 
ROOT
HETATM    1  C   UNL     1     -45.182  58.539 -54.963  1.00  0.00     0.070 C 
HETATM    2  C   UNL     1     -44.258  58.105 -53.889  1.00  0.00     0.033 A 
HETATM    3  N   UNL     1     -44.039  58.879 -52.779  1.00  0.00    -0.282 N 
HETATM    4  H   UNL     1     -44.429  59.791 -52.566  1.00  0.00     0.189 HD
HETATM    5  N   UNL     1     -43.248  58.301 -51.862  1.00  0.00    -0.179 NA
HETATM    6  C   UNL     1     -42.896  57.149 -52.435  1.00  0.00     0.066 A 
HETATM    7  C   UNL     1     -43.471  56.980 -53.723  1.00  0.00     0.001 A 
HETATM    8  C   UNL     1     -43.292  55.720 -54.523  1.00  0.00     0.070 C 
HETATM    9  C   UNL     1     -42.202  54.783 -53.933  1.00  0.00     0.102 C 
HETATM   10  C   UNL     1     -42.225  54.734 -52.377  1.00  0.00     0.071 C 
HETATM   11  C   UNL     1     -43.527  54.083 -51.871  1.00  0.00     0.047 C 
HETATM   12  C   UNL     1     -42.043  56.142 -51.746  1.00  0.00     0.100 C 
ENDROOT
BRANCH   8  13
HETATM   13  C   UNL     1     -43.110  56.023 -56.004  1.00  0.00    -0.046 A 
HETATM   14  C   UNL     1     -42.520  57.206 -56.492  1.00  0.00     0.047 A 
HETATM   15  C   UNL     1     -42.362  57.410 -57.865  1.00  0.00     0.101 A 
HETATM   16  C   UNL     1     -42.720  56.396 -58.753  1.00  0.00     0.099 A 
HETATM   17  C   UNL     1     -43.284  55.213 -58.302  1.00  0.00     0.040 A 
HETATM   18  C   UNL     1     -43.486  55.032 -56.933  1.00  0.00     0.011 A 
BRANCH  15  19
HETATM   19  O   UNL     1     -41.832  58.541 -58.432  1.00  0.00    -0.353 OA
HETATM   20  C   UNL     1     -42.612  59.717 -58.218  1.00  0.00     0.210 C 
ENDBRANCH  15  19
BRANCH  16  21
HETATM   21  O   UNL     1     -42.526  56.555 -60.097  1.00  0.00    -0.358 OA
HETATM   22  H   UNL     1     -43.418  56.479 -60.489  1.00  0.00     0.218 HD
ENDBRANCH  16  21
ENDBRANCH   8  13
BRANCH   9  23
HETATM   23  C   UNL     1     -40.792  55.145 -54.410  1.00  0.00     0.131 C 
HETATM   24  C   UNL     1     -40.081  54.117 -55.257  1.00  0.00     0.091 C 
HETATM   25  O   UNL     1     -40.241  56.209 -54.122  1.00  0.00    -0.298 OA
ENDBRANCH   9  23
BRANCH  10  26
HETATM   26  O   UNL     1     -41.167  53.859 -51.945  1.00  0.00    -0.389 OA
HETATM   27  H   UNL     1     -41.573  53.033 -51.620  1.00  0.00     0.210 HD
ENDBRANCH  10  26
TORSDOF 5
ENDMDL
MODEL 8
REMARK VINA RESULT:      -6.2      3.342      5.865
REMARK  5 active torsions:
REMARK  status: ('A' for Active; 'I' for Inactive)
REMARK    1  A    between atoms: C_8  and  C_9 
REMARK    2  A    between atoms: C_11  and  O_12 
REMARK    3  A    between atoms: C_14  and  O_15 
REMARK    4  A    between atoms: C_18  and  C_19 
REMARK    5  A    between atoms: C_22  and  O_23 
ROOT
HETATM    1  C   UNL     1     -43.579  54.012 -55.102  1.00  0.00     0.070 C 
HETATM    2  C   UNL     1     -43.543  55.490 -55.017  1.00  0.00     0.033 A 
HETATM    3  N   UNL     1     -43.776  56.274 -56.117  1.00  0.00    -0.282 N 
HETATM    4  H   UNL     1     -43.967  55.977 -57.068  1.00  0.00     0.189 HD
HETATM    5  N   UNL     1     -43.797  57.590 -55.851  1.00  0.00    -0.179 NA
HETATM    6  C   UNL     1     -43.502  57.650 -54.552  1.00  0.00     0.066 A 
HETATM    7  C   UNL     1     -43.298  56.367 -53.976  1.00  0.00     0.001 A 
HETATM    8  C   UNL     1     -43.045  56.178 -52.506  1.00  0.00     0.070 C 
HETATM    9  C   UNL     1     -42.743  57.513 -51.772  1.00  0.00     0.102 C 
HETATM   10  C   UNL     1     -43.625  58.693 -52.275  1.00  0.00     0.071 C 
HETATM   11  C   UNL     1     -45.106  58.454 -51.926  1.00  0.00     0.047 C 
HETATM   12  C   UNL     1     -43.460  58.935 -53.801  1.00  0.00     0.100 C 
ENDROOT
BRANCH   8  13
HETATM   13  C   UNL     1     -42.012  55.088 -52.258  1.00  0.00    -0.046 A 
HETATM   14  C   UNL     1     -41.849  54.433 -51.020  1.00  0.00     0.047 A 
HETATM   15  C   UNL     1     -40.896  53.423 -50.867  1.00  0.00     0.101 A 
HETATM   16  C   UNL     1     -40.157  53.006 -51.975  1.00  0.00     0.099 A 
HETATM   17  C   UNL     1     -40.311  53.615 -53.210  1.00  0.00     0.040 A 
HETATM   18  C   UNL     1     -41.228  54.658 -53.348  1.00  0.00     0.011 A 
BRANCH  15  19
HETATM   19  O   UNL     1     -40.643  52.757 -49.696  1.00  0.00    -0.353 OA
HETATM   20  C   UNL     1     -40.614  53.599 -48.544  1.00  0.00     0.210 C 
ENDBRANCH  15  19
BRANCH  16  21
HETATM   21  O   UNL     1     -39.257  51.984 -51.859  1.00  0.00    -0.358 OA
HETATM   22  H   UNL     1     -38.530  52.221 -52.467  1.00  0.00     0.218 HD
ENDBRANCH  16  21
ENDBRANCH   8  13
BRANCH   9  23
HETATM   23  C   UNL     1     -41.265  57.910 -51.854  1.00  0.00     0.131 C 
HETATM   24  C   UNL     1     -40.487  57.890 -50.561  1.00  0.00     0.091 C 
HETATM   25  O   UNL     1     -40.721  58.243 -52.908  1.00  0.00    -0.298 OA
ENDBRANCH   9  23
BRANCH  10  26
HETATM   26  O   UNL     1     -43.246  59.873 -51.544  1.00  0.00    -0.389 OA
HETATM   27  H   UNL     1     -42.275  59.955 -51.585  1.00  0.00     0.210 HD
ENDBRANCH  10  26
TORSDOF 5
ENDMDL
MODEL 9
REMARK VINA RESULT:      -6.2     14.336     15.820
REMARK  5 active torsions:
REMARK  status: ('A' for Active; 'I' for Inactive)
REMARK    1  A    between atoms: C_8  and  C_9 
REMARK    2  A    between atoms: C_11  and  O_12 
REMARK    3  A    between atoms: C_14  and  O_15 
REMARK    4  A    between atoms: C_18  and  C_19 
REMARK    5  A    between atoms: C_22  and  O_23 
ROOT
HETATM    1  C   UNL     1     -31.714  39.626 -55.754  1.00  0.00     0.070 C 
HETATM    2  C   UNL     1     -32.300  39.090 -54.503  1.00  0.00     0.033 A 
HETATM    3  N   UNL     1     -31.821  37.944 -53.924  1.00  0.00    -0.282 N 
HETATM    4  H   UNL     1     -31.076  37.340 -54.255  1.00  0.00     0.189 HD
HETATM    5  N   UNL     1     -32.399  37.646 -52.750  1.00  0.00    -0.179 NA
HETATM    6  C   UNL     1     -33.324  38.596 -52.608  1.00  0.00     0.066 A 
HETATM    7  C   UNL     1     -33.335  39.516 -53.691  1.00  0.00     0.001 A 
HETATM    8  C   UNL     1     -34.229  40.725 -53.709  1.00  0.00     0.070 C 
HETATM    9  C   UNL     1     -35.310  40.689 -52.594  1.00  0.00     0.102 C 
HETATM   10  C   UNL     1     -34.770  40.127 -51.246  1.00  0.00     0.071 C 
HETATM   11  C   UNL     1     -33.710  41.070 -50.647  1.00  0.00     0.047 C 
HETATM   12  C   UNL     1     -34.193  38.693 -51.403  1.00  0.00     0.100 C 
ENDROOT
BRANCH   8  13
HETATM   13  C   UNL     1     -34.786  40.983 -55.102  1.00  0.00    -0.046 A 
HETATM   14  C   UNL     1     -35.251  39.964 -55.958  1.00  0.00     0.047 A 
HETATM   15  C   UNL     1     -35.773  40.273 -57.217  1.00  0.00     0.101 A 
HETATM   16  C   UNL     1     -35.908  41.611 -57.592  1.00  0.00     0.099 A 
HETATM   17  C   UNL     1     -35.480  42.635 -56.763  1.00  0.00     0.040 A 
HETATM   18  C   UNL     1     -34.913  42.321 -55.527  1.00  0.00     0.011 A 
BRANCH  15  19
HETATM   19  O   UNL     1     -36.215  39.350 -58.129  1.00  0.00    -0.353 OA
HETATM   20  C   UNL     1     -37.408  38.672 -57.736  1.00  0.00     0.210 C 
ENDBRANCH  15  19
BRANCH  16  21
HETATM   21  O   UNL     1     -36.464  41.936 -58.797  1.00  0.00    -0.358 OA
HETATM   22  H   UNL     1     -37.391  41.634 -58.734  1.00  0.00     0.218 HD
ENDBRANCH  16  21
ENDBRANCH   8  13
BRANCH   9  23
HETATM   23  C   UNL     1     -36.560  39.907 -53.009  1.00  0.00     0.131 C 
HETATM   24  C   UNL     1     -37.793  40.719 -53.320  1.00  0.00     0.091 C 
HETATM   25  O   UNL     1     -36.585  38.677 -53.081  1.00  0.00    -0.298 OA
ENDBRANCH   9  23
BRANCH  10  26
HETATM   26  O   UNL     1     -35.856  40.122 -50.301  1.00  0.00    -0.389 OA
HETATM   27  H   UNL     1     -35.787  39.308 -49.768  1.00  0.00     0.210 HD
ENDBRANCH  10  26
TORSDOF 5
ENDMDL
MODEL 10
REMARK VINA RESULT:      -6.1      1.350      2.198
REMARK  5 active torsions:
REMARK  status: ('A' for Active; 'I' for Inactive)
REMARK    1  A    between atoms: C_8  and  C_9 
REMARK    2  A    between atoms: C_11  and  O_12 
REMARK    3  A    between atoms: C_14  and  O_15 
REMARK    4  A    between atoms: C_18  and  C_19 
REMARK    5  A    between atoms: C_22  and  O_23 
ROOT
HETATM    1  C   UNL     1     -39.706  54.429 -55.396  1.00  0.00     0.070 C 
HETATM    2  C   UNL     1     -40.109  53.686 -54.180  1.00  0.00     0.033 A 
HETATM    3  N   UNL     1     -39.999  52.322 -54.107  1.00  0.00    -0.282 N 
HETATM    4  H   UNL     1     -39.675  51.682 -54.824  1.00  0.00     0.189 HD
HETATM    5  N   UNL     1     -40.320  51.815 -52.907  1.00  0.00    -0.179 NA
HETATM    6  C   UNL     1     -40.712  52.883 -52.211  1.00  0.00     0.066 A 
HETATM    7  C   UNL     1     -40.634  54.086 -52.964  1.00  0.00     0.001 A 
HETATM    8  C   UNL     1     -40.935  55.431 -52.363  1.00  0.00     0.070 C 
HETATM    9  C   UNL     1     -41.607  55.328 -50.966  1.00  0.00     0.102 C 
HETATM   10  C   UNL     1     -41.008  54.188 -50.090  1.00  0.00     0.071 C 
HETATM   11  C   UNL     1     -39.541  54.491 -49.729  1.00  0.00     0.047 C 
HETATM   12  C   UNL     1     -41.120  52.802 -50.782  1.00  0.00     0.100 C 
ENDROOT
BRANCH   8  13
HETATM   13  C   UNL     1     -41.684  56.322 -53.345  1.00  0.00    -0.046 A 
HETATM   14  C   UNL     1     -42.430  55.829 -54.434  1.00  0.00     0.047 A 
HETATM   15  C   UNL     1     -43.114  56.703 -55.283  1.00  0.00     0.101 A 
HETATM   16  C   UNL     1     -43.121  58.069 -54.998  1.00  0.00     0.099 A 
HETATM   17  C   UNL     1     -42.415  58.581 -53.922  1.00  0.00     0.040 A 
HETATM   18  C   UNL     1     -41.692  57.711 -53.104  1.00  0.00     0.011 A 
BRANCH  15  19
HETATM   19  O   UNL     1     -43.835  56.319 -56.386  1.00  0.00    -0.353 OA
HETATM   20  C   UNL     1     -43.057  55.665 -57.387  1.00  0.00     0.210 C 
ENDBRANCH  15  19
BRANCH  16  21
HETATM   21  O   UNL     1     -43.827  58.934 -55.787  1.00  0.00    -0.358 OA
HETATM   22  H   UNL     1     -44.551  59.258 -55.216  1.00  0.00     0.218 HD
ENDBRANCH  16  21
ENDBRANCH   8  13
BRANCH   9  23
HETATM   23  C   UNL     1     -43.127  55.158 -51.053  1.00  0.00     0.131 C 
HETATM   24  C   UNL     1     -43.960  56.391 -50.798  1.00  0.00     0.091 C 
HETATM   25  O   UNL     1     -43.665  54.079 -51.306  1.00  0.00    -0.298 OA
ENDBRANCH   9  23
BRANCH  10  26
HETATM   26  O   UNL     1     -41.716  54.174 -48.837  1.00  0.00    -0.389 OA
HETATM   27  H   UNL     1     -42.026  53.263 -48.676  1.00  0.00     0.210 HD
ENDBRANCH  10  26
TORSDOF 5
ENDMDL
