MODEL 1
REMARK VINA RESULT:      -8.8      0.000      0.000
REMARK  3 active torsions:
REMARK  status: ('A' for Active; 'I' for Inactive)
REMARK    1  A    between atoms: C_9  and  C_10 
REMARK       I    between atoms: C_10  and  N_11 
REMARK    2  A    between atoms: N_11  and  C_12 
REMARK    3  A    between atoms: C_14  and  C_15 
ROOT
HETATM    1  C   UNL     1     -42.064  56.020 -55.346  1.00  0.00     0.277 C 
HETATM    2  N   UNL     1     -41.348  54.863 -55.179  1.00  0.00    -0.322 N 
HETATM    3  O   UNL     1     -42.107  56.539 -56.462  1.00  0.00    -0.266 OA
HETATM    4  H   UNL     1     -40.939  54.605 -56.072  1.00  0.00     0.169 HD
ENDROOT
BRANCH   1   5
HETATM    5  C   UNL     1     -42.858  56.694 -54.255  1.00  0.00     0.156 A 
HETATM    6  C   UNL     1     -42.163  57.646 -53.355  1.00  0.00     0.016 A 
HETATM    7  C   UNL     1     -40.820  58.009 -53.508  1.00  0.00     0.015 A 
HETATM    8  C   UNL     1     -42.885  58.135 -52.268  1.00  0.00     0.046 A 
HETATM    9  C   UNL     1     -40.204  58.833 -52.560  1.00  0.00     0.001 A 
HETATM   10  C   UNL     1     -40.927  59.307 -51.466  1.00  0.00     0.001 A 
HETATM   11  C   UNL     1     -42.271  58.966 -51.321  1.00  0.00     0.018 A 
HETATM   12  C   UNL     1     -44.297  57.749 -52.114  1.00  0.00     0.272 A 
HETATM   13  O   UNL     1     -44.987  58.195 -51.203  1.00  0.00    -0.266 OA
HETATM   14  N   UNL     1     -44.792  56.870 -53.048  1.00  0.00    -0.242 N 
HETATM   15  N   UNL     1     -44.092  56.314 -54.078  1.00  0.00    -0.166 NA
HETATM   16  H   UNL     1     -45.749  56.554 -52.928  1.00  0.00     0.192 HD
ENDBRANCH   1   5
BRANCH   2  17
HETATM   17  C   UNL     1     -40.970  54.043 -54.101  1.00  0.00     0.035 A 
HETATM   18  C   UNL     1     -41.116  54.335 -52.744  1.00  0.00     0.042 A 
HETATM   19  C   UNL     1     -40.594  53.476 -51.751  1.00  0.00    -0.021 A 
HETATM   20  C   UNL     1     -39.972  52.285 -52.149  1.00  0.00     0.012 A 
HETATM   21  C   UNL     1     -39.858  51.961 -53.497  1.00  0.00     0.003 A 
HETATM   22  C   UNL     1     -40.348  52.838 -54.462  1.00  0.00     0.029 A 
BRANCH  19  23
HETATM   23  C   UNL     1     -40.652  53.813 -50.329  1.00  0.00     0.010 A 
HETATM   24  C   UNL     1     -41.037  55.015 -49.679  1.00  0.00     0.152 A 
HETATM   25  N   UNL     1     -40.992  54.930 -48.347  1.00  0.00    -0.187 NA
HETATM   26  N   UNL     1     -40.587  53.671 -48.130  1.00  0.00    -0.289 N 
HETATM   27  H   UNL     1     -40.486  53.357 -47.171  1.00  0.00     0.188 HD
HETATM   28  C   UNL     1     -40.368  52.965 -49.279  1.00  0.00     0.123 A 
ENDBRANCH  19  23
ENDBRANCH   2  17
TORSDOF 3
ENDMDL
MODEL 2
REMARK VINA RESULT:      -8.7      2.115      4.461
REMARK  3 active torsions:
REMARK  status: ('A' for Active; 'I' for Inactive)
REMARK    1  A    between atoms: C_9  and  C_10 
REMARK       I    between atoms: C_10  and  N_11 
REMARK    2  A    between atoms: N_11  and  C_12 
REMARK    3  A    between atoms: C_14  and  C_15 
ROOT
HETATM    1  C   UNL     1     -43.957  56.812 -51.043  1.00  0.00     0.277 C 
HETATM    2  N   UNL     1     -43.325  55.800 -50.368  1.00  0.00    -0.322 N 
HETATM    3  O   UNL     1     -45.097  57.133 -50.706  1.00  0.00    -0.266 OA
HETATM    4  H   UNL     1     -43.950  55.455 -49.646  1.00  0.00     0.169 HD
ENDROOT
BRANCH   1   5
HETATM    5  C   UNL     1     -43.331  57.611 -52.160  1.00  0.00     0.156 A 
HETATM    6  C   UNL     1     -43.205  56.983 -53.497  1.00  0.00     0.016 A 
HETATM    7  C   UNL     1     -43.702  55.710 -53.800  1.00  0.00     0.015 A 
HETATM    8  C   UNL     1     -42.489  57.687 -54.465  1.00  0.00     0.046 A 
HETATM    9  C   UNL     1     -43.455  55.142 -55.055  1.00  0.00     0.001 A 
HETATM   10  C   UNL     1     -42.725  55.844 -56.012  1.00  0.00     0.001 A 
HETATM   11  C   UNL     1     -42.247  57.121 -55.723  1.00  0.00     0.018 A 
HETATM   12  C   UNL     1     -41.970  59.025 -54.138  1.00  0.00     0.272 A 
HETATM   13  O   UNL     1     -41.380  59.704 -54.972  1.00  0.00    -0.266 OA
HETATM   14  N   UNL     1     -42.190  59.466 -52.854  1.00  0.00    -0.242 N 
HETATM   15  N   UNL     1     -42.820  58.771 -51.864  1.00  0.00    -0.166 NA
HETATM   16  H   UNL     1     -41.796  60.365 -52.598  1.00  0.00     0.192 HD
ENDBRANCH   1   5
BRANCH   2  17
HETATM   17  C   UNL     1     -42.122  55.085 -50.495  1.00  0.00     0.035 A 
HETATM   18  C   UNL     1     -41.782  54.206 -51.524  1.00  0.00     0.042 A 
HETATM   19  C   UNL     1     -40.584  53.458 -51.483  1.00  0.00    -0.021 A 
HETATM   20  C   UNL     1     -39.703  53.655 -50.410  1.00  0.00     0.012 A 
HETATM   21  C   UNL     1     -40.010  54.561 -49.399  1.00  0.00     0.003 A 
HETATM   22  C   UNL     1     -41.212  55.262 -49.441  1.00  0.00     0.029 A 
BRANCH  19  23
HETATM   23  C   UNL     1     -40.258  52.461 -52.502  1.00  0.00     0.010 A 
HETATM   24  C   UNL     1     -39.545  51.238 -52.404  1.00  0.00     0.152 A 
HETATM   25  N   UNL     1     -39.480  50.573 -53.560  1.00  0.00    -0.187 NA
HETATM   26  N   UNL     1     -40.159  51.358 -54.408  1.00  0.00    -0.289 N 
HETATM   27  H   UNL     1     -40.261  51.052 -55.370  1.00  0.00     0.188 HD
HETATM   28  C   UNL     1     -40.641  52.497 -53.827  1.00  0.00     0.123 A 
ENDBRANCH  19  23
ENDBRANCH   2  17
TORSDOF 3
ENDMDL
MODEL 3
REMARK VINA RESULT:      -8.3      3.350      7.000
REMARK  3 active torsions:
REMARK  status: ('A' for Active; 'I' for Inactive)
REMARK    1  A    between atoms: C_9  and  C_10 
REMARK       I    between atoms: C_10  and  N_11 
REMARK    2  A    between atoms: N_11  and  C_12 
REMARK    3  A    between atoms: C_14  and  C_15 
ROOT
HETATM    1  C   UNL     1     -40.997  58.598 -53.520  1.00  0.00     0.277 C 
HETATM    2  N   UNL     1     -41.683  59.052 -54.616  1.00  0.00    -0.322 N 
HETATM    3  O   UNL     1     -39.950  59.159 -53.197  1.00  0.00    -0.266 OA
HETATM    4  H   UNL     1     -41.176  59.838 -55.011  1.00  0.00     0.169 HD
ENDROOT
BRANCH   1   5
HETATM    5  C   UNL     1     -41.461  57.468 -52.634  1.00  0.00     0.156 A 
HETATM    6  C   UNL     1     -41.257  56.074 -53.096  1.00  0.00     0.016 A 
HETATM    7  C   UNL     1     -40.591  55.745 -54.283  1.00  0.00     0.015 A 
HETATM    8  C   UNL     1     -41.829  55.060 -52.329  1.00  0.00     0.046 A 
HETATM    9  C   UNL     1     -40.527  54.413 -54.704  1.00  0.00     0.001 A 
HETATM   10  C   UNL     1     -41.115  53.405 -53.941  1.00  0.00     0.001 A 
HETATM   11  C   UNL     1     -41.760  53.725 -52.747  1.00  0.00     0.018 A 
HETATM   12  C   UNL     1     -42.528  55.413 -51.082  1.00  0.00     0.272 A 
HETATM   13  O   UNL     1     -43.001  54.553 -50.348  1.00  0.00    -0.266 OA
HETATM   14  N   UNL     1     -42.611  56.755 -50.792  1.00  0.00    -0.242 N 
HETATM   15  N   UNL     1     -42.129  57.774 -51.559  1.00  0.00    -0.166 NA
HETATM   16  H   UNL     1     -43.133  57.019 -49.962  1.00  0.00     0.192 HD
ENDBRANCH   1   5
BRANCH   2  17
HETATM   17  C   UNL     1     -42.809  58.648 -55.355  1.00  0.00     0.035 A 
HETATM   18  C   UNL     1     -42.802  58.003 -56.593  1.00  0.00     0.042 A 
HETATM   19  C   UNL     1     -44.004  57.747 -57.292  1.00  0.00    -0.021 A 
HETATM   20  C   UNL     1     -45.220  58.101 -56.692  1.00  0.00     0.012 A 
HETATM   21  C   UNL     1     -45.244  58.705 -55.439  1.00  0.00     0.003 A 
HETATM   22  C   UNL     1     -44.046  58.980 -54.783  1.00  0.00     0.029 A 
BRANCH  19  23
HETATM   23  C   UNL     1     -44.010  57.161 -58.631  1.00  0.00     0.010 A 
HETATM   24  C   UNL     1     -43.361  56.004 -59.137  1.00  0.00     0.152 A 
HETATM   25  N   UNL     1     -43.637  55.766 -60.422  1.00  0.00    -0.187 NA
HETATM   26  N   UNL     1     -44.472  56.761 -60.749  1.00  0.00    -0.289 N 
HETATM   27  H   UNL     1     -44.839  56.790 -61.695  1.00  0.00     0.188 HD
HETATM   28  C   UNL     1     -44.724  57.621 -59.718  1.00  0.00     0.123 A 
ENDBRANCH  19  23
ENDBRANCH   2  17
TORSDOF 3
ENDMDL
MODEL 4
REMARK VINA RESULT:      -8.0      1.894      4.074
REMARK  3 active torsions:
REMARK  status: ('A' for Active; 'I' for Inactive)
REMARK    1  A    between atoms: C_9  and  C_10 
REMARK       I    between atoms: C_10  and  N_11 
REMARK    2  A    between atoms: N_11  and  C_12 
REMARK    3  A    between atoms: C_14  and  C_15 
ROOT
HETATM    1  C   UNL     1     -44.024  56.746 -51.436  1.00  0.00     0.277 C 
HETATM    2  N   UNL     1     -43.187  56.147 -50.531  1.00  0.00    -0.322 N 
HETATM    3  O   UNL     1     -45.026  57.332 -51.025  1.00  0.00    -0.266 OA
HETATM    4  H   UNL     1     -43.560  56.297 -49.599  1.00  0.00     0.169 HD
ENDROOT
BRANCH   1   5
HETATM    5  C   UNL     1     -43.782  56.783 -52.925  1.00  0.00     0.156 A 
HETATM    6  C   UNL     1     -43.115  57.972 -53.507  1.00  0.00     0.016 A 
HETATM    7  C   UNL     1     -42.632  59.038 -52.737  1.00  0.00     0.015 A 
HETATM    8  C   UNL     1     -43.042  58.044 -54.897  1.00  0.00     0.046 A 
HETATM    9  C   UNL     1     -42.107  60.173 -53.363  1.00  0.00     0.001 A 
HETATM   10  C   UNL     1     -42.050  60.245 -54.754  1.00  0.00     0.001 A 
HETATM   11  C   UNL     1     -42.510  59.178 -55.525  1.00  0.00     0.018 A 
HETATM   12  C   UNL     1     -43.552  56.920 -55.699  1.00  0.00     0.272 A 
HETATM   13  O   UNL     1     -43.462  56.913 -56.922  1.00  0.00    -0.266 OA
HETATM   14  N   UNL     1     -44.125  55.884 -54.999  1.00  0.00    -0.242 N 
HETATM   15  N   UNL     1     -44.281  55.819 -53.646  1.00  0.00    -0.166 NA
HETATM   16  H   UNL     1     -44.527  55.125 -55.539  1.00  0.00     0.192 HD
ENDBRANCH   1   5
BRANCH   2  17
HETATM   17  C   UNL     1     -42.049  55.323 -50.583  1.00  0.00     0.035 A 
HETATM   18  C   UNL     1     -41.707  54.443 -51.611  1.00  0.00     0.042 A 
HETATM   19  C   UNL     1     -40.591  53.583 -51.497  1.00  0.00    -0.021 A 
HETATM   20  C   UNL     1     -39.790  53.668 -50.350  1.00  0.00     0.012 A 
HETATM   21  C   UNL     1     -40.095  54.571 -49.337  1.00  0.00     0.003 A 
HETATM   22  C   UNL     1     -41.219  55.385 -49.453  1.00  0.00     0.029 A 
BRANCH  19  23
HETATM   23  C   UNL     1     -40.274  52.588 -52.520  1.00  0.00     0.010 A 
HETATM   24  C   UNL     1     -39.503  51.398 -52.445  1.00  0.00     0.152 A 
HETATM   25  N   UNL     1     -39.468  50.720 -53.595  1.00  0.00    -0.187 NA
HETATM   26  N   UNL     1     -40.224  51.463 -54.415  1.00  0.00    -0.289 N 
HETATM   27  H   UNL     1     -40.362  51.140 -55.368  1.00  0.00     0.188 HD
HETATM   28  C   UNL     1     -40.726  52.588 -53.824  1.00  0.00     0.123 A 
ENDBRANCH  19  23
ENDBRANCH   2  17
TORSDOF 3
ENDMDL
MODEL 5
REMARK VINA RESULT:      -7.9     15.419     17.850
REMARK  3 active torsions:
REMARK  status: ('A' for Active; 'I' for Inactive)
REMARK    1  A    between atoms: C_9  and  C_10 
REMARK       I    between atoms: C_10  and  N_11 
REMARK    2  A    between atoms: N_11  and  C_12 
REMARK    3  A    between atoms: C_14  and  C_15 
ROOT
HETATM    1  C   UNL     1     -37.510  40.268 -52.719  1.00  0.00     0.277 C 
HETATM    2  N   UNL     1     -37.714  41.138 -53.758  1.00  0.00    -0.322 N 
HETATM    3  O   UNL     1     -38.323  40.241 -51.795  1.00  0.00    -0.266 OA
HETATM    4  H   UNL     1     -38.569  41.657 -53.581  1.00  0.00     0.169 HD
ENDROOT
BRANCH   1   5
HETATM    5  C   UNL     1     -36.365  39.288 -52.643  1.00  0.00     0.156 A 
HETATM    6  C   UNL     1     -35.115  39.708 -51.966  1.00  0.00     0.016 A 
HETATM    7  C   UNL     1     -34.962  40.945 -51.329  1.00  0.00     0.015 A 
HETATM    8  C   UNL     1     -34.027  38.839 -52.044  1.00  0.00     0.046 A 
HETATM    9  C   UNL     1     -33.719  41.313 -50.802  1.00  0.00     0.001 A 
HETATM   10  C   UNL     1     -32.632  40.446 -50.897  1.00  0.00     0.001 A 
HETATM   11  C   UNL     1     -32.784  39.204 -51.511  1.00  0.00     0.018 A 
HETATM   12  C   UNL     1     -34.196  37.540 -52.715  1.00  0.00     0.272 A 
HETATM   13  O   UNL     1     -33.284  36.721 -52.763  1.00  0.00    -0.266 OA
HETATM   14  N   UNL     1     -35.429  37.301 -53.275  1.00  0.00    -0.242 N 
HETATM   15  N   UNL     1     -36.488  38.160 -53.283  1.00  0.00    -0.166 NA
HETATM   16  H   UNL     1     -35.546  36.431 -53.785  1.00  0.00     0.192 HD
ENDBRANCH   1   5
BRANCH   2  17
HETATM   17  C   UNL     1     -37.007  41.545 -54.903  1.00  0.00     0.035 A 
HETATM   18  C   UNL     1     -37.372  41.313 -56.230  1.00  0.00     0.042 A 
HETATM   19  C   UNL     1     -36.519  41.675 -57.297  1.00  0.00    -0.021 A 
HETATM   20  C   UNL     1     -35.314  42.329 -57.005  1.00  0.00     0.012 A 
HETATM   21  C   UNL     1     -34.958  42.605 -55.688  1.00  0.00     0.003 A 
HETATM   22  C   UNL     1     -35.797  42.209 -54.650  1.00  0.00     0.029 A 
BRANCH  19  23
HETATM   23  C   UNL     1     -36.839  41.353 -58.687  1.00  0.00     0.010 A 
HETATM   24  C   UNL     1     -36.891  40.103 -59.358  1.00  0.00     0.152 A 
HETATM   25  N   UNL     1     -37.260  40.207 -60.637  1.00  0.00    -0.187 NA
HETATM   26  N   UNL     1     -37.459  41.523 -60.796  1.00  0.00    -0.289 N 
HETATM   27  H   UNL     1     -37.765  41.858 -61.704  1.00  0.00     0.188 HD
HETATM   28  C   UNL     1     -37.219  42.250 -59.664  1.00  0.00     0.123 A 
ENDBRANCH  19  23
ENDBRANCH   2  17
TORSDOF 3
ENDMDL
MODEL 6
REMARK VINA RESULT:      -7.6      2.677      4.241
REMARK  3 active torsions:
REMARK  status: ('A' for Active; 'I' for Inactive)
REMARK    1  A    between atoms: C_9  and  C_10 
REMARK       I    between atoms: C_10  and  N_11 
REMARK    2  A    between atoms: N_11  and  C_12 
REMARK    3  A    between atoms: C_14  and  C_15 
ROOT
HETATM    1  C   UNL     1     -43.702  56.094 -51.300  1.00  0.00     0.277 C 
HETATM    2  N   UNL     1     -43.559  54.917 -51.987  1.00  0.00    -0.322 N 
HETATM    3  O   UNL     1     -44.722  56.277 -50.636  1.00  0.00    -0.266 OA
HETATM    4  H   UNL     1     -44.382  54.346 -51.822  1.00  0.00     0.169 HD
ENDROOT
BRANCH   1   5
HETATM    5  C   UNL     1     -42.661  57.186 -51.258  1.00  0.00     0.156 A 
HETATM    6  C   UNL     1     -42.814  58.349 -52.165  1.00  0.00     0.016 A 
HETATM    7  C   UNL     1     -43.915  58.524 -53.012  1.00  0.00     0.015 A 
HETATM    8  C   UNL     1     -41.763  59.263 -52.210  1.00  0.00     0.046 A 
HETATM    9  C   UNL     1     -43.941  59.593 -53.914  1.00  0.00     0.001 A 
HETATM   10  C   UNL     1     -42.879  60.495 -53.966  1.00  0.00     0.001 A 
HETATM   11  C   UNL     1     -41.791  60.337 -53.109  1.00  0.00     0.018 A 
HETATM   12  C   UNL     1     -40.609  59.071 -51.316  1.00  0.00     0.272 A 
HETATM   13  O   UNL     1     -39.685  59.877 -51.282  1.00  0.00    -0.266 OA
HETATM   14  N   UNL     1     -40.634  57.947 -50.524  1.00  0.00    -0.242 N 
HETATM   15  N   UNL     1     -41.611  56.995 -50.511  1.00  0.00    -0.166 NA
HETATM   16  H   UNL     1     -39.824  57.774 -49.938  1.00  0.00     0.192 HD
ENDBRANCH   1   5
BRANCH   2  17
HETATM   17  C   UNL     1     -42.644  54.376 -52.907  1.00  0.00     0.035 A 
HETATM   18  C   UNL     1     -42.031  53.125 -52.832  1.00  0.00     0.042 A 
HETATM   19  C   UNL     1     -41.040  52.738 -53.761  1.00  0.00    -0.021 A 
HETATM   20  C   UNL     1     -40.718  53.614 -54.807  1.00  0.00     0.012 A 
HETATM   21  C   UNL     1     -41.353  54.847 -54.920  1.00  0.00     0.003 A 
HETATM   22  C   UNL     1     -42.302  55.224 -53.972  1.00  0.00     0.029 A 
BRANCH  19  23
HETATM   23  C   UNL     1     -40.318  51.472 -53.641  1.00  0.00     0.010 A 
HETATM   24  C   UNL     1     -40.150  50.411 -54.570  1.00  0.00     0.152 A 
HETATM   25  N   UNL     1     -39.385  49.421 -54.104  1.00  0.00    -0.187 NA
HETATM   26  N   UNL     1     -39.048  49.840 -52.877  1.00  0.00    -0.289 N 
HETATM   27  H   UNL     1     -38.444  49.249 -52.315  1.00  0.00     0.188 HD
HETATM   28  C   UNL     1     -39.580  51.055 -52.551  1.00  0.00     0.123 A 
ENDBRANCH  19  23
ENDBRANCH   2  17
TORSDOF 3
ENDMDL
MODEL 7
REMARK VINA RESULT:      -7.6      2.799      6.214
REMARK  3 active torsions:
REMARK  status: ('A' for Active; 'I' for Inactive)
REMARK    1  A    between atoms: C_9  and  C_10 
REMARK       I    between atoms: C_10  and  N_11 
REMARK    2  A    between atoms: N_11  and  C_12 
REMARK    3  A    between atoms: C_14  and  C_15 
ROOT
HETATM    1  C   UNL     1     -43.254  55.131 -53.541  1.00  0.00     0.277 C 
HETATM    2  N   UNL     1     -43.419  56.470 -53.781  1.00  0.00    -0.322 N 
HETATM    3  O   UNL     1     -43.800  54.319 -54.289  1.00  0.00    -0.266 OA
HETATM    4  H   UNL     1     -44.009  56.581 -54.600  1.00  0.00     0.169 HD
ENDROOT
BRANCH   1   5
HETATM    5  C   UNL     1     -42.398  54.564 -52.435  1.00  0.00     0.156 A 
HETATM    6  C   UNL     1     -41.341  53.586 -52.785  1.00  0.00     0.016 A 
HETATM    7  C   UNL     1     -41.044  53.211 -54.102  1.00  0.00     0.015 A 
HETATM    8  C   UNL     1     -40.671  52.969 -51.730  1.00  0.00     0.046 A 
HETATM    9  C   UNL     1     -40.103  52.206 -54.349  1.00  0.00     0.001 A 
HETATM   10  C   UNL     1     -39.448  51.582 -53.288  1.00  0.00     0.001 A 
HETATM   11  C   UNL     1     -39.724  51.966 -51.977  1.00  0.00     0.018 A 
HETATM   12  C   UNL     1     -40.989  53.368 -50.350  1.00  0.00     0.272 A 
HETATM   13  O   UNL     1     -40.389  52.892 -49.391  1.00  0.00    -0.266 OA
HETATM   14  N   UNL     1     -41.985  54.304 -50.202  1.00  0.00    -0.242 N 
HETATM   15  N   UNL     1     -42.711  54.869 -51.208  1.00  0.00    -0.166 NA
HETATM   16  H   UNL     1     -42.251  54.553 -49.254  1.00  0.00     0.192 HD
ENDBRANCH   1   5
BRANCH   2  17
HETATM   17  C   UNL     1     -43.074  57.672 -53.140  1.00  0.00     0.035 A 
HETATM   18  C   UNL     1     -43.773  58.291 -52.102  1.00  0.00     0.042 A 
HETATM   19  C   UNL     1     -43.387  59.559 -51.613  1.00  0.00    -0.021 A 
HETATM   20  C   UNL     1     -42.245  60.169 -52.150  1.00  0.00     0.012 A 
HETATM   21  C   UNL     1     -41.513  59.544 -53.155  1.00  0.00     0.003 A 
HETATM   22  C   UNL     1     -41.931  58.310 -53.647  1.00  0.00     0.029 A 
BRANCH  19  23
HETATM   23  C   UNL     1     -44.165  60.265 -50.595  1.00  0.00     0.010 A 
HETATM   24  C   UNL     1     -45.500  60.074 -50.155  1.00  0.00     0.152 A 
HETATM   25  N   UNL     1     -45.853  60.902 -49.168  1.00  0.00    -0.187 NA
HETATM   26  N   UNL     1     -44.744  61.625 -48.960  1.00  0.00    -0.289 N 
HETATM   27  H   UNL     1     -44.760  62.332 -48.232  1.00  0.00     0.188 HD
HETATM   28  C   UNL     1     -43.710  61.287 -49.787  1.00  0.00     0.123 A 
ENDBRANCH  19  23
ENDBRANCH   2  17
TORSDOF 3
ENDMDL
MODEL 8
REMARK VINA RESULT:      -7.6      3.045      6.310
REMARK  3 active torsions:
REMARK  status: ('A' for Active; 'I' for Inactive)
REMARK    1  A    between atoms: C_9  and  C_10 
REMARK       I    between atoms: C_10  and  N_11 
REMARK    2  A    between atoms: N_11  and  C_12 
REMARK    3  A    between atoms: C_14  and  C_15 
ROOT
HETATM    1  C   UNL     1     -44.471  57.788 -52.518  1.00  0.00     0.277 C 
HETATM    2  N   UNL     1     -44.786  57.026 -53.612  1.00  0.00    -0.322 N 
HETATM    3  O   UNL     1     -45.379  58.314 -51.875  1.00  0.00    -0.266 OA
HETATM    4  H   UNL     1     -45.795  57.020 -53.720  1.00  0.00     0.169 HD
ENDROOT
BRANCH   1   5
HETATM    5  C   UNL     1     -43.068  57.999 -52.002  1.00  0.00     0.156 A 
HETATM    6  C   UNL     1     -42.442  56.928 -51.191  1.00  0.00     0.016 A 
HETATM    7  C   UNL     1     -43.057  55.696 -50.934  1.00  0.00     0.015 A 
HETATM    8  C   UNL     1     -41.209  57.212 -50.605  1.00  0.00     0.046 A 
HETATM    9  C   UNL     1     -42.449  54.775 -50.074  1.00  0.00     0.001 A 
HETATM   10  C   UNL     1     -41.224  55.072 -49.479  1.00  0.00     0.001 A 
HETATM   11  C   UNL     1     -40.597  56.288 -49.749  1.00  0.00     0.018 A 
HETATM   12  C   UNL     1     -40.569  58.509 -50.879  1.00  0.00     0.272 A 
HETATM   13  O   UNL     1     -39.461  58.784 -50.429  1.00  0.00    -0.266 OA
HETATM   14  N   UNL     1     -41.279  59.383 -51.669  1.00  0.00    -0.242 N 
HETATM   15  N   UNL     1     -42.519  59.164 -52.193  1.00  0.00    -0.166 NA
HETATM   16  H   UNL     1     -40.874  60.300 -51.826  1.00  0.00     0.192 HD
ENDBRANCH   1   5
BRANCH   2  17
HETATM   17  C   UNL     1     -44.081  56.368 -54.635  1.00  0.00     0.035 A 
HETATM   18  C   UNL     1     -43.694  56.913 -55.860  1.00  0.00     0.042 A 
HETATM   19  C   UNL     1     -43.086  56.116 -56.857  1.00  0.00    -0.021 A 
HETATM   20  C   UNL     1     -42.820  54.769 -56.572  1.00  0.00     0.012 A 
HETATM   21  C   UNL     1     -43.161  54.224 -55.339  1.00  0.00     0.003 A 
HETATM   22  C   UNL     1     -43.791  55.018 -54.384  1.00  0.00     0.029 A 
BRANCH  19  23
HETATM   23  C   UNL     1     -42.764  56.646 -58.181  1.00  0.00     0.010 A 
HETATM   24  C   UNL     1     -42.928  56.075 -59.470  1.00  0.00     0.152 A 
HETATM   25  N   UNL     1     -42.543  56.887 -60.458  1.00  0.00    -0.187 NA
HETATM   26  N   UNL     1     -42.138  57.989 -59.813  1.00  0.00    -0.289 N 
HETATM   27  H   UNL     1     -41.803  58.773 -60.363  1.00  0.00     0.188 HD
HETATM   28  C   UNL     1     -42.246  57.896 -58.454  1.00  0.00     0.123 A 
ENDBRANCH  19  23
ENDBRANCH   2  17
TORSDOF 3
ENDMDL
MODEL 9
REMARK VINA RESULT:      -7.4      2.667      4.910
REMARK  3 active torsions:
REMARK  status: ('A' for Active; 'I' for Inactive)
REMARK    1  A    between atoms: C_9  and  C_10 
REMARK       I    between atoms: C_10  and  N_11 
REMARK    2  A    between atoms: N_11  and  C_12 
REMARK    3  A    between atoms: C_14  and  C_15 
ROOT
HETATM    1  C   UNL     1     -43.186  55.113 -50.779  1.00  0.00     0.277 C 
HETATM    2  N   UNL     1     -42.467  54.347 -51.659  1.00  0.00    -0.322 N 
HETATM    3  O   UNL     1     -43.520  54.627 -49.698  1.00  0.00    -0.266 OA
HETATM    4  H   UNL     1     -42.317  53.433 -51.242  1.00  0.00     0.169 HD
ENDROOT
BRANCH   1   5
HETATM    5  C   UNL     1     -43.567  56.554 -51.019  1.00  0.00     0.156 A 
HETATM    6  C   UNL     1     -42.497  57.580 -51.021  1.00  0.00     0.016 A 
HETATM    7  C   UNL     1     -41.137  57.276 -50.882  1.00  0.00     0.015 A 
HETATM    8  C   UNL     1     -42.896  58.914 -51.095  1.00  0.00     0.046 A 
HETATM    9  C   UNL     1     -40.195  58.305 -50.790  1.00  0.00     0.001 A 
HETATM   10  C   UNL     1     -40.602  59.637 -50.849  1.00  0.00     0.001 A 
HETATM   11  C   UNL     1     -41.952  59.945 -51.009  1.00  0.00     0.018 A 
HETATM   12  C   UNL     1     -44.327  59.226 -51.241  1.00  0.00     0.272 A 
HETATM   13  O   UNL     1     -44.722  60.381 -51.362  1.00  0.00    -0.266 OA
HETATM   14  N   UNL     1     -45.187  58.152 -51.239  1.00  0.00    -0.242 N 
HETATM   15  N   UNL     1     -44.835  56.843 -51.092  1.00  0.00    -0.166 NA
HETATM   16  H   UNL     1     -46.180  58.353 -51.289  1.00  0.00     0.192 HD
ENDBRANCH   1   5
BRANCH   2  17
HETATM   17  C   UNL     1     -42.001  54.474 -52.979  1.00  0.00     0.035 A 
HETATM   18  C   UNL     1     -42.626  55.165 -54.018  1.00  0.00     0.042 A 
HETATM   19  C   UNL     1     -42.114  55.127 -55.334  1.00  0.00    -0.021 A 
HETATM   20  C   UNL     1     -40.924  54.426 -55.574  1.00  0.00     0.012 A 
HETATM   21  C   UNL     1     -40.267  53.769 -54.539  1.00  0.00     0.003 A 
HETATM   22  C   UNL     1     -40.807  53.790 -53.256  1.00  0.00     0.029 A 
BRANCH  19  23
HETATM   23  C   UNL     1     -42.809  55.764 -56.453  1.00  0.00     0.010 A 
HETATM   24  C   UNL     1     -43.099  57.130 -56.703  1.00  0.00     0.152 A 
HETATM   25  N   UNL     1     -43.728  57.330 -57.864  1.00  0.00    -0.187 NA
HETATM   26  N   UNL     1     -43.837  56.095 -58.374  1.00  0.00    -0.289 N 
HETATM   27  H   UNL     1     -44.281  55.987 -59.280  1.00  0.00     0.188 HD
HETATM   28  C   UNL     1     -43.308  55.126 -57.570  1.00  0.00     0.123 A 
ENDBRANCH  19  23
ENDBRANCH   2  17
TORSDOF 3
ENDMDL
MODEL 10
REMARK VINA RESULT:      -7.3     15.612     17.576
REMARK  3 active torsions:
REMARK  status: ('A' for Active; 'I' for Inactive)
REMARK    1  A    between atoms: C_9  and  C_10 
REMARK       I    between atoms: C_10  and  N_11 
REMARK    2  A    between atoms: N_11  and  C_12 
REMARK    3  A    between atoms: C_14  and  C_15 
ROOT
HETATM    1  C   UNL     1     -32.485  40.147 -55.435  1.00  0.00     0.277 C 
HETATM    2  N   UNL     1     -32.423  40.477 -54.106  1.00  0.00    -0.322 N 
HETATM    3  O   UNL     1     -31.510  40.373 -56.152  1.00  0.00    -0.266 OA
HETATM    4  H   UNL     1     -31.512  40.884 -53.918  1.00  0.00     0.169 HD
ENDROOT
BRANCH   1   5
HETATM    5  C   UNL     1     -33.665  39.472 -56.090  1.00  0.00     0.156 A 
HETATM    6  C   UNL     1     -34.755  40.318 -56.633  1.00  0.00     0.016 A 
HETATM    7  C   UNL     1     -34.717  41.718 -56.634  1.00  0.00     0.015 A 
HETATM    8  C   UNL     1     -35.897  39.664 -57.094  1.00  0.00     0.046 A 
HETATM    9  C   UNL     1     -35.827  42.449 -57.070  1.00  0.00     0.001 A 
HETATM   10  C   UNL     1     -36.971  41.789 -57.515  1.00  0.00     0.001 A 
HETATM   11  C   UNL     1     -37.007  40.396 -57.536  1.00  0.00     0.018 A 
HETATM   12  C   UNL     1     -35.930  38.193 -57.089  1.00  0.00     0.272 A 
HETATM   13  O   UNL     1     -36.891  37.572 -57.534  1.00  0.00    -0.266 OA
HETATM   14  N   UNL     1     -34.826  37.561 -56.567  1.00  0.00    -0.242 N 
HETATM   15  N   UNL     1     -33.727  38.172 -56.039  1.00  0.00    -0.166 NA
HETATM   16  H   UNL     1     -34.854  36.548 -56.510  1.00  0.00     0.192 HD
ENDBRANCH   1   5
BRANCH   2  17
HETATM   17  C   UNL     1     -33.308  40.487 -53.015  1.00  0.00     0.035 A 
HETATM   18  C   UNL     1     -34.699  40.385 -53.072  1.00  0.00     0.042 A 
HETATM   19  C   UNL     1     -35.491  40.520 -51.910  1.00  0.00    -0.021 A 
HETATM   20  C   UNL     1     -34.852  40.702 -50.676  1.00  0.00     0.012 A 
HETATM   21  C   UNL     1     -33.464  40.763 -50.598  1.00  0.00     0.003 A 
HETATM   22  C   UNL     1     -32.703  40.662 -51.760  1.00  0.00     0.029 A 
BRANCH  19  23
HETATM   23  C   UNL     1     -36.953  40.514 -51.965  1.00  0.00     0.010 A 
HETATM   24  C   UNL     1     -37.855  41.349 -52.675  1.00  0.00     0.152 A 
HETATM   25  N   UNL     1     -39.134  41.009 -52.500  1.00  0.00    -0.187 NA
HETATM   26  N   UNL     1     -39.064  39.948 -51.685  1.00  0.00    -0.289 N 
HETATM   27  H   UNL     1     -39.930  39.494 -51.410  1.00  0.00     0.188 HD
HETATM   28  C   UNL     1     -37.787  39.614 -51.334  1.00  0.00     0.123 A 
ENDBRANCH  19  23
ENDBRANCH   2  17
TORSDOF 3
ENDMDL
