MODEL 1
REMARK VINA RESULT:      -9.4      0.000      0.000
REMARK  7 active torsions:
REMARK  status: ('A' for Active; 'I' for Inactive)
REMARK    1  A    between atoms: C_3  and  N_4 
REMARK    2  A    between atoms: N_7  and  C_9 
REMARK    3  A    between atoms: C_9  and  C_10 
REMARK    4  A    between atoms: C_10  and  C_11 
REMARK    5  A    between atoms: C_11  and  N_12 
REMARK       I    between atoms: N_12  and  C_13 
REMARK    6  A    between atoms: C_13  and  C_14 
REMARK    7  A    between atoms: C_14  and  N_15 
ROOT
HETATM    1  N   UNL     1     -42.194  59.034 -51.904  1.00  0.00    -0.360 N 
HETATM    2  C   UNL     1     -41.031  58.503 -51.384  1.00  0.00     0.237 C 
HETATM    3  O   UNL     1     -39.925  58.882 -51.772  1.00  0.00    -0.272 OA
HETATM    4  H   UNL     1     -43.069  58.665 -51.533  1.00  0.00     0.162 HD
ENDROOT
BRANCH   1   5
HETATM    5  C   UNL     1     -42.174  60.216 -52.729  1.00  0.00     0.124 C 
BRANCH   5   6
HETATM    6  C   UNL     1     -42.346  59.888 -54.214  1.00  0.00     0.047 C 
BRANCH   6   7
HETATM    7  C   UNL     1     -43.236  60.927 -54.882  1.00  0.00     0.236 C 
BRANCH   7   8
HETATM    8  N   UNL     1     -44.073  60.331 -56.000  1.00  0.00    -0.068 N 
HETATM    9  C   UNL     1     -43.296  60.174 -57.316  1.00  0.00     0.254 C 
HETATM   10  C   UNL     1     -44.113  59.411 -58.380  1.00  0.00     0.150 C 
HETATM   11  N   UNL     1     -44.536  58.116 -57.816  1.00  0.00    -0.377 N 
HETATM   12  C   UNL     1     -45.433  58.264 -56.659  1.00  0.00     0.150 C 
HETATM   13  C   UNL     1     -44.673  58.990 -55.530  1.00  0.00     0.254 C 
HETATM   14  H   UNL     1     -44.861  60.966 -56.184  1.00  0.00     0.280 HD
BRANCH  11  15
HETATM   15  C   UNL     1     -44.847  57.146 -58.779  1.00  0.00     0.037 A 
HETATM   16  C   UNL     1     -44.020  56.004 -58.928  1.00  0.00    -0.035 A 
HETATM   17  C   UNL     1     -42.803  55.771 -58.070  1.00  0.00     0.050 C 
HETATM   18  C   UNL     1     -44.318  55.039 -59.908  1.00  0.00     0.011 A 
HETATM   19  C   UNL     1     -45.445  55.168 -60.716  1.00  0.00     0.024 A 
HETATM   20  C   UNL     1     -46.272  56.271 -60.556  1.00  0.00     0.036 A 
HETATM   21  C   UNL     1     -45.978  57.251 -59.604  1.00  0.00     0.053 A 
HETATM   22 CL   UNL     1     -47.672  56.436 -61.541  1.00  0.00    -0.084 Cl
ENDBRANCH  11  15
ENDBRANCH   7   8
ENDBRANCH   6   7
ENDBRANCH   5   6
ENDBRANCH   1   5
BRANCH   2  23
HETATM   23  C   UNL     1     -41.206  57.320 -50.434  1.00  0.00     0.257 C 
BRANCH  23  24
HETATM   24  N   UNL     1     -41.125  56.028 -51.107  1.00  0.00    -0.224 N 
HETATM   25  N   UNL     1     -41.401  56.016 -52.487  1.00  0.00    -0.180 NA
HETATM   26  C   UNL     1     -41.190  54.927 -53.175  1.00  0.00     0.153 A 
HETATM   27  C   UNL     1     -40.712  53.733 -52.538  1.00  0.00     0.028 A 
HETATM   28  C   UNL     1     -40.498  53.746 -51.183  1.00  0.00     0.116 A 
HETATM   29  C   UNL     1     -40.366  52.447 -53.026  1.00  0.00     0.005 A 
HETATM   30  N   UNL     1     -40.054  52.511 -50.805  1.00  0.00    -0.350 N 
HETATM   31  C   UNL     1     -40.699  54.906 -50.367  1.00  0.00     0.291 A 
HETATM   32  H   UNL     1     -39.806  52.245 -49.861  1.00  0.00     0.166 HD
HETATM   33  C   UNL     1     -39.956  51.698 -51.916  1.00  0.00     0.044 A 
HETATM   34  C   UNL     1     -39.529  50.368 -52.020  1.00  0.00     0.030 A 
HETATM   35  C   UNL     1     -39.514  49.791 -53.294  1.00  0.00     0.002 A 
HETATM   36  C   UNL     1     -39.913  50.513 -54.416  1.00  0.00     0.001 A 
HETATM   37  C   UNL     1     -40.344  51.840 -54.297  1.00  0.00     0.014 A 
HETATM   38  O   UNL     1     -40.522  54.912 -49.154  1.00  0.00    -0.264 OA
ENDBRANCH  23  24
ENDBRANCH   2  23
TORSDOF 7
ENDMDL
MODEL 2
REMARK VINA RESULT:      -9.1      1.678      2.203
REMARK  7 active torsions:
REMARK  status: ('A' for Active; 'I' for Inactive)
REMARK    1  A    between atoms: C_3  and  N_4 
REMARK    2  A    between atoms: N_7  and  C_9 
REMARK    3  A    between atoms: C_9  and  C_10 
REMARK    4  A    between atoms: C_10  and  C_11 
REMARK    5  A    between atoms: C_11  and  N_12 
REMARK       I    between atoms: N_12  and  C_13 
REMARK    6  A    between atoms: C_13  and  C_14 
REMARK    7  A    between atoms: C_14  and  N_15 
ROOT
HETATM    1  N   UNL     1     -42.794  59.096 -50.859  1.00  0.00    -0.360 N 
HETATM    2  C   UNL     1     -42.662  57.727 -50.963  1.00  0.00     0.237 C 
HETATM    3  O   UNL     1     -43.648  56.991 -51.007  1.00  0.00    -0.272 OA
HETATM    4  H   UNL     1     -41.930  59.637 -50.826  1.00  0.00     0.162 HD
ENDROOT
BRANCH   1   5
HETATM    5  C   UNL     1     -44.069  59.743 -51.047  1.00  0.00     0.124 C 
BRANCH   5   6
HETATM    6  C   UNL     1     -43.969  60.967 -51.960  1.00  0.00     0.047 C 
BRANCH   6   7
HETATM    7  C   UNL     1     -42.902  60.744 -53.022  1.00  0.00     0.236 C 
BRANCH   7   8
HETATM    8  N   UNL     1     -43.259  59.608 -53.964  1.00  0.00    -0.068 N 
HETATM    9  C   UNL     1     -44.175  60.046 -55.117  1.00  0.00     0.254 C 
HETATM   10  C   UNL     1     -44.381  58.920 -56.151  1.00  0.00     0.150 C 
HETATM   11  N   UNL     1     -43.062  58.460 -56.622  1.00  0.00    -0.377 N 
HETATM   12  C   UNL     1     -42.247  57.869 -55.548  1.00  0.00     0.150 C 
HETATM   13  C   UNL     1     -41.964  58.950 -54.486  1.00  0.00     0.254 C 
HETATM   14  H   UNL     1     -43.764  58.892 -53.427  1.00  0.00     0.280 HD
BRANCH  11  15
HETATM   15  C   UNL     1     -43.090  57.816 -57.867  1.00  0.00     0.037 A 
HETATM   16  C   UNL     1     -42.509  58.438 -59.001  1.00  0.00    -0.035 A 
HETATM   17  C   UNL     1     -41.833  59.783 -58.926  1.00  0.00     0.050 C 
HETATM   18  C   UNL     1     -42.555  57.803 -60.256  1.00  0.00     0.011 A 
HETATM   19  C   UNL     1     -43.133  56.544 -60.397  1.00  0.00     0.024 A 
HETATM   20  C   UNL     1     -43.680  55.920 -59.285  1.00  0.00     0.036 A 
HETATM   21  C   UNL     1     -43.665  56.547 -58.035  1.00  0.00     0.053 A 
HETATM   22 CL   UNL     1     -44.389  54.360 -59.445  1.00  0.00    -0.084 Cl
ENDBRANCH  11  15
ENDBRANCH   7   8
ENDBRANCH   6   7
ENDBRANCH   5   6
ENDBRANCH   1   5
BRANCH   2  23
HETATM   23  C   UNL     1     -41.238  57.186 -50.857  1.00  0.00     0.257 C 
BRANCH  23  24
HETATM   24  N   UNL     1     -41.094  55.840 -51.404  1.00  0.00    -0.224 N 
HETATM   25  N   UNL     1     -41.150  55.719 -52.805  1.00  0.00    -0.180 NA
HETATM   26  C   UNL     1     -40.870  54.572 -53.362  1.00  0.00     0.153 A 
HETATM   27  C   UNL     1     -40.536  53.426 -52.564  1.00  0.00     0.028 A 
HETATM   28  C   UNL     1     -40.538  53.548 -51.197  1.00  0.00     0.116 A 
HETATM   29  C   UNL     1     -40.160  52.097 -52.886  1.00  0.00     0.005 A 
HETATM   30  N   UNL     1     -40.199  52.341 -50.657  1.00  0.00    -0.350 N 
HETATM   31  C   UNL     1     -40.826  54.775 -50.518  1.00  0.00     0.291 A 
HETATM   32  H   UNL     1     -40.111  52.150 -49.667  1.00  0.00     0.166 HD
HETATM   33  C   UNL     1     -39.954  51.435 -51.669  1.00  0.00     0.044 A 
HETATM   34  C   UNL     1     -39.559  50.094 -51.598  1.00  0.00     0.030 A 
HETATM   35  C   UNL     1     -39.363  49.412 -52.803  1.00  0.00     0.002 A 
HETATM   36  C   UNL     1     -39.557  50.045 -54.028  1.00  0.00     0.001 A 
HETATM   37  C   UNL     1     -39.958  51.385 -54.085  1.00  0.00     0.014 A 
HETATM   38  O   UNL     1     -40.843  54.880 -49.297  1.00  0.00    -0.264 OA
ENDBRANCH  23  24
ENDBRANCH   2  23
TORSDOF 7
ENDMDL
MODEL 3
REMARK VINA RESULT:      -9.1      3.164      7.918
REMARK  7 active torsions:
REMARK  status: ('A' for Active; 'I' for Inactive)
REMARK    1  A    between atoms: C_3  and  N_4 
REMARK    2  A    between atoms: N_7  and  C_9 
REMARK    3  A    between atoms: C_9  and  C_10 
REMARK    4  A    between atoms: C_10  and  C_11 
REMARK    5  A    between atoms: C_11  and  N_12 
REMARK       I    between atoms: N_12  and  C_13 
REMARK    6  A    between atoms: C_13  and  C_14 
REMARK    7  A    between atoms: C_14  and  N_15 
ROOT
HETATM    1  N   UNL     1     -43.920  59.434 -53.498  1.00  0.00    -0.360 N 
HETATM    2  C   UNL     1     -42.860  60.253 -53.832  1.00  0.00     0.237 C 
HETATM    3  O   UNL     1     -42.653  61.307 -53.230  1.00  0.00    -0.272 OA
HETATM    4  H   UNL     1     -44.027  58.581 -54.045  1.00  0.00     0.162 HD
ENDROOT
BRANCH   1   5
HETATM    5  C   UNL     1     -44.673  59.641 -52.286  1.00  0.00     0.124 C 
BRANCH   5   6
HETATM    6  C   UNL     1     -44.466  58.510 -51.276  1.00  0.00     0.047 C 
BRANCH   6   7
HETATM    7  C   UNL     1     -42.980  58.228 -51.101  1.00  0.00     0.236 C 
BRANCH   7   8
HETATM    8  N   UNL     1     -42.689  56.743 -50.973  1.00  0.00    -0.068 N 
HETATM    9  C   UNL     1     -43.198  55.924 -52.168  1.00  0.00     0.254 C 
HETATM   10  C   UNL     1     -42.739  54.453 -52.096  1.00  0.00     0.150 C 
HETATM   11  N   UNL     1     -41.271  54.418 -51.973  1.00  0.00    -0.377 N 
HETATM   12  C   UNL     1     -40.788  55.045 -50.732  1.00  0.00     0.150 C 
HETATM   13  C   UNL     1     -41.177  56.537 -50.745  1.00  0.00     0.254 C 
HETATM   14  H   UNL     1     -43.170  56.393 -50.134  1.00  0.00     0.280 HD
BRANCH  11  15
HETATM   15  C   UNL     1     -40.690  53.207 -52.377  1.00  0.00     0.037 A 
HETATM   16  C   UNL     1     -40.434  52.967 -53.751  1.00  0.00    -0.035 A 
HETATM   17  C   UNL     1     -40.750  53.980 -54.820  1.00  0.00     0.050 C 
HETATM   18  C   UNL     1     -39.871  51.744 -54.160  1.00  0.00     0.011 A 
HETATM   19  C   UNL     1     -39.521  50.772 -53.226  1.00  0.00     0.024 A 
HETATM   20  C   UNL     1     -39.745  51.014 -51.878  1.00  0.00     0.036 A 
HETATM   21  C   UNL     1     -40.326  52.213 -51.455  1.00  0.00     0.053 A 
HETATM   22 CL   UNL     1     -39.307  49.825 -50.714  1.00  0.00    -0.084 Cl
ENDBRANCH  11  15
ENDBRANCH   7   8
ENDBRANCH   6   7
ENDBRANCH   5   6
ENDBRANCH   1   5
BRANCH   2  23
HETATM   23  C   UNL     1     -42.078  59.853 -55.081  1.00  0.00     0.257 C 
BRANCH  23  24
HETATM   24  N   UNL     1     -42.869  59.070 -56.026  1.00  0.00    -0.224 N 
HETATM   25  N   UNL     1     -43.830  59.772 -56.778  1.00  0.00    -0.180 NA
HETATM   26  C   UNL     1     -44.454  59.163 -57.750  1.00  0.00     0.153 A 
HETATM   27  C   UNL     1     -44.199  57.781 -58.039  1.00  0.00     0.028 A 
HETATM   28  C   UNL     1     -43.298  57.097 -57.261  1.00  0.00     0.116 A 
HETATM   29  C   UNL     1     -44.687  56.892 -59.031  1.00  0.00     0.005 A 
HETATM   30  N   UNL     1     -43.224  55.812 -57.717  1.00  0.00    -0.350 N 
HETATM   31  C   UNL     1     -42.570  57.702 -56.187  1.00  0.00     0.291 A 
HETATM   32  H   UNL     1     -42.626  55.091 -57.334  1.00  0.00     0.166 HD
HETATM   33  C   UNL     1     -44.059  55.661 -58.806  1.00  0.00     0.044 A 
HETATM   34  C   UNL     1     -44.295  54.537 -59.607  1.00  0.00     0.030 A 
HETATM   35  C   UNL     1     -45.192  54.677 -60.671  1.00  0.00     0.002 A 
HETATM   36  C   UNL     1     -45.829  55.890 -60.920  1.00  0.00     0.001 A 
HETATM   37  C   UNL     1     -45.589  57.004 -60.107  1.00  0.00     0.014 A 
HETATM   38  O   UNL     1     -41.777  57.087 -55.483  1.00  0.00    -0.264 OA
ENDBRANCH  23  24
ENDBRANCH   2  23
TORSDOF 7
ENDMDL
MODEL 4
REMARK VINA RESULT:      -8.6      2.062      2.379
REMARK  7 active torsions:
REMARK  status: ('A' for Active; 'I' for Inactive)
REMARK    1  A    between atoms: C_3  and  N_4 
REMARK    2  A    between atoms: N_7  and  C_9 
REMARK    3  A    between atoms: C_9  and  C_10 
REMARK    4  A    between atoms: C_10  and  C_11 
REMARK    5  A    between atoms: C_11  and  N_12 
REMARK       I    between atoms: N_12  and  C_13 
REMARK    6  A    between atoms: C_13  and  C_14 
REMARK    7  A    between atoms: C_14  and  N_15 
ROOT
HETATM    1  N   UNL     1     -42.601  59.271 -50.610  1.00  0.00    -0.360 N 
HETATM    2  C   UNL     1     -42.482  57.979 -51.080  1.00  0.00     0.237 C 
HETATM    3  O   UNL     1     -43.464  57.353 -51.482  1.00  0.00    -0.272 OA
HETATM    4  H   UNL     1     -41.743  59.721 -50.292  1.00  0.00     0.162 HD
ENDROOT
BRANCH   1   5
HETATM    5  C   UNL     1     -43.814  60.028 -50.796  1.00  0.00     0.124 C 
BRANCH   5   6
HETATM    6  C   UNL     1     -43.717  60.993 -51.981  1.00  0.00     0.047 C 
BRANCH   6   7
HETATM    7  C   UNL     1     -44.859  60.743 -52.956  1.00  0.00     0.236 C 
BRANCH   7   8
HETATM    8  N   UNL     1     -44.402  60.804 -54.402  1.00  0.00    -0.068 N 
HETATM    9  C   UNL     1     -42.935  60.386 -54.589  1.00  0.00     0.254 C 
HETATM   10  C   UNL     1     -42.549  60.290 -56.080  1.00  0.00     0.150 C 
HETATM   11  N   UNL     1     -43.487  59.376 -56.757  1.00  0.00    -0.377 N 
HETATM   12  C   UNL     1     -44.874  59.868 -56.738  1.00  0.00     0.150 C 
HETATM   13  C   UNL     1     -45.351  59.956 -55.274  1.00  0.00     0.254 C 
HETATM   14  H   UNL     1     -44.486  61.777 -54.725  1.00  0.00     0.280 HD
BRANCH  11  15
HETATM   15  C   UNL     1     -42.992  58.825 -57.947  1.00  0.00     0.037 A 
HETATM   16  C   UNL     1     -42.854  57.420 -58.074  1.00  0.00    -0.035 A 
HETATM   17  C   UNL     1     -43.236  56.468 -56.971  1.00  0.00     0.050 C 
HETATM   18  C   UNL     1     -42.337  56.866 -59.261  1.00  0.00     0.011 A 
HETATM   19  C   UNL     1     -41.994  57.680 -60.337  1.00  0.00     0.024 A 
HETATM   20  C   UNL     1     -42.152  59.054 -60.227  1.00  0.00     0.036 A 
HETATM   21  C   UNL     1     -42.640  59.623 -59.047  1.00  0.00     0.053 A 
HETATM   22 CL   UNL     1     -41.739  60.069 -61.553  1.00  0.00    -0.084 Cl
ENDBRANCH  11  15
ENDBRANCH   7   8
ENDBRANCH   6   7
ENDBRANCH   5   6
ENDBRANCH   1   5
BRANCH   2  23
HETATM   23  C   UNL     1     -41.108  57.335 -50.918  1.00  0.00     0.257 C 
BRANCH  23  24
HETATM   24  N   UNL     1     -41.033  55.993 -51.488  1.00  0.00    -0.224 N 
HETATM   25  N   UNL     1     -41.271  55.881 -52.871  1.00  0.00    -0.180 NA
HETATM   26  C   UNL     1     -41.062  54.739 -53.468  1.00  0.00     0.153 A 
HETATM   27  C   UNL     1     -40.624  53.590 -52.728  1.00  0.00     0.028 A 
HETATM   28  C   UNL     1     -40.448  53.703 -51.372  1.00  0.00     0.116 A 
HETATM   29  C   UNL     1     -40.289  52.264 -53.106  1.00  0.00     0.005 A 
HETATM   30  N   UNL     1     -40.038  52.493 -50.889  1.00  0.00    -0.350 N 
HETATM   31  C   UNL     1     -40.649  54.924 -50.653  1.00  0.00     0.291 A 
HETATM   32  H   UNL     1     -39.821  52.296 -49.920  1.00  0.00     0.166 HD
HETATM   33  C   UNL     1     -39.925  51.595 -51.930  1.00  0.00     0.044 A 
HETATM   34  C   UNL     1     -39.520  50.255 -51.921  1.00  0.00     0.030 A 
HETATM   35  C   UNL     1     -39.480  49.581 -53.146  1.00  0.00     0.002 A 
HETATM   36  C   UNL     1     -39.835  50.222 -54.331  1.00  0.00     0.001 A 
HETATM   37  C   UNL     1     -40.244  51.561 -54.325  1.00  0.00     0.014 A 
HETATM   38  O   UNL     1     -40.506  55.021 -49.439  1.00  0.00    -0.264 OA
ENDBRANCH  23  24
ENDBRANCH   2  23
TORSDOF 7
ENDMDL
MODEL 5
REMARK VINA RESULT:      -8.5      3.333      7.823
REMARK  7 active torsions:
REMARK  status: ('A' for Active; 'I' for Inactive)
REMARK    1  A    between atoms: C_3  and  N_4 
REMARK    2  A    between atoms: N_7  and  C_9 
REMARK    3  A    between atoms: C_9  and  C_10 
REMARK    4  A    between atoms: C_10  and  C_11 
REMARK    5  A    between atoms: C_11  and  N_12 
REMARK       I    between atoms: N_12  and  C_13 
REMARK    6  A    between atoms: C_13  and  C_14 
REMARK    7  A    between atoms: C_14  and  N_15 
ROOT
HETATM    1  N   UNL     1     -44.320  61.148 -54.376  1.00  0.00    -0.360 N 
HETATM    2  C   UNL     1     -43.574  62.162 -54.942  1.00  0.00     0.237 C 
HETATM    3  O   UNL     1     -43.289  63.177 -54.305  1.00  0.00    -0.272 OA
HETATM    4  H   UNL     1     -44.517  60.342 -54.968  1.00  0.00     0.162 HD
ENDROOT
BRANCH   1   5
HETATM    5  C   UNL     1     -44.584  61.113 -52.958  1.00  0.00     0.124 C 
BRANCH   5   6
HETATM    6  C   UNL     1     -43.439  60.470 -52.173  1.00  0.00     0.047 C 
BRANCH   6   7
HETATM    7  C   UNL     1     -43.993  59.631 -51.030  1.00  0.00     0.236 C 
BRANCH   7   8
HETATM    8  N   UNL     1     -43.381  58.242 -50.989  1.00  0.00    -0.068 N 
HETATM    9  C   UNL     1     -44.121  57.232 -51.879  1.00  0.00     0.254 C 
HETATM   10  C   UNL     1     -43.381  55.880 -51.955  1.00  0.00     0.150 C 
HETATM   11  N   UNL     1     -41.997  56.120 -52.403  1.00  0.00    -0.377 N 
HETATM   12  C   UNL     1     -41.226  56.940 -51.456  1.00  0.00     0.150 C 
HETATM   13  C   UNL     1     -41.885  58.332 -51.353  1.00  0.00     0.254 C 
HETATM   14  H   UNL     1     -43.436  57.895 -50.022  1.00  0.00     0.280 HD
BRANCH  11  15
HETATM   15  C   UNL     1     -41.376  54.998 -52.971  1.00  0.00     0.037 A 
HETATM   16  C   UNL     1     -41.201  54.919 -54.375  1.00  0.00    -0.035 A 
HETATM   17  C   UNL     1     -41.648  56.016 -55.307  1.00  0.00     0.050 C 
HETATM   18  C   UNL     1     -40.597  53.785 -54.948  1.00  0.00     0.011 A 
HETATM   19  C   UNL     1     -40.128  52.746 -54.149  1.00  0.00     0.024 A 
HETATM   20  C   UNL     1     -40.273  52.830 -52.772  1.00  0.00     0.036 A 
HETATM   21  C   UNL     1     -40.893  53.938 -52.187  1.00  0.00     0.053 A 
HETATM   22 CL   UNL     1     -39.689  51.557 -51.773  1.00  0.00    -0.084 Cl
ENDBRANCH  11  15
ENDBRANCH   7   8
ENDBRANCH   6   7
ENDBRANCH   5   6
ENDBRANCH   1   5
BRANCH   2  23
HETATM   23  C   UNL     1     -43.273  62.015 -56.431  1.00  0.00     0.257 C 
BRANCH  23  24
HETATM   24  N   UNL     1     -43.745  60.751 -56.989  1.00  0.00    -0.224 N 
HETATM   25  N   UNL     1     -45.118  60.667 -57.290  1.00  0.00    -0.180 NA
HETATM   26  C   UNL     1     -45.571  59.627 -57.936  1.00  0.00     0.153 A 
HETATM   27  C   UNL     1     -44.695  58.555 -58.315  1.00  0.00     0.028 A 
HETATM   28  C   UNL     1     -43.370  58.628 -57.967  1.00  0.00     0.116 A 
HETATM   29  C   UNL     1     -44.894  57.350 -59.037  1.00  0.00     0.005 A 
HETATM   30  N   UNL     1     -42.742  57.505 -58.425  1.00  0.00    -0.350 N 
HETATM   31  C   UNL     1     -42.801  59.741 -57.268  1.00  0.00     0.291 A 
HETATM   32  H   UNL     1     -41.755  57.305 -58.318  1.00  0.00     0.166 HD
HETATM   33  C   UNL     1     -43.651  56.709 -59.091  1.00  0.00     0.044 A 
HETATM   34  C   UNL     1     -43.463  55.483 -59.741  1.00  0.00     0.030 A 
HETATM   35  C   UNL     1     -44.575  54.900 -60.359  1.00  0.00     0.002 A 
HETATM   36  C   UNL     1     -45.823  55.517 -60.322  1.00  0.00     0.001 A 
HETATM   37  C   UNL     1     -45.998  56.739 -59.664  1.00  0.00     0.014 A 
HETATM   38  O   UNL     1     -41.621  59.799 -56.943  1.00  0.00    -0.264 OA
ENDBRANCH  23  24
ENDBRANCH   2  23
TORSDOF 7
ENDMDL
MODEL 6
REMARK VINA RESULT:      -8.4      3.353      8.314
REMARK  7 active torsions:
REMARK  status: ('A' for Active; 'I' for Inactive)
REMARK    1  A    between atoms: C_3  and  N_4 
REMARK    2  A    between atoms: N_7  and  C_9 
REMARK    3  A    between atoms: C_9  and  C_10 
REMARK    4  A    between atoms: C_10  and  C_11 
REMARK    5  A    between atoms: C_11  and  N_12 
REMARK       I    between atoms: N_12  and  C_13 
REMARK    6  A    between atoms: C_13  and  C_14 
REMARK    7  A    between atoms: C_14  and  N_15 
ROOT
HETATM    1  N   UNL     1     -42.563  61.296 -55.193  1.00  0.00    -0.360 N 
HETATM    2  C   UNL     1     -43.012  62.129 -56.198  1.00  0.00     0.237 C 
HETATM    3  O   UNL     1     -43.943  62.914 -56.010  1.00  0.00    -0.272 OA
HETATM    4  H   UNL     1     -41.792  60.673 -55.427  1.00  0.00     0.162 HD
ENDROOT
BRANCH   1   5
HETATM    5  C   UNL     1     -42.985  61.478 -53.825  1.00  0.00     0.124 C 
BRANCH   5   6
HETATM    6  C   UNL     1     -44.113  60.520 -53.436  1.00  0.00     0.047 C 
BRANCH   6   7
HETATM    7  C   UNL     1     -43.652  59.591 -52.323  1.00  0.00     0.236 C 
BRANCH   7   8
HETATM    8  N   UNL     1     -43.101  58.281 -52.860  1.00  0.00    -0.068 N 
HETATM    9  C   UNL     1     -41.576  58.166 -52.718  1.00  0.00     0.254 C 
HETATM   10  C   UNL     1     -41.065  56.764 -53.110  1.00  0.00     0.150 C 
HETATM   11  N   UNL     1     -41.785  55.755 -52.310  1.00  0.00    -0.377 N 
HETATM   12  C   UNL     1     -43.231  55.739 -52.581  1.00  0.00     0.150 C 
HETATM   13  C   UNL     1     -43.827  57.104 -52.177  1.00  0.00     0.254 C 
HETATM   14  H   UNL     1     -43.321  58.229 -53.863  1.00  0.00     0.280 HD
BRANCH  11  15
HETATM   15  C   UNL     1     -41.115  54.528 -52.199  1.00  0.00     0.037 A 
HETATM   16  C   UNL     1     -40.520  54.154 -50.968  1.00  0.00    -0.035 A 
HETATM   17  C   UNL     1     -40.588  55.026 -49.741  1.00  0.00     0.050 C 
HETATM   18  C   UNL     1     -39.830  52.932 -50.860  1.00  0.00     0.011 A 
HETATM   19  C   UNL     1     -39.754  52.059 -51.941  1.00  0.00     0.024 A 
HETATM   20  C   UNL     1     -40.357  52.408 -53.141  1.00  0.00     0.036 A 
HETATM   21  C   UNL     1     -41.026  53.629 -53.274  1.00  0.00     0.053 A 
HETATM   22 CL   UNL     1     -40.278  51.333 -54.481  1.00  0.00    -0.084 Cl
ENDBRANCH  11  15
ENDBRANCH   7   8
ENDBRANCH   6   7
ENDBRANCH   5   6
ENDBRANCH   1   5
BRANCH   2  23
HETATM   23  C   UNL     1     -42.398  61.898 -57.576  1.00  0.00     0.257 C 
BRANCH  23  24
HETATM   24  N   UNL     1     -42.681  60.571 -58.114  1.00  0.00    -0.224 N 
HETATM   25  N   UNL     1     -41.820  59.531 -57.712  1.00  0.00    -0.180 NA
HETATM   26  C   UNL     1     -42.112  58.299 -58.028  1.00  0.00     0.153 A 
HETATM   27  C   UNL     1     -43.279  57.993 -58.806  1.00  0.00     0.028 A 
HETATM   28  C   UNL     1     -44.077  59.023 -59.234  1.00  0.00     0.116 A 
HETATM   29  C   UNL     1     -43.852  56.775 -59.255  1.00  0.00     0.005 A 
HETATM   30  N   UNL     1     -45.113  58.495 -59.952  1.00  0.00    -0.350 N 
HETATM   31  C   UNL     1     -43.825  60.396 -58.919  1.00  0.00     0.291 A 
HETATM   32  H   UNL     1     -45.861  59.029 -60.375  1.00  0.00     0.166 HD
HETATM   33  C   UNL     1     -45.003  57.119 -59.974  1.00  0.00     0.044 A 
HETATM   34  C   UNL     1     -45.838  56.162 -60.563  1.00  0.00     0.030 A 
HETATM   35  C   UNL     1     -45.490  54.816 -60.409  1.00  0.00     0.002 A 
HETATM   36  C   UNL     1     -44.351  54.444 -59.697  1.00  0.00     0.001 A 
HETATM   37  C   UNL     1     -43.522  55.413 -59.118  1.00  0.00     0.014 A 
HETATM   38  O   UNL     1     -44.531  61.317 -59.315  1.00  0.00    -0.264 OA
ENDBRANCH  23  24
ENDBRANCH   2  23
TORSDOF 7
ENDMDL
MODEL 7
REMARK VINA RESULT:      -8.3      3.173      9.425
REMARK  7 active torsions:
REMARK  status: ('A' for Active; 'I' for Inactive)
REMARK    1  A    between atoms: C_3  and  N_4 
REMARK    2  A    between atoms: N_7  and  C_9 
REMARK    3  A    between atoms: C_9  and  C_10 
REMARK    4  A    between atoms: C_10  and  C_11 
REMARK    5  A    between atoms: C_11  and  N_12 
REMARK       I    between atoms: N_12  and  C_13 
REMARK    6  A    between atoms: C_13  and  C_14 
REMARK    7  A    between atoms: C_14  and  N_15 
ROOT
HETATM    1  N   UNL     1     -42.168  59.361 -55.720  1.00  0.00    -0.360 N 
HETATM    2  C   UNL     1     -42.882  58.299 -56.237  1.00  0.00     0.237 C 
HETATM    3  O   UNL     1     -43.752  57.732 -55.576  1.00  0.00    -0.272 OA
HETATM    4  H   UNL     1     -41.463  59.776 -56.327  1.00  0.00     0.162 HD
ENDROOT
BRANCH   1   5
HETATM    5  C   UNL     1     -42.572  60.010 -54.496  1.00  0.00     0.124 C 
BRANCH   5   6
HETATM    6  C   UNL     1     -41.766  59.523 -53.290  1.00  0.00     0.047 C 
BRANCH   6   7
HETATM    7  C   UNL     1     -42.593  58.549 -52.464  1.00  0.00     0.236 C 
BRANCH   7   8
HETATM    8  N   UNL     1     -42.415  57.112 -52.924  1.00  0.00    -0.068 N 
HETATM    9  C   UNL     1     -40.985  56.802 -53.389  1.00  0.00     0.254 C 
HETATM   10  C   UNL     1     -40.788  55.300 -53.685  1.00  0.00     0.150 C 
HETATM   11  N   UNL     1     -41.174  54.526 -52.491  1.00  0.00    -0.377 N 
HETATM   12  C   UNL     1     -42.596  54.679 -52.148  1.00  0.00     0.150 C 
HETATM   13  C   UNL     1     -42.868  56.157 -51.800  1.00  0.00     0.254 C 
HETATM   14  H   UNL     1     -43.040  56.952 -53.725  1.00  0.00     0.280 HD
BRANCH  11  15
HETATM   15  C   UNL     1     -40.609  53.244 -52.432  1.00  0.00     0.037 A 
HETATM   16  C   UNL     1     -40.083  52.756 -51.209  1.00  0.00    -0.035 A 
HETATM   17  C   UNL     1     -40.117  53.562 -49.937  1.00  0.00     0.050 C 
HETATM   18  C   UNL     1     -39.497  51.477 -51.153  1.00  0.00     0.011 A 
HETATM   19  C   UNL     1     -39.460  50.660 -52.279  1.00  0.00     0.024 A 
HETATM   20  C   UNL     1     -39.997  51.123 -53.472  1.00  0.00     0.036 A 
HETATM   21  C   UNL     1     -40.561  52.399 -53.553  1.00  0.00     0.053 A 
HETATM   22 CL   UNL     1     -39.966  50.118 -54.869  1.00  0.00    -0.084 Cl
ENDBRANCH  11  15
ENDBRANCH   7   8
ENDBRANCH   6   7
ENDBRANCH   5   6
ENDBRANCH   1   5
BRANCH   2  23
HETATM   23  C   UNL     1     -42.414  57.782 -57.595  1.00  0.00     0.257 C 
BRANCH  23  24
HETATM   24  N   UNL     1     -43.495  57.670 -58.569  1.00  0.00    -0.224 N 
HETATM   25  N   UNL     1     -43.866  56.367 -58.952  1.00  0.00    -0.180 NA
HETATM   26  C   UNL     1     -44.927  56.193 -59.694  1.00  0.00     0.153 A 
HETATM   27  C   UNL     1     -45.699  57.314 -60.150  1.00  0.00     0.028 A 
HETATM   28  C   UNL     1     -45.293  58.580 -59.811  1.00  0.00     0.116 A 
HETATM   29  C   UNL     1     -46.888  57.423 -60.915  1.00  0.00     0.005 A 
HETATM   30  N   UNL     1     -46.171  59.473 -60.355  1.00  0.00    -0.350 N 
HETATM   31  C   UNL     1     -44.147  58.845 -58.994  1.00  0.00     0.291 A 
HETATM   32  H   UNL     1     -46.117  60.479 -60.252  1.00  0.00     0.166 HD
HETATM   33  C   UNL     1     -47.163  58.792 -61.030  1.00  0.00     0.044 A 
HETATM   34  C   UNL     1     -48.279  59.281 -61.720  1.00  0.00     0.030 A 
HETATM   35  C   UNL     1     -49.142  58.347 -62.302  1.00  0.00     0.002 A 
HETATM   36  C   UNL     1     -48.895  56.979 -62.201  1.00  0.00     0.001 A 
HETATM   37  C   UNL     1     -47.772  56.504 -61.514  1.00  0.00     0.014 A 
HETATM   38  O   UNL     1     -43.776  59.977 -58.705  1.00  0.00    -0.264 OA
ENDBRANCH  23  24
ENDBRANCH   2  23
TORSDOF 7
ENDMDL
MODEL 8
REMARK VINA RESULT:      -8.3      2.464      3.578
REMARK  7 active torsions:
REMARK  status: ('A' for Active; 'I' for Inactive)
REMARK    1  A    between atoms: C_3  and  N_4 
REMARK    2  A    between atoms: N_7  and  C_9 
REMARK    3  A    between atoms: C_9  and  C_10 
REMARK    4  A    between atoms: C_10  and  C_11 
REMARK    5  A    between atoms: C_11  and  N_12 
REMARK       I    between atoms: N_12  and  C_13 
REMARK    6  A    between atoms: C_13  and  C_14 
REMARK    7  A    between atoms: C_14  and  N_15 
ROOT
HETATM    1  N   UNL     1     -43.843  61.586 -51.549  1.00  0.00    -0.360 N 
HETATM    2  C   UNL     1     -43.325  60.803 -50.537  1.00  0.00     0.237 C 
HETATM    3  O   UNL     1     -44.023  60.440 -49.590  1.00  0.00    -0.272 OA
HETATM    4  H   UNL     1     -43.202  61.848 -52.297  1.00  0.00     0.162 HD
ENDROOT
BRANCH   1   5
HETATM    5  C   UNL     1     -45.264  61.802 -51.677  1.00  0.00     0.124 C 
BRANCH   5   6
HETATM    6  C   UNL     1     -45.927  60.768 -52.590  1.00  0.00     0.047 C 
BRANCH   6   7
HETATM    7  C   UNL     1     -45.859  61.227 -54.039  1.00  0.00     0.236 C 
BRANCH   7   8
HETATM    8  N   UNL     1     -45.809  60.060 -55.009  1.00  0.00    -0.068 N 
HETATM    9  C   UNL     1     -45.691  60.500 -56.476  1.00  0.00     0.254 C 
HETATM   10  C   UNL     1     -45.468  59.301 -57.421  1.00  0.00     0.150 C 
HETATM   11  N   UNL     1     -44.287  58.546 -56.962  1.00  0.00    -0.377 N 
HETATM   12  C   UNL     1     -44.469  57.966 -55.622  1.00  0.00     0.150 C 
HETATM   13  C   UNL     1     -44.662  59.110 -54.606  1.00  0.00     0.254 C 
HETATM   14  H   UNL     1     -46.685  59.529 -54.918  1.00  0.00     0.280 HD
BRANCH  11  15
HETATM   15  C   UNL     1     -43.691  57.756 -57.954  1.00  0.00     0.037 A 
HETATM   16  C   UNL     1     -42.471  58.166 -58.549  1.00  0.00    -0.035 A 
HETATM   17  C   UNL     1     -41.761  59.432 -58.145  1.00  0.00     0.050 C 
HETATM   18  C   UNL     1     -41.881  57.385 -59.560  1.00  0.00     0.011 A 
HETATM   19  C   UNL     1     -42.460  56.185 -59.963  1.00  0.00     0.024 A 
HETATM   20  C   UNL     1     -43.640  55.766 -59.365  1.00  0.00     0.036 A 
HETATM   21  C   UNL     1     -44.253  56.541 -58.377  1.00  0.00     0.053 A 
HETATM   22 CL   UNL     1     -44.360  54.280 -59.848  1.00  0.00    -0.084 Cl
ENDBRANCH  11  15
ENDBRANCH   7   8
ENDBRANCH   6   7
ENDBRANCH   5   6
ENDBRANCH   1   5
BRANCH   2  23
HETATM   23  C   UNL     1     -41.818  60.563 -50.587  1.00  0.00     0.257 C 
BRANCH  23  24
HETATM   24  N   UNL     1     -41.465  59.248 -51.112  1.00  0.00    -0.224 N 
HETATM   25  N   UNL     1     -41.308  58.214 -50.170  1.00  0.00    -0.180 NA
HETATM   26  C   UNL     1     -41.151  56.986 -50.585  1.00  0.00     0.153 A 
HETATM   27  C   UNL     1     -41.104  56.681 -51.987  1.00  0.00     0.028 A 
HETATM   28  C   UNL     1     -41.205  57.708 -52.891  1.00  0.00     0.116 A 
HETATM   29  C   UNL     1     -40.984  55.467 -52.711  1.00  0.00     0.005 A 
HETATM   30  N   UNL     1     -41.130  57.182 -54.149  1.00  0.00    -0.350 N 
HETATM   31  C   UNL     1     -41.388  59.076 -52.510  1.00  0.00     0.291 A 
HETATM   32  H   UNL     1     -41.191  57.715 -55.008  1.00  0.00     0.166 HD
HETATM   33  C   UNL     1     -41.003  55.810 -54.069  1.00  0.00     0.044 A 
HETATM   34  C   UNL     1     -40.913  54.855 -55.088  1.00  0.00     0.030 A 
HETATM   35  C   UNL     1     -40.809  53.512 -54.711  1.00  0.00     0.002 A 
HETATM   36  C   UNL     1     -40.791  53.142 -53.369  1.00  0.00     0.001 A 
HETATM   37  C   UNL     1     -40.875  54.108 -52.359  1.00  0.00     0.014 A 
HETATM   38  O   UNL     1     -41.463  59.995 -53.318  1.00  0.00    -0.264 OA
ENDBRANCH  23  24
ENDBRANCH   2  23
TORSDOF 7
ENDMDL
MODEL 9
REMARK VINA RESULT:      -8.2      2.129      3.120
REMARK  7 active torsions:
REMARK  status: ('A' for Active; 'I' for Inactive)
REMARK    1  A    between atoms: C_3  and  N_4 
REMARK    2  A    between atoms: N_7  and  C_9 
REMARK    3  A    between atoms: C_9  and  C_10 
REMARK    4  A    between atoms: C_10  and  C_11 
REMARK    5  A    between atoms: C_11  and  N_12 
REMARK       I    between atoms: N_12  and  C_13 
REMARK    6  A    between atoms: C_13  and  C_14 
REMARK    7  A    between atoms: C_14  and  N_15 
ROOT
HETATM    1  N   UNL     1     -42.097  58.361 -54.202  1.00  0.00    -0.360 N 
HETATM    2  C   UNL     1     -41.114  58.443 -53.237  1.00  0.00     0.237 C 
HETATM    3  O   UNL     1     -40.093  59.109 -53.419  1.00  0.00    -0.272 OA
HETATM    4  H   UNL     1     -42.910  57.788 -53.977  1.00  0.00     0.162 HD
ENDROOT
BRANCH   1   5
HETATM    5  C   UNL     1     -42.097  59.236 -55.348  1.00  0.00     0.124 C 
BRANCH   5   6
HETATM    6  C   UNL     1     -42.559  58.523 -56.621  1.00  0.00     0.047 C 
BRANCH   6   7
HETATM    7  C   UNL     1     -43.622  57.487 -56.286  1.00  0.00     0.236 C 
BRANCH   7   8
HETATM    8  N   UNL     1     -44.696  57.400 -57.356  1.00  0.00    -0.068 N 
HETATM    9  C   UNL     1     -45.959  58.203 -57.009  1.00  0.00     0.254 C 
HETATM   10  C   UNL     1     -46.959  58.240 -58.184  1.00  0.00     0.150 C 
HETATM   11  N   UNL     1     -46.270  58.760 -59.379  1.00  0.00    -0.377 N 
HETATM   12  C   UNL     1     -45.168  57.892 -59.824  1.00  0.00     0.150 C 
HETATM   13  C   UNL     1     -44.101  57.834 -58.712  1.00  0.00     0.254 C 
HETATM   14  H   UNL     1     -44.975  56.415 -57.451  1.00  0.00     0.280 HD
BRANCH  11  15
HETATM   15  C   UNL     1     -47.130  59.294 -60.349  1.00  0.00     0.037 A 
HETATM   16  C   UNL     1     -47.304  60.698 -60.447  1.00  0.00    -0.035 A 
HETATM   17  C   UNL     1     -46.579  61.666 -59.547  1.00  0.00     0.050 C 
HETATM   18  C   UNL     1     -48.182  61.235 -61.406  1.00  0.00     0.011 A 
HETATM   19  C   UNL     1     -48.861  60.407 -62.294  1.00  0.00     0.024 A 
HETATM   20  C   UNL     1     -48.675  59.034 -62.220  1.00  0.00     0.036 A 
HETATM   21  C   UNL     1     -47.825  58.480 -61.258  1.00  0.00     0.053 A 
HETATM   22 CL   UNL     1     -49.501  57.999 -63.319  1.00  0.00    -0.084 Cl
ENDBRANCH  11  15
ENDBRANCH   7   8
ENDBRANCH   6   7
ENDBRANCH   5   6
ENDBRANCH   1   5
BRANCH   2  23
HETATM   23  C   UNL     1     -41.298  57.539 -52.021  1.00  0.00     0.257 C 
BRANCH  23  24
HETATM   24  N   UNL     1     -41.163  56.120 -52.336  1.00  0.00    -0.224 N 
HETATM   25  N   UNL     1     -41.278  55.762 -53.693  1.00  0.00    -0.180 NA
HETATM   26  C   UNL     1     -41.009  54.538 -54.058  1.00  0.00     0.153 A 
HETATM   27  C   UNL     1     -40.630  53.546 -53.093  1.00  0.00     0.028 A 
HETATM   28  C   UNL     1     -40.574  53.899 -51.768  1.00  0.00     0.116 A 
HETATM   29  C   UNL     1     -40.253  52.182 -53.201  1.00  0.00     0.005 A 
HETATM   30  N   UNL     1     -40.199  52.802 -51.046  1.00  0.00    -0.350 N 
HETATM   31  C   UNL     1     -40.846  55.223 -51.296  1.00  0.00     0.291 A 
HETATM   32  H   UNL     1     -40.067  52.783 -50.042  1.00  0.00     0.166 HD
HETATM   33  C   UNL     1     -39.989  51.738 -51.899  1.00  0.00     0.044 A 
HETATM   34  C   UNL     1     -39.577  50.430 -51.619  1.00  0.00     0.030 A 
HETATM   35  C   UNL     1     -39.425  49.553 -52.698  1.00  0.00     0.002 A 
HETATM   36  C   UNL     1     -39.679  49.968 -54.003  1.00  0.00     0.001 A 
HETATM   37  C   UNL     1     -40.096  51.277 -54.269  1.00  0.00     0.014 A 
HETATM   38  O   UNL     1     -40.811  55.534 -50.110  1.00  0.00    -0.264 OA
ENDBRANCH  23  24
ENDBRANCH   2  23
TORSDOF 7
ENDMDL
MODEL 10
REMARK VINA RESULT:      -8.2      2.885      8.843
REMARK  7 active torsions:
REMARK  status: ('A' for Active; 'I' for Inactive)
REMARK    1  A    between atoms: C_3  and  N_4 
REMARK    2  A    between atoms: N_7  and  C_9 
REMARK    3  A    between atoms: C_9  and  C_10 
REMARK    4  A    between atoms: C_10  and  C_11 
REMARK    5  A    between atoms: C_11  and  N_12 
REMARK       I    between atoms: N_12  and  C_13 
REMARK    6  A    between atoms: C_13  and  C_14 
REMARK    7  A    between atoms: C_14  and  N_15 
ROOT
HETATM    1  N   UNL     1     -43.543  60.192 -55.053  1.00  0.00    -0.360 N 
HETATM    2  C   UNL     1     -42.275  59.690 -55.265  1.00  0.00     0.237 C 
HETATM    3  O   UNL     1     -41.385  59.826 -54.424  1.00  0.00    -0.272 OA
HETATM    4  H   UNL     1     -44.224  60.041 -55.797  1.00  0.00     0.162 HD
ENDROOT
BRANCH   1   5
HETATM    5  C   UNL     1     -43.953  60.669 -53.755  1.00  0.00     0.124 C 
BRANCH   5   6
HETATM    6  C   UNL     1     -44.612  59.572 -52.916  1.00  0.00     0.047 C 
BRANCH   6   7
HETATM    7  C   UNL     1     -44.235  59.735 -51.450  1.00  0.00     0.236 C 
BRANCH   7   8
HETATM    8  N   UNL     1     -43.580  58.487 -50.885  1.00  0.00    -0.068 N 
HETATM    9  C   UNL     1     -44.228  57.187 -51.384  1.00  0.00     0.254 C 
HETATM   10  C   UNL     1     -43.438  55.940 -50.935  1.00  0.00     0.150 C 
HETATM   11  N   UNL     1     -42.039  56.078 -51.376  1.00  0.00    -0.377 N 
HETATM   12  C   UNL     1     -41.356  57.224 -50.755  1.00  0.00     0.150 C 
HETATM   13  C   UNL     1     -42.068  58.522 -51.189  1.00  0.00     0.254 C 
HETATM   14  H   UNL     1     -43.681  58.507 -49.862  1.00  0.00     0.280 HD
BRANCH  11  15
HETATM   15  C   UNL     1     -41.345  54.863 -51.474  1.00  0.00     0.037 A 
HETATM   16  C   UNL     1     -40.856  54.230 -50.303  1.00  0.00    -0.035 A 
HETATM   17  C   UNL     1     -41.064  54.807 -48.927  1.00  0.00     0.050 C 
HETATM   18  C   UNL     1     -40.142  53.022 -50.400  1.00  0.00     0.011 A 
HETATM   19  C   UNL     1     -39.940  52.410 -51.634  1.00  0.00     0.024 A 
HETATM   20  C   UNL     1     -40.439  53.012 -52.780  1.00  0.00     0.036 A 
HETATM   21  C   UNL     1     -41.130  54.225 -52.706  1.00  0.00     0.053 A 
HETATM   22 CL   UNL     1     -40.203  52.262 -54.310  1.00  0.00    -0.084 Cl
ENDBRANCH  11  15
ENDBRANCH   7   8
ENDBRANCH   6   7
ENDBRANCH   5   6
ENDBRANCH   1   5
BRANCH   2  23
HETATM   23  C   UNL     1     -42.012  59.112 -56.653  1.00  0.00     0.257 C 
BRANCH  23  24
HETATM   24  N   UNL     1     -43.226  58.951 -57.446  1.00  0.00    -0.224 N 
HETATM   25  N   UNL     1     -43.799  60.126 -57.969  1.00  0.00    -0.180 NA
HETATM   26  C   UNL     1     -44.789  60.036 -58.815  1.00  0.00     0.153 A 
HETATM   27  C   UNL     1     -45.321  58.759 -59.195  1.00  0.00     0.028 A 
HETATM   28  C   UNL     1     -44.786  57.626 -58.635  1.00  0.00     0.116 A 
HETATM   29  C   UNL     1     -46.342  58.364 -60.098  1.00  0.00     0.005 A 
HETATM   30  N   UNL     1     -45.449  56.543 -59.138  1.00  0.00    -0.350 N 
HETATM   31  C   UNL     1     -43.695  57.647 -57.709  1.00  0.00     0.291 A 
HETATM   32  H   UNL     1     -45.250  55.578 -58.906  1.00  0.00     0.166 HD
HETATM   33  C   UNL     1     -46.402  56.966 -60.043  1.00  0.00     0.044 A 
HETATM   34  C   UNL     1     -47.298  56.219 -60.817  1.00  0.00     0.030 A 
HETATM   35  C   UNL     1     -48.152  56.920 -61.676  1.00  0.00     0.002 A 
HETATM   36  C   UNL     1     -48.112  58.310 -61.753  1.00  0.00     0.001 A 
HETATM   37  C   UNL     1     -47.215  59.044 -60.969  1.00  0.00     0.014 A 
HETATM   38  O   UNL     1     -43.228  56.636 -57.197  1.00  0.00    -0.264 OA
ENDBRANCH  23  24
ENDBRANCH   2  23
TORSDOF 7
ENDMDL
