MODEL 1
REMARK VINA RESULT:      -8.5      0.000      0.000
REMARK  4 active torsions:
REMARK  status: ('A' for Active; 'I' for Inactive)
REMARK    1  A    between atoms: C_6  and  N_7 
REMARK       I    between atoms: N_7  and  C_8 
REMARK    2  A    between atoms: C_8  and  C_9 
REMARK    3  A    between atoms: C_10  and  C_11 
REMARK    4  A    between atoms: C_14  and  O_15 
ROOT
HETATM    1  C   UNL     1     -42.769  56.858 -51.891  1.00  0.00     0.062 C 
HETATM    2  C   UNL     1     -43.805  57.565 -52.757  1.00  0.00     0.202 C 
HETATM    3  N   UNL     1     -44.127  58.884 -52.198  1.00  0.00    -0.084 N 
HETATM    4  C   UNL     1     -43.414  59.486 -51.195  1.00  0.00     0.725 A 
HETATM    5  N   UNL     1     -42.372  58.835 -50.641  1.00  0.00    -0.192 N 
HETATM    6  N   UNL     1     -45.207  59.618 -52.539  1.00  0.00    -0.149 NA
HETATM    7  C   UNL     1     -45.028  60.693 -51.763  1.00  0.00     0.275 A 
HETATM    8  N   UNL     1     -43.946  60.650 -50.920  1.00  0.00    -0.054 NA
HETATM    9  C   UNL     1     -42.082  57.503 -50.917  1.00  0.00     0.037 C 
HETATM   10  C   UNL     1     -40.996  56.875 -50.081  1.00  0.00     0.070 C 
HETATM   11  H   UNL     1     -41.881  59.276 -49.867  1.00  0.00     0.184 HD
ENDROOT
BRANCH   1  12
HETATM   12  C   UNL     1     -42.622  55.405 -52.146  1.00  0.00     0.256 C 
HETATM   13  N   UNL     1     -41.387  55.099 -52.681  1.00  0.00    -0.323 N 
HETATM   14  H   UNL     1     -40.772  55.879 -52.869  1.00  0.00     0.169 HD
HETATM   15  O   UNL     1     -43.529  54.640 -51.854  1.00  0.00    -0.267 OA
BRANCH  13  16
HETATM   16  C   UNL     1     -40.869  53.819 -52.988  1.00  0.00     0.041 A 
HETATM   17  C   UNL     1     -40.807  53.415 -54.340  1.00  0.00    -0.035 A 
HETATM   18  C   UNL     1     -40.269  52.155 -54.663  1.00  0.00     0.015 A 
HETATM   19  C   UNL     1     -41.293  54.289 -55.467  1.00  0.00     0.050 C 
HETATM   20  C   UNL     1     -39.807  51.285 -53.670  1.00  0.00    -0.061 A 
HETATM   21  C   UNL     1     -39.198  49.964 -54.030  1.00  0.00     0.048 C 
HETATM   22  C   UNL     1     -39.869  51.695 -52.339  1.00  0.00     0.009 A 
HETATM   23  C   UNL     1     -40.399  52.945 -52.003  1.00  0.00     0.030 A 
ENDBRANCH  13  16
ENDBRANCH   1  12
BRANCH   2  24
HETATM   24  C   UNL     1     -43.384  57.712 -54.215  1.00  0.00    -0.028 A 
HETATM   25  C   UNL     1     -43.961  56.892 -55.195  1.00  0.00     0.012 A 
HETATM   26  C   UNL     1     -43.581  57.011 -56.535  1.00  0.00     0.037 A 
HETATM   27  C   UNL     1     -42.623  57.948 -56.926  1.00  0.00     0.068 A 
HETATM   28  C   UNL     1     -42.043  58.768 -55.960  1.00  0.00     0.037 A 
HETATM   29  C   UNL     1     -42.418  58.652 -54.616  1.00  0.00     0.012 A 
BRANCH  27  30
HETATM   30  O   UNL     1     -42.346  57.959 -58.265  1.00  0.00    -0.356 OA
HETATM   31  C   UNL     1     -42.813  56.851 -59.025  1.00  0.00     0.210 C 
ENDBRANCH  27  30
ENDBRANCH   2  24
TORSDOF 4
ENDMDL
MODEL 2
REMARK VINA RESULT:      -8.1      2.332      6.111
REMARK  4 active torsions:
REMARK  status: ('A' for Active; 'I' for Inactive)
REMARK    1  A    between atoms: C_6  and  N_7 
REMARK       I    between atoms: N_7  and  C_8 
REMARK    2  A    between atoms: C_8  and  C_9 
REMARK    3  A    between atoms: C_10  and  C_11 
REMARK    4  A    between atoms: C_14  and  O_15 
ROOT
HETATM    1  C   UNL     1     -43.269  57.524 -53.105  1.00  0.00     0.062 C 
HETATM    2  C   UNL     1     -41.780  57.459 -53.425  1.00  0.00     0.202 C 
HETATM    3  N   UNL     1     -41.006  58.199 -52.420  1.00  0.00    -0.084 N 
HETATM    4  C   UNL     1     -41.526  58.658 -51.238  1.00  0.00     0.725 A 
HETATM    5  N   UNL     1     -42.834  58.468 -50.972  1.00  0.00    -0.192 N 
HETATM    6  N   UNL     1     -39.724  58.591 -52.575  1.00  0.00    -0.149 NA
HETATM    7  C   UNL     1     -39.511  59.203 -51.405  1.00  0.00     0.275 A 
HETATM    8  N   UNL     1     -40.590  59.272 -50.560  1.00  0.00    -0.054 NA
HETATM    9  C   UNL     1     -43.731  57.977 -51.915  1.00  0.00     0.037 C 
HETATM   10  C   UNL     1     -45.185  57.994 -51.515  1.00  0.00     0.070 C 
HETATM   11  H   UNL     1     -43.213  58.853 -50.111  1.00  0.00     0.184 HD
ENDROOT
BRANCH   1  12
HETATM   12  C   UNL     1     -44.169  57.124 -54.213  1.00  0.00     0.256 C 
HETATM   13  N   UNL     1     -44.187  58.065 -55.224  1.00  0.00    -0.323 N 
HETATM   14  H   UNL     1     -43.641  58.901 -55.072  1.00  0.00     0.169 HD
HETATM   15  O   UNL     1     -44.757  56.055 -54.165  1.00  0.00    -0.267 OA
BRANCH  13  16
HETATM   16  C   UNL     1     -44.873  57.992 -56.460  1.00  0.00     0.041 A 
HETATM   17  C   UNL     1     -44.171  57.549 -57.603  1.00  0.00    -0.035 A 
HETATM   18  C   UNL     1     -44.847  57.445 -58.834  1.00  0.00     0.015 A 
HETATM   19  C   UNL     1     -42.713  57.173 -57.560  1.00  0.00     0.050 C 
HETATM   20  C   UNL     1     -46.198  57.787 -58.953  1.00  0.00    -0.061 A 
HETATM   21  C   UNL     1     -46.917  57.632 -60.259  1.00  0.00     0.048 C 
HETATM   22  C   UNL     1     -46.883  58.219 -57.817  1.00  0.00     0.009 A 
HETATM   23  C   UNL     1     -46.225  58.325 -56.588  1.00  0.00     0.030 A 
ENDBRANCH  13  16
ENDBRANCH   1  12
BRANCH   2  24
HETATM   24  C   UNL     1     -41.242  56.038 -53.546  1.00  0.00    -0.028 A 
HETATM   25  C   UNL     1     -41.257  55.188 -52.432  1.00  0.00     0.012 A 
HETATM   26  C   UNL     1     -40.761  53.884 -52.526  1.00  0.00     0.037 A 
HETATM   27  C   UNL     1     -40.243  53.402 -53.729  1.00  0.00     0.068 A 
HETATM   28  C   UNL     1     -40.222  54.239 -54.844  1.00  0.00     0.037 A 
HETATM   29  C   UNL     1     -40.716  55.546 -54.754  1.00  0.00     0.012 A 
BRANCH  27  30
HETATM   30  O   UNL     1     -39.793  52.111 -53.682  1.00  0.00    -0.356 OA
HETATM   31  C   UNL     1     -39.522  51.573 -52.394  1.00  0.00     0.210 C 
ENDBRANCH  27  30
ENDBRANCH   2  24
TORSDOF 4
ENDMDL
MODEL 3
REMARK VINA RESULT:      -8.1      3.113      5.138
REMARK  4 active torsions:
REMARK  status: ('A' for Active; 'I' for Inactive)
REMARK    1  A    between atoms: C_6  and  N_7 
REMARK       I    between atoms: N_7  and  C_8 
REMARK    2  A    between atoms: C_8  and  C_9 
REMARK    3  A    between atoms: C_10  and  C_11 
REMARK    4  A    between atoms: C_14  and  O_15 
ROOT
HETATM    1  C   UNL     1     -42.615  56.949 -56.711  1.00  0.00     0.062 C 
HETATM    2  C   UNL     1     -42.234  58.297 -56.111  1.00  0.00     0.202 C 
HETATM    3  N   UNL     1     -41.970  59.276 -57.173  1.00  0.00    -0.084 N 
HETATM    4  C   UNL     1     -42.272  59.073 -58.494  1.00  0.00     0.725 A 
HETATM    5  N   UNL     1     -42.808  57.897 -58.878  1.00  0.00    -0.192 N 
HETATM    6  N   UNL     1     -41.324  60.447 -56.994  1.00  0.00    -0.149 NA
HETATM    7  C   UNL     1     -41.354  60.938 -58.238  1.00  0.00     0.275 A 
HETATM    8  N   UNL     1     -41.920  60.125 -59.189  1.00  0.00    -0.054 NA
HETATM    9  C   UNL     1     -42.915  56.803 -58.024  1.00  0.00     0.037 C 
HETATM   10  C   UNL     1     -43.371  55.513 -58.657  1.00  0.00     0.070 C 
HETATM   11  H   UNL     1     -42.985  57.745 -59.867  1.00  0.00     0.184 HD
ENDROOT
BRANCH   1  12
HETATM   12  C   UNL     1     -42.563  55.804 -55.770  1.00  0.00     0.256 C 
HETATM   13  N   UNL     1     -41.265  55.476 -55.432  1.00  0.00    -0.323 N 
HETATM   14  H   UNL     1     -40.534  56.008 -55.884  1.00  0.00     0.169 HD
HETATM   15  O   UNL     1     -43.600  55.296 -55.370  1.00  0.00    -0.267 OA
BRANCH  13  16
HETATM   16  C   UNL     1     -40.833  54.490 -54.513  1.00  0.00     0.041 A 
HETATM   17  C   UNL     1     -40.883  54.778 -53.131  1.00  0.00    -0.035 A 
HETATM   18  C   UNL     1     -40.484  53.796 -52.205  1.00  0.00     0.015 A 
HETATM   19  C   UNL     1     -41.356  56.105 -52.599  1.00  0.00     0.050 C 
HETATM   20  C   UNL     1     -40.023  52.544 -52.624  1.00  0.00    -0.061 A 
HETATM   21  C   UNL     1     -39.640  51.493 -51.627  1.00  0.00     0.048 C 
HETATM   22  C   UNL     1     -39.982  52.268 -53.991  1.00  0.00     0.009 A 
HETATM   23  C   UNL     1     -40.378  53.233 -54.923  1.00  0.00     0.030 A 
ENDBRANCH  13  16
ENDBRANCH   1  12
BRANCH   2  24
HETATM   24  C   UNL     1     -43.274  58.853 -55.145  1.00  0.00    -0.028 A 
HETATM   25  C   UNL     1     -44.578  59.106 -55.592  1.00  0.00     0.012 A 
HETATM   26  C   UNL     1     -45.541  59.622 -54.719  1.00  0.00     0.037 A 
HETATM   27  C   UNL     1     -45.225  59.894 -53.387  1.00  0.00     0.068 A 
HETATM   28  C   UNL     1     -43.931  59.647 -52.932  1.00  0.00     0.037 A 
HETATM   29  C   UNL     1     -42.963  59.132 -53.802  1.00  0.00     0.012 A 
BRANCH  27  30
HETATM   30  O   UNL     1     -46.260  60.393 -52.645  1.00  0.00    -0.356 OA
HETATM   31  C   UNL     1     -46.192  60.199 -51.238  1.00  0.00     0.210 C 
ENDBRANCH  27  30
ENDBRANCH   2  24
TORSDOF 4
ENDMDL
MODEL 4
REMARK VINA RESULT:      -8.0      3.081      5.399
REMARK  4 active torsions:
REMARK  status: ('A' for Active; 'I' for Inactive)
REMARK    1  A    between atoms: C_6  and  N_7 
REMARK       I    between atoms: N_7  and  C_8 
REMARK    2  A    between atoms: C_8  and  C_9 
REMARK    3  A    between atoms: C_10  and  C_11 
REMARK    4  A    between atoms: C_14  and  O_15 
ROOT
HETATM    1  C   UNL     1     -42.154  56.108 -55.485  1.00  0.00     0.062 C 
HETATM    2  C   UNL     1     -41.979  57.569 -55.885  1.00  0.00     0.202 C 
HETATM    3  N   UNL     1     -42.563  57.812 -57.210  1.00  0.00    -0.084 N 
HETATM    4  C   UNL     1     -43.366  56.918 -57.869  1.00  0.00     0.725 A 
HETATM    5  N   UNL     1     -43.621  55.719 -57.308  1.00  0.00    -0.192 N 
HETATM    6  N   UNL     1     -42.310  58.896 -57.972  1.00  0.00    -0.149 NA
HETATM    7  C   UNL     1     -43.070  58.629 -59.040  1.00  0.00     0.275 A 
HETATM    8  N   UNL     1     -43.728  57.424 -59.020  1.00  0.00    -0.054 NA
HETATM    9  C   UNL     1     -42.970  55.267 -56.165  1.00  0.00     0.037 C 
HETATM   10  C   UNL     1     -43.239  53.837 -55.772  1.00  0.00     0.070 C 
HETATM   11  H   UNL     1     -44.182  55.050 -57.829  1.00  0.00     0.184 HD
ENDROOT
BRANCH   1  12
HETATM   12  C   UNL     1     -41.313  55.663 -54.347  1.00  0.00     0.256 C 
HETATM   13  N   UNL     1     -42.027  55.628 -53.165  1.00  0.00    -0.323 N 
HETATM   14  H   UNL     1     -42.987  55.940 -53.209  1.00  0.00     0.169 HD
HETATM   15  O   UNL     1     -40.147  55.353 -54.535  1.00  0.00    -0.267 OA
BRANCH  13  16
HETATM   16  C   UNL     1     -41.577  55.192 -51.896  1.00  0.00     0.041 A 
HETATM   17  C   UNL     1     -41.506  56.127 -50.841  1.00  0.00    -0.035 A 
HETATM   18  C   UNL     1     -41.088  55.702 -49.565  1.00  0.00     0.015 A 
HETATM   19  C   UNL     1     -41.868  57.578 -51.021  1.00  0.00     0.050 C 
HETATM   20  C   UNL     1     -40.725  54.373 -49.324  1.00  0.00    -0.061 A 
HETATM   21  C   UNL     1     -40.322  53.923 -47.952  1.00  0.00     0.048 C 
HETATM   22  C   UNL     1     -40.804  53.456 -50.372  1.00  0.00     0.009 A 
HETATM   23  C   UNL     1     -41.220  53.864 -51.644  1.00  0.00     0.030 A 
ENDBRANCH  13  16
ENDBRANCH   1  12
BRANCH   2  24
HETATM   24  C   UNL     1     -42.562  58.552 -54.876  1.00  0.00    -0.028 A 
HETATM   25  C   UNL     1     -41.753  59.561 -54.335  1.00  0.00     0.012 A 
HETATM   26  C   UNL     1     -42.271  60.466 -53.405  1.00  0.00     0.037 A 
HETATM   27  C   UNL     1     -43.604  60.386 -52.997  1.00  0.00     0.068 A 
HETATM   28  C   UNL     1     -44.417  59.387 -53.527  1.00  0.00     0.037 A 
HETATM   29  C   UNL     1     -43.903  58.477 -54.458  1.00  0.00     0.012 A 
BRANCH  27  30
HETATM   30  O   UNL     1     -43.980  61.334 -52.084  1.00  0.00    -0.356 OA
HETATM   31  C   UNL     1     -43.315  61.313 -50.828  1.00  0.00     0.210 C 
ENDBRANCH  27  30
ENDBRANCH   2  24
TORSDOF 4
ENDMDL
MODEL 5
REMARK VINA RESULT:      -8.0      2.699      6.162
REMARK  4 active torsions:
REMARK  status: ('A' for Active; 'I' for Inactive)
REMARK    1  A    between atoms: C_6  and  N_7 
REMARK       I    between atoms: N_7  and  C_8 
REMARK    2  A    between atoms: C_8  and  C_9 
REMARK    3  A    between atoms: C_10  and  C_11 
REMARK    4  A    between atoms: C_14  and  O_15 
ROOT
HETATM    1  C   UNL     1     -42.041  54.634 -53.175  1.00  0.00     0.062 C 
HETATM    2  C   UNL     1     -42.474  55.191 -51.824  1.00  0.00     0.202 C 
HETATM    3  N   UNL     1     -41.682  54.589 -50.743  1.00  0.00    -0.084 N 
HETATM    4  C   UNL     1     -40.556  53.835 -50.947  1.00  0.00     0.725 A 
HETATM    5  N   UNL     1     -40.148  53.581 -52.207  1.00  0.00    -0.192 N 
HETATM    6  N   UNL     1     -42.014  54.629 -49.436  1.00  0.00    -0.149 NA
HETATM    7  C   UNL     1     -40.989  53.955 -48.902  1.00  0.00     0.275 A 
HETATM    8  N   UNL     1     -40.078  53.446 -49.793  1.00  0.00    -0.054 NA
HETATM    9  C   UNL     1     -40.911  53.902 -53.325  1.00  0.00     0.037 C 
HETATM   10  C   UNL     1     -40.396  53.390 -54.646  1.00  0.00     0.070 C 
HETATM   11  H   UNL     1     -39.337  52.984 -52.342  1.00  0.00     0.184 HD
ENDROOT
BRANCH   1  12
HETATM   12  C   UNL     1     -42.982  54.892 -54.292  1.00  0.00     0.256 C 
HETATM   13  N   UNL     1     -42.511  55.871 -55.145  1.00  0.00    -0.323 N 
HETATM   14  H   UNL     1     -41.636  56.307 -54.889  1.00  0.00     0.169 HD
HETATM   15  O   UNL     1     -44.013  54.243 -54.383  1.00  0.00    -0.267 OA
BRANCH  13  16
HETATM   16  C   UNL     1     -43.101  56.329 -56.346  1.00  0.00     0.041 A 
HETATM   17  C   UNL     1     -43.806  57.553 -56.335  1.00  0.00    -0.035 A 
HETATM   18  C   UNL     1     -44.374  58.036 -57.529  1.00  0.00     0.015 A 
HETATM   19  C   UNL     1     -43.972  58.378 -55.086  1.00  0.00     0.050 C 
HETATM   20  C   UNL     1     -44.270  57.320 -58.726  1.00  0.00    -0.061 A 
HETATM   21  C   UNL     1     -44.844  57.864 -59.999  1.00  0.00     0.048 C 
HETATM   22  C   UNL     1     -43.569  56.114 -58.727  1.00  0.00     0.009 A 
HETATM   23  C   UNL     1     -42.997  55.624 -57.549  1.00  0.00     0.030 A 
ENDBRANCH  13  16
ENDBRANCH   1  12
BRANCH   2  24
HETATM   24  C   UNL     1     -42.396  56.711 -51.735  1.00  0.00    -0.028 A 
HETATM   25  C   UNL     1     -43.541  57.452 -51.415  1.00  0.00     0.012 A 
HETATM   26  C   UNL     1     -43.486  58.847 -51.337  1.00  0.00     0.037 A 
HETATM   27  C   UNL     1     -42.292  59.529 -51.573  1.00  0.00     0.068 A 
HETATM   28  C   UNL     1     -41.146  58.802 -51.893  1.00  0.00     0.037 A 
HETATM   29  C   UNL     1     -41.197  57.405 -51.975  1.00  0.00     0.012 A 
BRANCH  27  30
HETATM   30  O   UNL     1     -42.379  60.890 -51.462  1.00  0.00    -0.356 OA
HETATM   31  C   UNL     1     -43.248  61.396 -50.457  1.00  0.00     0.210 C 
ENDBRANCH  27  30
ENDBRANCH   2  24
TORSDOF 4
ENDMDL
MODEL 6
REMARK VINA RESULT:      -7.9      1.444      1.919
REMARK  4 active torsions:
REMARK  status: ('A' for Active; 'I' for Inactive)
REMARK    1  A    between atoms: C_6  and  N_7 
REMARK       I    between atoms: N_7  and  C_8 
REMARK    2  A    between atoms: C_8  and  C_9 
REMARK    3  A    between atoms: C_10  and  C_11 
REMARK    4  A    between atoms: C_14  and  O_15 
ROOT
HETATM    1  C   UNL     1     -42.066  57.575 -52.350  1.00  0.00     0.062 C 
HETATM    2  C   UNL     1     -43.514  57.637 -52.820  1.00  0.00     0.202 C 
HETATM    3  N   UNL     1     -44.310  58.482 -51.920  1.00  0.00    -0.084 N 
HETATM    4  C   UNL     1     -43.772  59.294 -50.956  1.00  0.00     0.725 A 
HETATM    5  N   UNL     1     -42.437  59.308 -50.772  1.00  0.00    -0.192 N 
HETATM    6  N   UNL     1     -45.658  58.496 -51.875  1.00  0.00    -0.149 NA
HETATM    7  C   UNL     1     -45.863  59.410 -50.919  1.00  0.00     0.275 A 
HETATM    8  N   UNL     1     -44.734  59.918 -50.326  1.00  0.00    -0.054 NA
HETATM    9  C   UNL     1     -41.580  58.408 -51.398  1.00  0.00     0.037 C 
HETATM   10  C   UNL     1     -40.142  58.442 -50.949  1.00  0.00     0.070 C 
HETATM   11  H   UNL     1     -42.057  59.881 -50.024  1.00  0.00     0.184 HD
ENDROOT
BRANCH   1  12
HETATM   12  C   UNL     1     -41.254  56.492 -52.957  1.00  0.00     0.256 C 
HETATM   13  N   UNL     1     -41.534  55.263 -52.393  1.00  0.00    -0.323 N 
HETATM   14  H   UNL     1     -42.201  55.257 -51.634  1.00  0.00     0.169 HD
HETATM   15  O   UNL     1     -40.478  56.748 -53.865  1.00  0.00    -0.267 OA
BRANCH  13  16
HETATM   16  C   UNL     1     -41.007  54.003 -52.762  1.00  0.00     0.041 A 
HETATM   17  C   UNL     1     -40.235  53.286 -51.821  1.00  0.00    -0.035 A 
HETATM   18  C   UNL     1     -39.728  52.018 -52.163  1.00  0.00     0.015 A 
HETATM   19  C   UNL     1     -39.932  53.824 -50.447  1.00  0.00     0.050 C 
HETATM   20  C   UNL     1     -39.959  51.458 -53.424  1.00  0.00    -0.061 A 
HETATM   21  C   UNL     1     -39.450  50.089 -53.762  1.00  0.00     0.048 C 
HETATM   22  C   UNL     1     -40.727  52.172 -54.344  1.00  0.00     0.009 A 
HETATM   23  C   UNL     1     -41.239  53.431 -54.017  1.00  0.00     0.030 A 
ENDBRANCH  13  16
ENDBRANCH   1  12
BRANCH   2  24
HETATM   24  C   UNL     1     -43.671  58.123 -54.256  1.00  0.00    -0.028 A 
HETATM   25  C   UNL     1     -44.175  57.257 -55.236  1.00  0.00     0.012 A 
HETATM   26  C   UNL     1     -44.317  57.686 -56.559  1.00  0.00     0.037 A 
HETATM   27  C   UNL     1     -43.963  58.984 -56.931  1.00  0.00     0.068 A 
HETATM   28  C   UNL     1     -43.460  59.853 -55.965  1.00  0.00     0.037 A 
HETATM   29  C   UNL     1     -43.314  59.428 -54.639  1.00  0.00     0.012 A 
BRANCH  27  30
HETATM   30  O   UNL     1     -44.155  59.272 -58.254  1.00  0.00    -0.356 OA
HETATM   31  C   UNL     1     -42.988  59.424 -59.053  1.00  0.00     0.210 C 
ENDBRANCH  27  30
ENDBRANCH   2  24
TORSDOF 4
ENDMDL
MODEL 7
REMARK VINA RESULT:      -7.8      2.766      4.894
REMARK  4 active torsions:
REMARK  status: ('A' for Active; 'I' for Inactive)
REMARK    1  A    between atoms: C_6  and  N_7 
REMARK       I    between atoms: N_7  and  C_8 
REMARK    2  A    between atoms: C_8  and  C_9 
REMARK    3  A    between atoms: C_10  and  C_11 
REMARK    4  A    between atoms: C_14  and  O_15 
ROOT
HETATM    1  C   UNL     1     -41.917  55.911 -55.431  1.00  0.00     0.062 C 
HETATM    2  C   UNL     1     -41.591  57.400 -55.418  1.00  0.00     0.202 C 
HETATM    3  N   UNL     1     -42.435  58.119 -56.381  1.00  0.00    -0.084 N 
HETATM    4  C   UNL     1     -43.524  57.568 -57.006  1.00  0.00     0.725 A 
HETATM    5  N   UNL     1     -43.839  56.279 -56.772  1.00  0.00    -0.192 N 
HETATM    6  N   UNL     1     -42.193  59.367 -56.831  1.00  0.00    -0.149 NA
HETATM    7  C   UNL     1     -43.231  59.537 -57.658  1.00  0.00     0.275 A 
HETATM    8  N   UNL     1     -44.066  58.457 -57.799  1.00  0.00    -0.054 NA
HETATM    9  C   UNL     1     -43.013  55.418 -56.056  1.00  0.00     0.037 C 
HETATM   10  C   UNL     1     -43.426  53.969 -56.038  1.00  0.00     0.070 C 
HETATM   11  H   UNL     1     -44.622  55.873 -57.277  1.00  0.00     0.184 HD
ENDROOT
BRANCH   1  12
HETATM   12  C   UNL     1     -40.912  55.042 -54.773  1.00  0.00     0.256 C 
HETATM   13  N   UNL     1     -41.505  54.096 -53.960  1.00  0.00    -0.323 N 
HETATM   14  H   UNL     1     -42.511  54.137 -53.881  1.00  0.00     0.169 HD
HETATM   15  O   UNL     1     -39.723  55.198 -55.009  1.00  0.00    -0.267 OA
BRANCH  13  16
HETATM   16  C   UNL     1     -40.871  53.061 -53.233  1.00  0.00     0.041 A 
HETATM   17  C   UNL     1     -40.745  53.192 -51.832  1.00  0.00    -0.035 A 
HETATM   18  C   UNL     1     -40.142  52.158 -51.091  1.00  0.00     0.015 A 
HETATM   19  C   UNL     1     -41.240  54.403 -51.086  1.00  0.00     0.050 C 
HETATM   20  C   UNL     1     -39.649  51.007 -51.715  1.00  0.00    -0.061 A 
HETATM   21  C   UNL     1     -39.047  49.895 -50.911  1.00  0.00     0.048 C 
HETATM   22  C   UNL     1     -39.783  50.886 -53.098  1.00  0.00     0.009 A 
HETATM   23  C   UNL     1     -40.382  51.904 -53.847  1.00  0.00     0.030 A 
ENDBRANCH  13  16
ENDBRANCH   1  12
BRANCH   2  24
HETATM   24  C   UNL     1     -41.718  58.042 -54.041  1.00  0.00    -0.028 A 
HETATM   25  C   UNL     1     -40.578  58.531 -53.390  1.00  0.00     0.012 A 
HETATM   26  C   UNL     1     -40.678  59.116 -52.124  1.00  0.00     0.037 A 
HETATM   27  C   UNL     1     -41.913  59.227 -51.484  1.00  0.00     0.068 A 
HETATM   28  C   UNL     1     -43.054  58.744 -52.122  1.00  0.00     0.037 A 
HETATM   29  C   UNL     1     -42.959  58.156 -53.389  1.00  0.00     0.012 A 
BRANCH  27  30
HETATM   30  O   UNL     1     -41.868  59.821 -50.253  1.00  0.00    -0.356 OA
HETATM   31  C   UNL     1     -42.788  60.880 -50.017  1.00  0.00     0.210 C 
ENDBRANCH  27  30
ENDBRANCH   2  24
TORSDOF 4
ENDMDL
MODEL 8
REMARK VINA RESULT:      -7.3      2.510      6.365
REMARK  4 active torsions:
REMARK  status: ('A' for Active; 'I' for Inactive)
REMARK    1  A    between atoms: C_6  and  N_7 
REMARK       I    between atoms: N_7  and  C_8 
REMARK    2  A    between atoms: C_8  and  C_9 
REMARK    3  A    between atoms: C_10  and  C_11 
REMARK    4  A    between atoms: C_14  and  O_15 
ROOT
HETATM    1  C   UNL     1     -41.948  55.959 -51.942  1.00  0.00     0.062 C 
HETATM    2  C   UNL     1     -40.648  55.203 -51.697  1.00  0.00     0.202 C 
HETATM    3  N   UNL     1     -40.532  54.825 -50.283  1.00  0.00    -0.084 N 
HETATM    4  C   UNL     1     -41.558  54.916 -49.379  1.00  0.00     0.725 A 
HETATM    5  N   UNL     1     -42.745  55.417 -49.774  1.00  0.00    -0.192 N 
HETATM    6  N   UNL     1     -39.388  54.429 -49.686  1.00  0.00    -0.149 NA
HETATM    7  C   UNL     1     -39.823  54.211 -48.440  1.00  0.00     0.275 A 
HETATM    8  N   UNL     1     -41.144  54.504 -48.208  1.00  0.00    -0.054 NA
HETATM    9  C   UNL     1     -42.938  56.010 -51.017  1.00  0.00     0.037 C 
HETATM   10  C   UNL     1     -44.272  56.678 -51.232  1.00  0.00     0.070 C 
HETATM   11  H   UNL     1     -43.482  55.520 -49.081  1.00  0.00     0.184 HD
ENDROOT
BRANCH   1  12
HETATM   12  C   UNL     1     -42.018  56.689 -53.231  1.00  0.00     0.256 C 
HETATM   13  N   UNL     1     -42.936  56.121 -54.093  1.00  0.00    -0.323 N 
HETATM   14  H   UNL     1     -43.398  55.283 -53.770  1.00  0.00     0.169 HD
HETATM   15  O   UNL     1     -41.332  57.684 -53.406  1.00  0.00    -0.267 OA
BRANCH  13  16
HETATM   16  C   UNL     1     -43.318  56.582 -55.375  1.00  0.00     0.041 A 
HETATM   17  C   UNL     1     -44.289  57.604 -55.470  1.00  0.00    -0.035 A 
HETATM   18  C   UNL     1     -44.658  58.092 -56.737  1.00  0.00     0.015 A 
HETATM   19  C   UNL     1     -44.950  58.205 -54.257  1.00  0.00     0.050 C 
HETATM   20  C   UNL     1     -44.095  57.576 -57.909  1.00  0.00    -0.061 A 
HETATM   21  C   UNL     1     -44.466  58.133 -59.250  1.00  0.00     0.048 C 
HETATM   22  C   UNL     1     -43.134  56.571 -57.804  1.00  0.00     0.009 A 
HETATM   23  C   UNL     1     -42.755  56.077 -56.551  1.00  0.00     0.030 A 
ENDBRANCH  13  16
ENDBRANCH   1  12
BRANCH   2  24
HETATM   24  C   UNL     1     -40.484  53.968 -52.576  1.00  0.00    -0.028 A 
HETATM   25  C   UNL     1     -40.313  52.708 -51.986  1.00  0.00     0.012 A 
HETATM   26  C   UNL     1     -40.155  51.567 -52.778  1.00  0.00     0.037 A 
HETATM   27  C   UNL     1     -40.166  51.658 -54.171  1.00  0.00     0.068 A 
HETATM   28  C   UNL     1     -40.334  52.906 -54.769  1.00  0.00     0.037 A 
HETATM   29  C   UNL     1     -40.492  54.051 -53.980  1.00  0.00     0.012 A 
BRANCH  27  30
HETATM   30  O   UNL     1     -40.002  50.466 -54.823  1.00  0.00    -0.356 OA
HETATM   31  C   UNL     1     -39.404  49.409 -54.085  1.00  0.00     0.210 C 
ENDBRANCH  27  30
ENDBRANCH   2  24
TORSDOF 4
ENDMDL
MODEL 9
REMARK VINA RESULT:      -7.1      2.931      5.535
REMARK  4 active torsions:
REMARK  status: ('A' for Active; 'I' for Inactive)
REMARK    1  A    between atoms: C_6  and  N_7 
REMARK       I    between atoms: N_7  and  C_8 
REMARK    2  A    between atoms: C_8  and  C_9 
REMARK    3  A    between atoms: C_10  and  C_11 
REMARK    4  A    between atoms: C_14  and  O_15 
ROOT
HETATM    1  C   UNL     1     -42.198  59.946 -54.376  1.00  0.00     0.062 C 
HETATM    2  C   UNL     1     -42.479  61.119 -53.444  1.00  0.00     0.202 C 
HETATM    3  N   UNL     1     -42.997  62.265 -54.203  1.00  0.00    -0.084 N 
HETATM    4  C   UNL     1     -43.404  62.197 -55.509  1.00  0.00     0.725 A 
HETATM    5  N   UNL     1     -43.298  61.031 -56.177  1.00  0.00    -0.192 N 
HETATM    6  N   UNL     1     -43.051  63.530 -53.738  1.00  0.00    -0.149 NA
HETATM    7  C   UNL     1     -43.589  64.156 -54.792  1.00  0.00     0.275 A 
HETATM    8  N   UNL     1     -43.814  63.377 -55.900  1.00  0.00    -0.054 NA
HETATM    9  C   UNL     1     -42.633  59.924 -55.659  1.00  0.00     0.037 C 
HETATM   10  C   UNL     1     -42.450  58.762 -56.602  1.00  0.00     0.070 C 
HETATM   11  H   UNL     1     -43.562  61.008 -57.158  1.00  0.00     0.184 HD
ENDROOT
BRANCH   1  12
HETATM   12  C   UNL     1     -41.357  58.871 -53.797  1.00  0.00     0.256 C 
HETATM   13  N   UNL     1     -42.031  57.667 -53.737  1.00  0.00    -0.323 N 
HETATM   14  H   UNL     1     -42.995  57.676 -54.043  1.00  0.00     0.169 HD
HETATM   15  O   UNL     1     -40.204  59.108 -53.471  1.00  0.00    -0.267 OA
BRANCH  13  16
HETATM   16  C   UNL     1     -41.530  56.415 -53.311  1.00  0.00     0.041 A 
HETATM   17  C   UNL     1     -41.650  56.062 -51.948  1.00  0.00    -0.035 A 
HETATM   18  C   UNL     1     -41.182  54.807 -51.515  1.00  0.00     0.015 A 
HETATM   19  C   UNL     1     -42.271  56.979 -50.928  1.00  0.00     0.050 C 
HETATM   20  C   UNL     1     -40.584  53.907 -52.403  1.00  0.00    -0.061 A 
HETATM   21  C   UNL     1     -40.127  52.557 -51.937  1.00  0.00     0.048 C 
HETATM   22  C   UNL     1     -40.475  54.263 -53.746  1.00  0.00     0.009 A 
HETATM   23  C   UNL     1     -40.938  55.505 -54.192  1.00  0.00     0.030 A 
ENDBRANCH  13  16
ENDBRANCH   1  12
BRANCH   2  24
HETATM   24  C   UNL     1     -43.435  60.780 -52.306  1.00  0.00    -0.028 A 
HETATM   25  C   UNL     1     -43.112  61.142 -50.991  1.00  0.00     0.012 A 
HETATM   26  C   UNL     1     -43.975  60.833 -49.936  1.00  0.00     0.037 A 
HETATM   27  C   UNL     1     -45.175  60.159 -50.169  1.00  0.00     0.068 A 
HETATM   28  C   UNL     1     -45.506  59.793 -51.473  1.00  0.00     0.037 A 
HETATM   29  C   UNL     1     -44.644  60.100 -52.533  1.00  0.00     0.012 A 
BRANCH  27  30
HETATM   30  O   UNL     1     -45.924  59.921 -49.050  1.00  0.00    -0.356 OA
HETATM   31  C   UNL     1     -45.674  60.751 -47.923  1.00  0.00     0.210 C 
ENDBRANCH  27  30
ENDBRANCH   2  24
TORSDOF 4
ENDMDL
MODEL 10
REMARK VINA RESULT:      -7.0      3.020      7.240
REMARK  4 active torsions:
REMARK  status: ('A' for Active; 'I' for Inactive)
REMARK    1  A    between atoms: C_6  and  N_7 
REMARK       I    between atoms: N_7  and  C_8 
REMARK    2  A    between atoms: C_8  and  C_9 
REMARK    3  A    between atoms: C_10  and  C_11 
REMARK    4  A    between atoms: C_14  and  O_15 
ROOT
HETATM    1  C   UNL     1     -42.679  57.758 -56.670  1.00  0.00     0.062 C 
HETATM    2  C   UNL     1     -43.246  56.345 -56.713  1.00  0.00     0.202 C 
HETATM    3  N   UNL     1     -43.366  55.882 -58.102  1.00  0.00    -0.084 N 
HETATM    4  C   UNL     1     -42.811  56.528 -59.175  1.00  0.00     0.725 A 
HETATM    5  N   UNL     1     -42.143  57.683 -58.980  1.00  0.00    -0.192 N 
HETATM    6  N   UNL     1     -44.103  54.823 -58.496  1.00  0.00    -0.149 NA
HETATM    7  C   UNL     1     -43.871  54.839 -59.814  1.00  0.00     0.275 A 
HETATM    8  N   UNL     1     -43.091  55.871 -60.271  1.00  0.00    -0.054 NA
HETATM    9  C   UNL     1     -42.131  58.350 -57.759  1.00  0.00     0.037 C 
HETATM   10  C   UNL     1     -41.489  59.713 -57.757  1.00  0.00     0.070 C 
HETATM   11  H   UNL     1     -41.777  58.173 -59.791  1.00  0.00     0.184 HD
ENDROOT
BRANCH   1  12
HETATM   12  C   UNL     1     -42.836  58.460 -55.372  1.00  0.00     0.256 C 
HETATM   13  N   UNL     1     -44.072  58.219 -54.806  1.00  0.00    -0.323 N 
HETATM   14  H   UNL     1     -44.712  57.652 -55.344  1.00  0.00     0.169 HD
HETATM   15  O   UNL     1     -41.914  59.122 -54.922  1.00  0.00    -0.267 OA
BRANCH  13  16
HETATM   16  C   UNL     1     -44.548  58.663 -53.549  1.00  0.00     0.041 A 
HETATM   17  C   UNL     1     -44.317  57.858 -52.411  1.00  0.00    -0.035 A 
HETATM   18  C   UNL     1     -44.760  58.300 -51.150  1.00  0.00     0.015 A 
HETATM   19  C   UNL     1     -43.604  56.534 -52.489  1.00  0.00     0.050 C 
HETATM   20  C   UNL     1     -45.440  59.513 -51.001  1.00  0.00    -0.061 A 
HETATM   21  C   UNL     1     -45.869  59.992 -49.647  1.00  0.00     0.048 C 
HETATM   22  C   UNL     1     -45.658  60.302 -52.130  1.00  0.00     0.009 A 
HETATM   23  C   UNL     1     -45.222  59.877 -53.389  1.00  0.00     0.030 A 
ENDBRANCH  13  16
ENDBRANCH   1  12
BRANCH   2  24
HETATM   24  C   UNL     1     -42.439  55.337 -55.902  1.00  0.00    -0.028 A 
HETATM   25  C   UNL     1     -43.076  54.221 -55.341  1.00  0.00     0.012 A 
HETATM   26  C   UNL     1     -42.350  53.292 -54.589  1.00  0.00     0.037 A 
HETATM   27  C   UNL     1     -40.980  53.455 -54.383  1.00  0.00     0.068 A 
HETATM   28  C   UNL     1     -40.336  54.561 -54.935  1.00  0.00     0.037 A 
HETATM   29  C   UNL     1     -41.058  55.495 -55.687  1.00  0.00     0.012 A 
BRANCH  27  30
HETATM   30  O   UNL     1     -40.394  52.473 -53.631  1.00  0.00    -0.356 OA
HETATM   31  C   UNL     1     -40.220  51.207 -54.254  1.00  0.00     0.210 C 
ENDBRANCH  27  30
ENDBRANCH   2  24
TORSDOF 4
ENDMDL
