MODEL 1
REMARK VINA RESULT:      -8.8      0.000      0.000
REMARK  8 active torsions:
REMARK  status: ('A' for Active; 'I' for Inactive)
REMARK    1  A    between atoms: C_6  and  N_7 
REMARK       I    between atoms: N_7  and  C_8 
REMARK    2  A    between atoms: C_8  and  C_9 
REMARK    3  A    between atoms: C_10  and  N_11 
REMARK       I    between atoms: N_11  and  C_12 
REMARK    4  A    between atoms: C_12  and  C_13 
REMARK    5  A    between atoms: C_13  and  N_14 
REMARK    6  A    between atoms: N_14  and  C_17 
REMARK    7  A    between atoms: C_17  and  C_18 
REMARK    8  A    between atoms: C_30  and  C_31 
ROOT
HETATM    1  C   UNL     1     -42.554  56.348 -54.369  1.00  0.00     0.073 A 
HETATM    2  C   UNL     1     -42.407  57.636 -53.855  1.00  0.00     0.093 A 
HETATM    3  S   UNL     1     -42.861  58.852 -54.934  1.00  0.00    -0.075 SA
HETATM    4  C   UNL     1     -43.138  57.726 -56.174  1.00  0.00    -0.008 A 
HETATM    5  C   UNL     1     -42.919  56.419 -55.774  1.00  0.00    -0.026 A 
HETATM    6  C   UNL     1     -43.050  55.303 -56.771  1.00  0.00     0.041 C 
HETATM    7  C   UNL     1     -42.968  55.801 -58.223  1.00  0.00     0.010 C 
HETATM    8  C   UNL     1     -43.914  57.001 -58.476  1.00  0.00    -0.002 C 
HETATM    9  C   UNL     1     -43.505  58.186 -57.559  1.00  0.00     0.052 C 
ENDROOT
BRANCH   2  10
HETATM   10  N   UNL     1     -41.887  57.939 -52.604  1.00  0.00    -0.319 N 
HETATM   11  C   UNL     1     -40.699  58.560 -52.309  1.00  0.00     0.248 C 
HETATM   12  O   UNL     1     -39.934  59.160 -53.059  1.00  0.00    -0.271 OA
HETATM   13  H   UNL     1     -42.515  57.661 -51.846  1.00  0.00     0.169 HD
BRANCH  11  14
HETATM   14  C   UNL     1     -40.358  58.517 -50.820  1.00  0.00     0.335 C 
BRANCH  14  15
HETATM   15  N   UNL     1     -41.442  59.166 -49.999  1.00  0.00    -0.063 N 
HETATM   16  H   UNL     1     -42.290  58.589 -49.998  1.00  0.00     0.278 HD
HETATM   17  H   UNL     1     -41.099  59.186 -49.023  1.00  0.00     0.278 HD
BRANCH  15  18
HETATM   18  C   UNL     1     -41.766  60.567 -50.394  1.00  0.00     0.272 C 
BRANCH  18  19
HETATM   19  C   UNL     1     -43.242  60.777 -50.492  1.00  0.00    -0.015 A 
HETATM   20  C   UNL     1     -43.895  60.707 -51.717  1.00  0.00     0.125 A 
HETATM   21  N   UNL     1     -45.215  60.931 -51.875  1.00  0.00    -0.273 NA
HETATM   22  C   UNL     1     -45.933  61.222 -50.769  1.00  0.00     0.116 A 
HETATM   23  C   UNL     1     -45.380  61.313 -49.505  1.00  0.00     0.020 A 
HETATM   24  C   UNL     1     -44.013  61.093 -49.366  1.00  0.00     0.012 A 
ENDBRANCH  18  19
ENDBRANCH  15  18
ENDBRANCH  14  15
ENDBRANCH  11  14
ENDBRANCH   2  10
BRANCH   1  25
HETATM   25  C   UNL     1     -42.292  55.187 -53.484  1.00  0.00     0.259 C 
HETATM   26  N   UNL     1     -41.062  54.577 -53.609  1.00  0.00    -0.322 N 
HETATM   27  H   UNL     1     -40.333  55.107 -54.054  1.00  0.00     0.169 HD
HETATM   28  O   UNL     1     -43.174  54.822 -52.704  1.00  0.00    -0.267 OA
BRANCH  26  29
HETATM   29  C   UNL     1     -40.617  53.452 -52.877  1.00  0.00     0.041 A 
HETATM   30  C   UNL     1     -40.352  53.435 -51.496  1.00  0.00    -0.035 A 
HETATM   31  C   UNL     1     -39.828  52.258 -50.921  1.00  0.00     0.015 A 
HETATM   32  C   UNL     1     -40.653  54.569 -50.556  1.00  0.00     0.050 C 
HETATM   33  C   UNL     1     -39.639  51.094 -51.672  1.00  0.00    -0.061 A 
HETATM   34  C   UNL     1     -39.043  49.868 -51.046  1.00  0.00     0.048 C 
HETATM   35  C   UNL     1     -39.973  51.106 -53.025  1.00  0.00     0.009 A 
HETATM   36  C   UNL     1     -40.473  52.269 -53.616  1.00  0.00     0.030 A 
ENDBRANCH  26  29
ENDBRANCH   1  25
BRANCH   8  37
HETATM   37  C   UNL     1     -44.031  57.398 -59.996  1.00  0.00    -0.047 C 
HETATM   38  C   UNL     1     -42.651  57.830 -60.540  1.00  0.00     0.015 C 
HETATM   39  C   UNL     1     -44.493  56.186 -60.833  1.00  0.00     0.015 C 
HETATM   40  C   UNL     1     -45.019  58.556 -60.234  1.00  0.00     0.015 C 
ENDBRANCH   8  37
TORSDOF 8
ENDMDL
MODEL 2
REMARK VINA RESULT:      -8.8      2.458      7.391
REMARK  8 active torsions:
REMARK  status: ('A' for Active; 'I' for Inactive)
REMARK    1  A    between atoms: C_6  and  N_7 
REMARK       I    between atoms: N_7  and  C_8 
REMARK    2  A    between atoms: C_8  and  C_9 
REMARK    3  A    between atoms: C_10  and  N_11 
REMARK       I    between atoms: N_11  and  C_12 
REMARK    4  A    between atoms: C_12  and  C_13 
REMARK    5  A    between atoms: C_13  and  N_14 
REMARK    6  A    between atoms: N_14  and  C_17 
REMARK    7  A    between atoms: C_17  and  C_18 
REMARK    8  A    between atoms: C_30  and  C_31 
ROOT
HETATM    1  C   UNL     1     -43.001  58.513 -53.452  1.00  0.00     0.073 A 
HETATM    2  C   UNL     1     -42.578  59.438 -54.406  1.00  0.00     0.093 A 
HETATM    3  S   UNL     1     -42.708  61.043 -53.901  1.00  0.00    -0.075 SA
HETATM    4  C   UNL     1     -43.461  60.584 -52.451  1.00  0.00    -0.008 A 
HETATM    5  C   UNL     1     -43.594  59.211 -52.323  1.00  0.00    -0.026 A 
HETATM    6  C   UNL     1     -44.304  58.640 -51.129  1.00  0.00     0.041 C 
HETATM    7  C   UNL     1     -45.196  59.676 -50.425  1.00  0.00     0.010 C 
HETATM    8  C   UNL     1     -44.436  60.997 -50.147  1.00  0.00    -0.002 C 
HETATM    9  C   UNL     1     -43.975  61.624 -51.492  1.00  0.00     0.052 C 
ENDROOT
BRANCH   2  10
HETATM   10  N   UNL     1     -42.138  59.116 -55.683  1.00  0.00    -0.319 N 
HETATM   11  C   UNL     1     -42.818  59.242 -56.869  1.00  0.00     0.248 C 
HETATM   12  O   UNL     1     -43.867  59.838 -57.099  1.00  0.00    -0.271 OA
HETATM   13  H   UNL     1     -41.176  58.768 -55.686  1.00  0.00     0.169 HD
BRANCH  11  14
HETATM   14  C   UNL     1     -42.099  58.575 -58.042  1.00  0.00     0.335 C 
BRANCH  14  15
HETATM   15  N   UNL     1     -42.063  57.079 -57.872  1.00  0.00    -0.063 N 
HETATM   16  H   UNL     1     -41.653  56.630 -58.699  1.00  0.00     0.278 HD
HETATM   17  H   UNL     1     -41.420  56.888 -57.085  1.00  0.00     0.278 HD
BRANCH  15  18
HETATM   18  C   UNL     1     -43.379  56.458 -57.544  1.00  0.00     0.272 C 
BRANCH  18  19
HETATM   19  C   UNL     1     -44.182  56.200 -58.776  1.00  0.00    -0.015 A 
HETATM   20  C   UNL     1     -45.219  57.050 -59.146  1.00  0.00     0.125 A 
HETATM   21  N   UNL     1     -46.006  56.845 -60.220  1.00  0.00    -0.273 NA
HETATM   22  C   UNL     1     -45.753  55.758 -60.980  1.00  0.00     0.116 A 
HETATM   23  C   UNL     1     -44.745  54.852 -60.700  1.00  0.00     0.020 A 
HETATM   24  C   UNL     1     -43.952  55.075 -59.578  1.00  0.00     0.012 A 
ENDBRANCH  18  19
ENDBRANCH  15  18
ENDBRANCH  14  15
ENDBRANCH  11  14
ENDBRANCH   2  10
BRANCH   1  25
HETATM   25  C   UNL     1     -42.837  57.066 -53.729  1.00  0.00     0.259 C 
HETATM   26  N   UNL     1     -41.641  56.494 -53.351  1.00  0.00    -0.322 N 
HETATM   27  H   UNL     1     -41.092  56.991 -52.672  1.00  0.00     0.169 HD
HETATM   28  O   UNL     1     -43.755  56.458 -54.285  1.00  0.00    -0.267 OA
BRANCH  26  29
HETATM   29  C   UNL     1     -41.275  55.141 -53.536  1.00  0.00     0.041 A 
HETATM   30  C   UNL     1     -41.534  54.099 -52.629  1.00  0.00    -0.035 A 
HETATM   31  C   UNL     1     -41.029  52.812 -52.912  1.00  0.00     0.015 A 
HETATM   32  C   UNL     1     -42.381  54.234 -51.394  1.00  0.00     0.050 C 
HETATM   33  C   UNL     1     -40.346  52.536 -54.101  1.00  0.00    -0.061 A 
HETATM   34  C   UNL     1     -39.784  51.169 -54.360  1.00  0.00     0.048 C 
HETATM   35  C   UNL     1     -40.159  53.564 -55.023  1.00  0.00     0.009 A 
HETATM   36  C   UNL     1     -40.634  54.849 -54.749  1.00  0.00     0.030 A 
ENDBRANCH  26  29
ENDBRANCH   1  25
BRANCH   8  37
HETATM   37  C   UNL     1     -45.235  61.999 -49.232  1.00  0.00    -0.047 C 
HETATM   38  C   UNL     1     -44.390  63.266 -48.965  1.00  0.00     0.015 C 
HETATM   39  C   UNL     1     -46.530  62.455 -49.938  1.00  0.00     0.015 C 
HETATM   40  C   UNL     1     -45.616  61.388 -47.870  1.00  0.00     0.015 C 
ENDBRANCH   8  37
TORSDOF 8
ENDMDL
MODEL 3
REMARK VINA RESULT:      -8.7      2.534      6.626
REMARK  8 active torsions:
REMARK  status: ('A' for Active; 'I' for Inactive)
REMARK    1  A    between atoms: C_6  and  N_7 
REMARK       I    between atoms: N_7  and  C_8 
REMARK    2  A    between atoms: C_8  and  C_9 
REMARK    3  A    between atoms: C_10  and  N_11 
REMARK       I    between atoms: N_11  and  C_12 
REMARK    4  A    between atoms: C_12  and  C_13 
REMARK    5  A    between atoms: C_13  and  N_14 
REMARK    6  A    between atoms: N_14  and  C_17 
REMARK    7  A    between atoms: C_17  and  C_18 
REMARK    8  A    between atoms: C_30  and  C_31 
ROOT
HETATM    1  C   UNL     1     -43.606  56.736 -53.971  1.00  0.00     0.073 A 
HETATM    2  C   UNL     1     -43.860  57.140 -55.282  1.00  0.00     0.093 A 
HETATM    3  S   UNL     1     -44.355  58.748 -55.412  1.00  0.00    -0.075 SA
HETATM    4  C   UNL     1     -44.387  58.934 -53.725  1.00  0.00    -0.008 A 
HETATM    5  C   UNL     1     -43.995  57.790 -53.049  1.00  0.00    -0.026 A 
HETATM    6  C   UNL     1     -44.036  57.762 -51.548  1.00  0.00     0.041 C 
HETATM    7  C   UNL     1     -44.943  58.858 -50.965  1.00  0.00     0.010 C 
HETATM    8  C   UNL     1     -44.631  60.249 -51.571  1.00  0.00    -0.002 C 
HETATM    9  C   UNL     1     -44.879  60.213 -53.104  1.00  0.00     0.052 C 
ENDROOT
BRANCH   2  10
HETATM   10  N   UNL     1     -43.782  56.316 -56.396  1.00  0.00    -0.319 N 
HETATM   11  C   UNL     1     -43.127  56.552 -57.579  1.00  0.00     0.248 C 
HETATM   12  O   UNL     1     -42.311  57.429 -57.849  1.00  0.00    -0.271 OA
HETATM   13  H   UNL     1     -44.273  55.429 -56.257  1.00  0.00     0.169 HD
BRANCH  11  14
HETATM   14  C   UNL     1     -43.453  55.518 -58.657  1.00  0.00     0.335 C 
BRANCH  14  15
HETATM   15  N   UNL     1     -44.852  55.709 -59.182  1.00  0.00    -0.063 N 
HETATM   16  H   UNL     1     -45.182  54.859 -59.654  1.00  0.00     0.278 HD
HETATM   17  H   UNL     1     -45.460  55.840 -58.356  1.00  0.00     0.278 HD
BRANCH  15  18
HETATM   18  C   UNL     1     -45.028  56.896 -60.067  1.00  0.00     0.272 C 
BRANCH  18  19
HETATM   19  C   UNL     1     -45.733  58.005 -59.358  1.00  0.00    -0.015 A 
HETATM   20  C   UNL     1     -45.292  59.320 -59.467  1.00  0.00     0.125 A 
HETATM   21  N   UNL     1     -45.858  60.355 -58.817  1.00  0.00    -0.273 NA
HETATM   22  C   UNL     1     -46.924  60.089 -58.032  1.00  0.00     0.116 A 
HETATM   23  C   UNL     1     -47.442  58.819 -57.857  1.00  0.00     0.020 A 
HETATM   24  C   UNL     1     -46.833  57.761 -58.527  1.00  0.00     0.012 A 
ENDBRANCH  18  19
ENDBRANCH  15  18
ENDBRANCH  14  15
ENDBRANCH  11  14
ENDBRANCH   2  10
BRANCH   1  25
HETATM   25  C   UNL     1     -43.061  55.378 -53.729  1.00  0.00     0.259 C 
HETATM   26  N   UNL     1     -41.873  55.303 -53.034  1.00  0.00    -0.322 N 
HETATM   27  H   UNL     1     -41.607  56.107 -52.494  1.00  0.00     0.169 HD
HETATM   28  O   UNL     1     -43.677  54.403 -54.164  1.00  0.00    -0.267 OA
BRANCH  26  29
HETATM   29  C   UNL     1     -41.176  54.115 -52.711  1.00  0.00     0.041 A 
HETATM   30  C   UNL     1     -40.457  53.322 -53.622  1.00  0.00    -0.035 A 
HETATM   31  C   UNL     1     -39.887  52.114 -53.167  1.00  0.00     0.015 A 
HETATM   32  C   UNL     1     -40.186  53.699 -55.052  1.00  0.00     0.050 C 
HETATM   33  C   UNL     1     -39.955  51.729 -51.825  1.00  0.00    -0.061 A 
HETATM   34  C   UNL     1     -39.374  50.422 -51.374  1.00  0.00     0.048 C 
HETATM   35  C   UNL     1     -40.610  52.562 -50.919  1.00  0.00     0.009 A 
HETATM   36  C   UNL     1     -41.199  53.750 -51.357  1.00  0.00     0.030 A 
ENDBRANCH  26  29
ENDBRANCH   1  25
BRANCH   8  37
HETATM   37  C   UNL     1     -45.375  61.431 -50.845  1.00  0.00    -0.047 C 
HETATM   38  C   UNL     1     -46.751  61.678 -51.503  1.00  0.00     0.015 C 
HETATM   39  C   UNL     1     -45.635  61.073 -49.365  1.00  0.00     0.015 C 
HETATM   40  C   UNL     1     -44.583  62.751 -50.891  1.00  0.00     0.015 C 
ENDBRANCH   8  37
TORSDOF 8
ENDMDL
MODEL 4
REMARK VINA RESULT:      -8.6      1.794      7.308
REMARK  8 active torsions:
REMARK  status: ('A' for Active; 'I' for Inactive)
REMARK    1  A    between atoms: C_6  and  N_7 
REMARK       I    between atoms: N_7  and  C_8 
REMARK    2  A    between atoms: C_8  and  C_9 
REMARK    3  A    between atoms: C_10  and  N_11 
REMARK       I    between atoms: N_11  and  C_12 
REMARK    4  A    between atoms: C_12  and  C_13 
REMARK    5  A    between atoms: C_13  and  N_14 
REMARK    6  A    between atoms: N_14  and  C_17 
REMARK    7  A    between atoms: C_17  and  C_18 
REMARK    8  A    between atoms: C_30  and  C_31 
ROOT
HETATM    1  C   UNL     1     -43.600  57.128 -53.613  1.00  0.00     0.073 A 
HETATM    2  C   UNL     1     -42.794  56.015 -53.370  1.00  0.00     0.093 A 
HETATM    3  S   UNL     1     -42.158  55.320 -54.771  1.00  0.00    -0.075 SA
HETATM    4  C   UNL     1     -43.037  56.379 -55.764  1.00  0.00    -0.008 A 
HETATM    5  C   UNL     1     -43.796  57.288 -55.045  1.00  0.00    -0.026 A 
HETATM    6  C   UNL     1     -44.689  58.252 -55.772  1.00  0.00     0.041 C 
HETATM    7  C   UNL     1     -44.991  57.801 -57.210  1.00  0.00     0.010 C 
HETATM    8  C   UNL     1     -43.701  57.419 -57.978  1.00  0.00    -0.002 C 
HETATM    9  C   UNL     1     -43.003  56.232 -57.261  1.00  0.00     0.052 C 
ENDROOT
BRANCH   2  10
HETATM   10  N   UNL     1     -42.558  55.464 -52.119  1.00  0.00    -0.319 N 
HETATM   11  C   UNL     1     -41.633  55.854 -51.182  1.00  0.00     0.248 C 
HETATM   12  O   UNL     1     -40.955  56.877 -51.146  1.00  0.00    -0.271 OA
HETATM   13  H   UNL     1     -43.192  54.688 -51.911  1.00  0.00     0.169 HD
BRANCH  11  14
HETATM   14  C   UNL     1     -41.510  54.869 -50.020  1.00  0.00     0.335 C 
BRANCH  14  15
HETATM   15  N   UNL     1     -41.343  53.459 -50.523  1.00  0.00    -0.063 N 
HETATM   16  H   UNL     1     -41.718  52.786 -49.845  1.00  0.00     0.278 HD
HETATM   17  H   UNL     1     -41.930  53.379 -51.371  1.00  0.00     0.278 HD
BRANCH  15  18
HETATM   18  C   UNL     1     -39.948  53.094 -50.900  1.00  0.00     0.272 C 
BRANCH  18  19
HETATM   19  C   UNL     1     -39.927  52.038 -51.956  1.00  0.00    -0.015 A 
HETATM   20  C   UNL     1     -39.607  50.721 -51.645  1.00  0.00     0.125 A 
HETATM   21  N   UNL     1     -39.529  49.735 -52.560  1.00  0.00    -0.273 NA
HETATM   22  C   UNL     1     -39.795  50.054 -53.844  1.00  0.00     0.116 A 
HETATM   23  C   UNL     1     -40.125  51.332 -54.258  1.00  0.00     0.020 A 
HETATM   24  C   UNL     1     -40.187  52.340 -53.299  1.00  0.00     0.012 A 
ENDBRANCH  18  19
ENDBRANCH  15  18
ENDBRANCH  14  15
ENDBRANCH  11  14
ENDBRANCH   2  10
BRANCH   1  25
HETATM   25  C   UNL     1     -44.133  57.896 -52.462  1.00  0.00     0.259 C 
HETATM   26  N   UNL     1     -43.876  59.250 -52.449  1.00  0.00    -0.322 N 
HETATM   27  H   UNL     1     -43.617  59.674 -53.322  1.00  0.00     0.169 HD
HETATM   28  O   UNL     1     -44.756  57.296 -51.583  1.00  0.00    -0.267 OA
BRANCH  26  29
HETATM   29  C   UNL     1     -44.277  60.159 -51.442  1.00  0.00     0.041 A 
HETATM   30  C   UNL     1     -43.460  60.628 -50.399  1.00  0.00    -0.035 A 
HETATM   31  C   UNL     1     -44.028  61.466 -49.417  1.00  0.00     0.015 A 
HETATM   32  C   UNL     1     -41.985  60.357 -50.283  1.00  0.00     0.050 C 
HETATM   33  C   UNL     1     -45.356  61.898 -49.499  1.00  0.00    -0.061 A 
HETATM   34  C   UNL     1     -45.948  62.757 -48.421  1.00  0.00     0.048 C 
HETATM   35  C   UNL     1     -46.133  61.482 -50.578  1.00  0.00     0.009 A 
HETATM   36  C   UNL     1     -45.593  60.635 -51.548  1.00  0.00     0.030 A 
ENDBRANCH  26  29
ENDBRANCH   1  25
BRANCH   8  37
HETATM   37  C   UNL     1     -43.937  57.170 -59.515  1.00  0.00    -0.047 C 
HETATM   38  C   UNL     1     -42.898  57.954 -60.348  1.00  0.00     0.015 C 
HETATM   39  C   UNL     1     -43.755  55.673 -59.851  1.00  0.00     0.015 C 
HETATM   40  C   UNL     1     -45.341  57.602 -59.980  1.00  0.00     0.015 C 
ENDBRANCH   8  37
TORSDOF 8
ENDMDL
MODEL 5
REMARK VINA RESULT:      -8.3      1.906      3.554
REMARK  8 active torsions:
REMARK  status: ('A' for Active; 'I' for Inactive)
REMARK    1  A    between atoms: C_6  and  N_7 
REMARK       I    between atoms: N_7  and  C_8 
REMARK    2  A    between atoms: C_8  and  C_9 
REMARK    3  A    between atoms: C_10  and  N_11 
REMARK       I    between atoms: N_11  and  C_12 
REMARK    4  A    between atoms: C_12  and  C_13 
REMARK    5  A    between atoms: C_13  and  N_14 
REMARK    6  A    between atoms: N_14  and  C_17 
REMARK    7  A    between atoms: C_17  and  C_18 
REMARK    8  A    between atoms: C_30  and  C_31 
ROOT
HETATM    1  C   UNL     1     -43.809  57.476 -54.039  1.00  0.00     0.073 A 
HETATM    2  C   UNL     1     -44.247  58.797 -53.949  1.00  0.00     0.093 A 
HETATM    3  S   UNL     1     -44.715  59.459 -55.429  1.00  0.00    -0.075 SA
HETATM    4  C   UNL     1     -44.225  58.069 -56.270  1.00  0.00    -0.008 A 
HETATM    5  C   UNL     1     -43.731  57.080 -55.436  1.00  0.00    -0.026 A 
HETATM    6  C   UNL     1     -43.187  55.811 -56.026  1.00  0.00     0.041 C 
HETATM    7  C   UNL     1     -42.831  55.961 -57.514  1.00  0.00     0.010 C 
HETATM    8  C   UNL     1     -43.987  56.600 -58.323  1.00  0.00    -0.002 C 
HETATM    9  C   UNL     1     -44.280  58.023 -57.773  1.00  0.00     0.052 C 
ENDROOT
BRANCH   2  10
HETATM   10  N   UNL     1     -44.259  59.552 -52.784  1.00  0.00    -0.319 N 
HETATM   11  C   UNL     1     -45.273  60.337 -52.294  1.00  0.00     0.248 C 
HETATM   12  O   UNL     1     -46.447  60.394 -52.651  1.00  0.00    -0.271 OA
HETATM   13  H   UNL     1     -43.388  59.461 -52.254  1.00  0.00     0.169 HD
BRANCH  11  14
HETATM   14  C   UNL     1     -44.841  61.196 -51.106  1.00  0.00     0.335 C 
BRANCH  14  15
HETATM   15  N   UNL     1     -43.349  61.403 -51.104  1.00  0.00    -0.063 N 
HETATM   16  H   UNL     1     -42.973  61.335 -52.056  1.00  0.00     0.278 HD
HETATM   17  H   UNL     1     -43.188  62.376 -50.793  1.00  0.00     0.278 HD
BRANCH  15  18
HETATM   18  C   UNL     1     -42.598  60.503 -50.183  1.00  0.00     0.272 C 
BRANCH  18  19
HETATM   19  C   UNL     1     -41.340  60.004 -50.814  1.00  0.00    -0.015 A 
HETATM   20  C   UNL     1     -41.303  59.656 -52.160  1.00  0.00     0.125 A 
HETATM   21  N   UNL     1     -40.211  59.160 -52.775  1.00  0.00    -0.273 NA
HETATM   22  C   UNL     1     -39.092  59.012 -52.033  1.00  0.00     0.116 A 
HETATM   23  C   UNL     1     -39.023  59.330 -50.689  1.00  0.00     0.020 A 
HETATM   24  C   UNL     1     -40.166  59.829 -50.070  1.00  0.00     0.012 A 
ENDBRANCH  18  19
ENDBRANCH  15  18
ENDBRANCH  14  15
ENDBRANCH  11  14
ENDBRANCH   2  10
BRANCH   1  25
HETATM   25  C   UNL     1     -43.471  56.743 -52.795  1.00  0.00     0.259 C 
HETATM   26  N   UNL     1     -42.164  56.328 -52.656  1.00  0.00    -0.322 N 
HETATM   27  H   UNL     1     -41.477  56.780 -53.233  1.00  0.00     0.169 HD
HETATM   28  O   UNL     1     -44.361  56.534 -51.967  1.00  0.00    -0.267 OA
BRANCH  26  29
HETATM   29  C   UNL     1     -41.637  55.605 -51.560  1.00  0.00     0.041 A 
HETATM   30  C   UNL     1     -41.227  54.261 -51.597  1.00  0.00    -0.035 A 
HETATM   31  C   UNL     1     -40.803  53.649 -50.398  1.00  0.00     0.015 A 
HETATM   32  C   UNL     1     -41.139  53.429 -52.846  1.00  0.00     0.050 C 
HETATM   33  C   UNL     1     -40.711  54.365 -49.200  1.00  0.00    -0.061 A 
HETATM   34  C   UNL     1     -40.295  53.681 -47.931  1.00  0.00     0.048 C 
HETATM   35  C   UNL     1     -41.052  55.716 -49.196  1.00  0.00     0.009 A 
HETATM   36  C   UNL     1     -41.495  56.332 -50.369  1.00  0.00     0.030 A 
ENDBRANCH  26  29
ENDBRANCH   1  25
BRANCH   8  37
HETATM   37  C   UNL     1     -43.756  56.567 -59.880  1.00  0.00    -0.047 C 
HETATM   38  C   UNL     1     -44.408  55.304 -60.488  1.00  0.00     0.015 C 
HETATM   39  C   UNL     1     -44.421  57.790 -60.548  1.00  0.00     0.015 C 
HETATM   40  C   UNL     1     -42.263  56.560 -60.261  1.00  0.00     0.015 C 
ENDBRANCH   8  37
TORSDOF 8
ENDMDL
MODEL 6
REMARK VINA RESULT:      -8.3      2.455      8.286
REMARK  8 active torsions:
REMARK  status: ('A' for Active; 'I' for Inactive)
REMARK    1  A    between atoms: C_6  and  N_7 
REMARK       I    between atoms: N_7  and  C_8 
REMARK    2  A    between atoms: C_8  and  C_9 
REMARK    3  A    between atoms: C_10  and  N_11 
REMARK       I    between atoms: N_11  and  C_12 
REMARK    4  A    between atoms: C_12  and  C_13 
REMARK    5  A    between atoms: C_13  and  N_14 
REMARK    6  A    between atoms: N_14  and  C_17 
REMARK    7  A    between atoms: C_17  and  C_18 
REMARK    8  A    between atoms: C_30  and  C_31 
ROOT
HETATM    1  C   UNL     1     -42.981  55.993 -53.726  1.00  0.00     0.073 A 
HETATM    2  C   UNL     1     -43.439  55.888 -55.040  1.00  0.00     0.093 A 
HETATM    3  S   UNL     1     -43.065  54.414 -55.773  1.00  0.00    -0.075 SA
HETATM    4  C   UNL     1     -42.162  53.910 -54.427  1.00  0.00    -0.008 A 
HETATM    5  C   UNL     1     -42.160  54.839 -53.400  1.00  0.00    -0.026 A 
HETATM    6  C   UNL     1     -41.348  54.580 -52.163  1.00  0.00     0.041 C 
HETATM    7  C   UNL     1     -40.258  53.519 -52.388  1.00  0.00     0.010 C 
HETATM    8  C   UNL     1     -40.824  52.244 -53.062  1.00  0.00    -0.002 C 
HETATM    9  C   UNL     1     -41.406  52.609 -54.456  1.00  0.00     0.052 C 
ENDROOT
BRANCH   2  10
HETATM   10  N   UNL     1     -44.091  56.896 -55.737  1.00  0.00    -0.319 N 
HETATM   11  C   UNL     1     -43.537  57.892 -56.502  1.00  0.00     0.248 C 
HETATM   12  O   UNL     1     -42.383  58.004 -56.906  1.00  0.00    -0.271 OA
HETATM   13  H   UNL     1     -45.109  56.829 -55.652  1.00  0.00     0.169 HD
BRANCH  11  14
HETATM   14  C   UNL     1     -44.552  58.952 -56.928  1.00  0.00     0.335 C 
BRANCH  14  15
HETATM   15  N   UNL     1     -44.292  59.413 -58.338  1.00  0.00    -0.063 N 
HETATM   16  H   UNL     1     -44.030  60.405 -58.353  1.00  0.00     0.278 HD
HETATM   17  H   UNL     1     -43.467  58.886 -58.672  1.00  0.00     0.278 HD
BRANCH  15  18
HETATM   18  C   UNL     1     -45.409  59.157 -59.292  1.00  0.00     0.272 C 
BRANCH  18  19
HETATM   19  C   UNL     1     -45.335  57.778 -59.861  1.00  0.00    -0.015 A 
HETATM   20  C   UNL     1     -44.118  57.228 -60.248  1.00  0.00     0.125 A 
HETATM   21  N   UNL     1     -43.993  56.008 -60.807  1.00  0.00    -0.273 NA
HETATM   22  C   UNL     1     -45.119  55.285 -60.982  1.00  0.00     0.116 A 
HETATM   23  C   UNL     1     -46.378  55.739 -60.629  1.00  0.00     0.020 A 
HETATM   24  C   UNL     1     -46.486  57.007 -60.066  1.00  0.00     0.012 A 
ENDBRANCH  18  19
ENDBRANCH  15  18
ENDBRANCH  14  15
ENDBRANCH  11  14
ENDBRANCH   2  10
BRANCH   1  25
HETATM   25  C   UNL     1     -43.337  57.195 -52.934  1.00  0.00     0.259 C 
HETATM   26  N   UNL     1     -42.405  58.210 -52.896  1.00  0.00    -0.322 N 
HETATM   27  H   UNL     1     -41.701  58.211 -53.612  1.00  0.00     0.169 HD
HETATM   28  O   UNL     1     -44.423  57.223 -52.350  1.00  0.00    -0.267 OA
BRANCH  26  29
HETATM   29  C   UNL     1     -42.537  59.429 -52.191  1.00  0.00     0.041 A 
HETATM   30  C   UNL     1     -41.943  59.718 -50.951  1.00  0.00    -0.035 A 
HETATM   31  C   UNL     1     -42.238  60.949 -50.327  1.00  0.00     0.015 A 
HETATM   32  C   UNL     1     -40.945  58.833 -50.255  1.00  0.00     0.050 C 
HETATM   33  C   UNL     1     -43.043  61.911 -50.946  1.00  0.00    -0.061 A 
HETATM   34  C   UNL     1     -43.374  63.196 -50.245  1.00  0.00     0.048 C 
HETATM   35  C   UNL     1     -43.567  61.639 -52.208  1.00  0.00     0.009 A 
HETATM   36  C   UNL     1     -43.302  60.416 -52.830  1.00  0.00     0.030 A 
ENDBRANCH  26  29
ENDBRANCH   1  25
BRANCH   8  37
HETATM   37  C   UNL     1     -39.798  51.050 -53.107  1.00  0.00    -0.047 C 
HETATM   38  C   UNL     1     -38.402  51.563 -53.528  1.00  0.00     0.015 C 
HETATM   39  C   UNL     1     -39.648  50.419 -51.706  1.00  0.00     0.015 C 
HETATM   40  C   UNL     1     -40.215  49.943 -54.094  1.00  0.00     0.015 C 
ENDBRANCH   8  37
TORSDOF 8
ENDMDL
MODEL 7
REMARK VINA RESULT:      -8.2      2.083      7.083
REMARK  8 active torsions:
REMARK  status: ('A' for Active; 'I' for Inactive)
REMARK    1  A    between atoms: C_6  and  N_7 
REMARK       I    between atoms: N_7  and  C_8 
REMARK    2  A    between atoms: C_8  and  C_9 
REMARK    3  A    between atoms: C_10  and  N_11 
REMARK       I    between atoms: N_11  and  C_12 
REMARK    4  A    between atoms: C_12  and  C_13 
REMARK    5  A    between atoms: C_13  and  N_14 
REMARK    6  A    between atoms: N_14  and  C_17 
REMARK    7  A    between atoms: C_17  and  C_18 
REMARK    8  A    between atoms: C_30  and  C_31 
ROOT
HETATM    1  C   UNL     1     -42.425  56.124 -53.673  1.00  0.00     0.073 A 
HETATM    2  C   UNL     1     -42.597  56.446 -52.327  1.00  0.00     0.093 A 
HETATM    3  S   UNL     1     -41.845  55.366 -51.270  1.00  0.00    -0.075 SA
HETATM    4  C   UNL     1     -41.379  54.352 -52.548  1.00  0.00    -0.008 A 
HETATM    5  C   UNL     1     -41.762  54.836 -53.788  1.00  0.00    -0.026 A 
HETATM    6  C   UNL     1     -41.489  54.023 -55.021  1.00  0.00     0.041 C 
HETATM    7  C   UNL     1     -41.225  52.542 -54.702  1.00  0.00     0.010 C 
HETATM    8  C   UNL     1     -40.172  52.374 -53.578  1.00  0.00    -0.002 C 
HETATM    9  C   UNL     1     -40.694  53.040 -52.275  1.00  0.00     0.052 C 
ENDROOT
BRANCH   2  10
HETATM   10  N   UNL     1     -43.355  57.509 -51.855  1.00  0.00    -0.319 N 
HETATM   11  C   UNL     1     -44.487  57.463 -51.080  1.00  0.00     0.248 C 
HETATM   12  O   UNL     1     -44.968  56.512 -50.470  1.00  0.00    -0.271 OA
HETATM   13  H   UNL     1     -42.965  58.414 -52.129  1.00  0.00     0.169 HD
BRANCH  11  14
HETATM   14  C   UNL     1     -45.174  58.823 -50.948  1.00  0.00     0.335 C 
BRANCH  14  15
HETATM   15  N   UNL     1     -44.432  59.710 -49.983  1.00  0.00    -0.063 N 
HETATM   16  H   UNL     1     -45.077  60.122 -49.299  1.00  0.00     0.278 HD
HETATM   17  H   UNL     1     -43.793  59.095 -49.450  1.00  0.00     0.278 HD
BRANCH  15  18
HETATM   18  C   UNL     1     -43.607  60.774 -50.625  1.00  0.00     0.272 C 
BRANCH  18  19
HETATM   19  C   UNL     1     -42.313  60.228 -51.133  1.00  0.00    -0.015 A 
HETATM   20  C   UNL     1     -42.068  60.122 -52.498  1.00  0.00     0.125 A 
HETATM   21  N   UNL     1     -40.940  59.597 -53.016  1.00  0.00    -0.273 NA
HETATM   22  C   UNL     1     -39.997  59.169 -52.150  1.00  0.00     0.116 A 
HETATM   23  C   UNL     1     -40.141  59.232 -50.776  1.00  0.00     0.020 A 
HETATM   24  C   UNL     1     -41.320  59.764 -50.261  1.00  0.00     0.012 A 
ENDBRANCH  18  19
ENDBRANCH  15  18
ENDBRANCH  14  15
ENDBRANCH  11  14
ENDBRANCH   2  10
BRANCH   1  25
HETATM   25  C   UNL     1     -42.944  57.052 -54.707  1.00  0.00     0.259 C 
HETATM   26  N   UNL     1     -42.029  57.545 -55.612  1.00  0.00    -0.322 N 
HETATM   27  H   UNL     1     -41.164  57.044 -55.707  1.00  0.00     0.169 HD
HETATM   28  O   UNL     1     -44.143  57.342 -54.699  1.00  0.00    -0.267 OA
BRANCH  26  29
HETATM   29  C   UNL     1     -42.309  58.450 -56.663  1.00  0.00     0.041 A 
HETATM   30  C   UNL     1     -42.686  58.087 -57.967  1.00  0.00    -0.035 A 
HETATM   31  C   UNL     1     -42.847  59.103 -58.934  1.00  0.00     0.015 A 
HETATM   32  C   UNL     1     -43.004  56.684 -58.404  1.00  0.00     0.050 C 
HETATM   33  C   UNL     1     -42.713  60.456 -58.607  1.00  0.00    -0.061 A 
HETATM   34  C   UNL     1     -42.850  61.514 -59.661  1.00  0.00     0.048 C 
HETATM   35  C   UNL     1     -42.409  60.803 -57.291  1.00  0.00     0.009 A 
HETATM   36  C   UNL     1     -42.225  59.809 -56.327  1.00  0.00     0.030 A 
ENDBRANCH  26  29
ENDBRANCH   1  25
BRANCH   8  37
HETATM   37  C   UNL     1     -39.705  50.883 -53.374  1.00  0.00    -0.047 C 
HETATM   38  C   UNL     1     -39.679  50.535 -51.869  1.00  0.00     0.015 C 
HETATM   39  C   UNL     1     -40.698  49.913 -54.050  1.00  0.00     0.015 C 
HETATM   40  C   UNL     1     -38.301  50.616 -53.948  1.00  0.00     0.015 C 
ENDBRANCH   8  37
TORSDOF 8
ENDMDL
MODEL 8
REMARK VINA RESULT:      -8.0      2.149      6.886
REMARK  8 active torsions:
REMARK  status: ('A' for Active; 'I' for Inactive)
REMARK    1  A    between atoms: C_6  and  N_7 
REMARK       I    between atoms: N_7  and  C_8 
REMARK    2  A    between atoms: C_8  and  C_9 
REMARK    3  A    between atoms: C_10  and  N_11 
REMARK       I    between atoms: N_11  and  C_12 
REMARK    4  A    between atoms: C_12  and  C_13 
REMARK    5  A    between atoms: C_13  and  N_14 
REMARK    6  A    between atoms: N_14  and  C_17 
REMARK    7  A    between atoms: C_17  and  C_18 
REMARK    8  A    between atoms: C_30  and  C_31 
ROOT
HETATM    1  C   UNL     1     -41.866  56.421 -53.853  1.00  0.00     0.073 A 
HETATM    2  C   UNL     1     -42.251  56.668 -52.535  1.00  0.00     0.093 A 
HETATM    3  S   UNL     1     -41.805  55.448 -51.458  1.00  0.00    -0.075 SA
HETATM    4  C   UNL     1     -41.207  54.478 -52.716  1.00  0.00    -0.008 A 
HETATM    5  C   UNL     1     -41.312  55.081 -53.959  1.00  0.00    -0.026 A 
HETATM    6  C   UNL     1     -40.893  54.329 -55.189  1.00  0.00     0.041 C 
HETATM    7  C   UNL     1     -40.826  52.811 -54.954  1.00  0.00     0.010 C 
HETATM    8  C   UNL     1     -40.016  52.459 -53.681  1.00  0.00    -0.002 C 
HETATM    9  C   UNL     1     -40.704  53.088 -52.439  1.00  0.00     0.052 C 
ENDROOT
BRANCH   2  10
HETATM   10  N   UNL     1     -42.983  57.770 -52.115  1.00  0.00    -0.319 N 
HETATM   11  C   UNL     1     -42.559  58.823 -51.342  1.00  0.00     0.248 C 
HETATM   12  O   UNL     1     -41.416  59.133 -51.019  1.00  0.00    -0.271 OA
HETATM   13  H   UNL     1     -43.942  57.757 -52.470  1.00  0.00     0.169 HD
BRANCH  11  14
HETATM   14  C   UNL     1     -43.704  59.732 -50.895  1.00  0.00     0.335 C 
BRANCH  14  15
HETATM   15  N   UNL     1     -43.272  60.625 -49.761  1.00  0.00    -0.063 N 
HETATM   16  H   UNL     1     -43.243  60.102 -48.879  1.00  0.00     0.278 HD
HETATM   17  H   UNL     1     -42.300  60.910 -49.966  1.00  0.00     0.278 HD
BRANCH  15  18
HETATM   18  C   UNL     1     -44.085  61.865 -49.602  1.00  0.00     0.272 C 
BRANCH  18  19
HETATM   19  C   UNL     1     -45.059  61.738 -48.477  1.00  0.00    -0.015 A 
HETATM   20  C   UNL     1     -46.351  62.241 -48.587  1.00  0.00     0.125 A 
HETATM   21  N   UNL     1     -47.258  62.195 -47.593  1.00  0.00    -0.273 NA
HETATM   22  C   UNL     1     -46.884  61.611 -46.434  1.00  0.00     0.116 A 
HETATM   23  C   UNL     1     -45.626  61.078 -46.223  1.00  0.00     0.020 A 
HETATM   24  C   UNL     1     -44.698  61.148 -47.259  1.00  0.00     0.012 A 
ENDBRANCH  18  19
ENDBRANCH  15  18
ENDBRANCH  14  15
ENDBRANCH  11  14
ENDBRANCH   2  10
BRANCH   1  25
HETATM   25  C   UNL     1     -42.102  57.465 -54.880  1.00  0.00     0.259 C 
HETATM   26  N   UNL     1     -42.807  57.083 -56.001  1.00  0.00    -0.322 N 
HETATM   27  H   UNL     1     -43.355  56.244 -55.932  1.00  0.00     0.169 HD
HETATM   28  O   UNL     1     -41.654  58.598 -54.690  1.00  0.00    -0.267 OA
BRANCH  26  29
HETATM   29  C   UNL     1     -43.127  57.913 -57.100  1.00  0.00     0.041 A 
HETATM   30  C   UNL     1     -44.326  58.631 -57.254  1.00  0.00    -0.035 A 
HETATM   31  C   UNL     1     -44.538  59.348 -58.450  1.00  0.00     0.015 A 
HETATM   32  C   UNL     1     -45.389  58.752 -56.197  1.00  0.00     0.050 C 
HETATM   33  C   UNL     1     -43.559  59.423 -59.446  1.00  0.00    -0.061 A 
HETATM   34  C   UNL     1     -43.825  60.159 -60.725  1.00  0.00     0.048 C 
HETATM   35  C   UNL     1     -42.347  58.764 -59.247  1.00  0.00     0.009 A 
HETATM   36  C   UNL     1     -42.129  58.031 -58.079  1.00  0.00     0.030 A 
ENDBRANCH  26  29
ENDBRANCH   1  25
BRANCH   8  37
HETATM   37  C   UNL     1     -39.730  50.918 -53.526  1.00  0.00    -0.047 C 
HETATM   38  C   UNL     1     -40.844  50.098 -54.216  1.00  0.00     0.015 C 
HETATM   39  C   UNL     1     -38.398  50.547 -54.213  1.00  0.00     0.015 C 
HETATM   40  C   UNL     1     -39.656  50.472 -52.053  1.00  0.00     0.015 C 
ENDBRANCH   8  37
TORSDOF 8
ENDMDL
MODEL 9
REMARK VINA RESULT:      -7.9      2.547      8.355
REMARK  8 active torsions:
REMARK  status: ('A' for Active; 'I' for Inactive)
REMARK    1  A    between atoms: C_6  and  N_7 
REMARK       I    between atoms: N_7  and  C_8 
REMARK    2  A    between atoms: C_8  and  C_9 
REMARK    3  A    between atoms: C_10  and  N_11 
REMARK       I    between atoms: N_11  and  C_12 
REMARK    4  A    between atoms: C_12  and  C_13 
REMARK    5  A    between atoms: C_13  and  N_14 
REMARK    6  A    between atoms: N_14  and  C_17 
REMARK    7  A    between atoms: C_17  and  C_18 
REMARK    8  A    between atoms: C_30  and  C_31 
ROOT
HETATM    1  C   UNL     1     -43.104  55.923 -53.532  1.00  0.00     0.073 A 
HETATM    2  C   UNL     1     -43.528  55.848 -54.859  1.00  0.00     0.093 A 
HETATM    3  S   UNL     1     -43.078  54.418 -55.635  1.00  0.00    -0.075 SA
HETATM    4  C   UNL     1     -42.185  53.902 -54.287  1.00  0.00    -0.008 A 
HETATM    5  C   UNL     1     -42.243  54.792 -53.228  1.00  0.00    -0.026 A 
HETATM    6  C   UNL     1     -41.449  54.521 -51.983  1.00  0.00     0.041 C 
HETATM    7  C   UNL     1     -40.311  53.515 -52.220  1.00  0.00     0.010 C 
HETATM    8  C   UNL     1     -40.809  52.243 -52.952  1.00  0.00    -0.002 C 
HETATM    9  C   UNL     1     -41.375  52.635 -54.344  1.00  0.00     0.052 C 
ENDROOT
BRANCH   2  10
HETATM   10  N   UNL     1     -44.206  56.853 -55.535  1.00  0.00    -0.319 N 
HETATM   11  C   UNL     1     -43.698  57.768 -56.423  1.00  0.00     0.248 C 
HETATM   12  O   UNL     1     -42.598  57.787 -56.968  1.00  0.00    -0.271 OA
HETATM   13  H   UNL     1     -45.208  56.853 -55.325  1.00  0.00     0.169 HD
BRANCH  11  14
HETATM   14  C   UNL     1     -44.700  58.863 -56.790  1.00  0.00     0.335 C 
BRANCH  14  15
HETATM   15  N   UNL     1     -44.356  59.485 -58.118  1.00  0.00    -0.063 N 
HETATM   16  H   UNL     1     -44.093  60.470 -57.999  1.00  0.00     0.278 HD
HETATM   17  H   UNL     1     -43.513  58.996 -58.462  1.00  0.00     0.278 HD
BRANCH  15  18
HETATM   18  C   UNL     1     -45.415  59.353 -59.159  1.00  0.00     0.272 C 
BRANCH  18  19
HETATM   19  C   UNL     1     -45.456  57.970 -59.721  1.00  0.00    -0.015 A 
HETATM   20  C   UNL     1     -46.654  57.268 -59.812  1.00  0.00     0.125 A 
HETATM   21  N   UNL     1     -46.747  56.004 -60.268  1.00  0.00    -0.273 NA
HETATM   22  C   UNL     1     -45.608  55.402 -60.672  1.00  0.00     0.116 A 
HETATM   23  C   UNL     1     -44.368  56.012 -60.626  1.00  0.00     0.020 A 
HETATM   24  C   UNL     1     -44.291  57.313 -60.138  1.00  0.00     0.012 A 
ENDBRANCH  18  19
ENDBRANCH  15  18
ENDBRANCH  14  15
ENDBRANCH  11  14
ENDBRANCH   2  10
BRANCH   1  25
HETATM   25  C   UNL     1     -43.527  57.080 -52.707  1.00  0.00     0.259 C 
HETATM   26  N   UNL     1     -42.818  58.251 -52.871  1.00  0.00    -0.322 N 
HETATM   27  H   UNL     1     -42.277  58.343 -53.713  1.00  0.00     0.169 HD
HETATM   28  O   UNL     1     -44.466  56.938 -51.920  1.00  0.00    -0.267 OA
BRANCH  26  29
HETATM   29  C   UNL     1     -43.045  59.461 -52.176  1.00  0.00     0.041 A 
HETATM   30  C   UNL     1     -44.074  60.377 -52.456  1.00  0.00    -0.035 A 
HETATM   31  C   UNL     1     -44.121  61.587 -51.731  1.00  0.00     0.015 A 
HETATM   32  C   UNL     1     -45.188  60.136 -53.437  1.00  0.00     0.050 C 
HETATM   33  C   UNL     1     -43.219  61.859 -50.697  1.00  0.00    -0.061 A 
HETATM   34  C   UNL     1     -43.265  63.169 -49.968  1.00  0.00     0.048 C 
HETATM   35  C   UNL     1     -42.249  60.909 -50.384  1.00  0.00     0.009 A 
HETATM   36  C   UNL     1     -42.175  59.715 -51.106  1.00  0.00     0.030 A 
ENDBRANCH  26  29
ENDBRANCH   1  25
BRANCH   8  37
HETATM   37  C   UNL     1     -39.733  51.094 -53.014  1.00  0.00    -0.047 C 
HETATM   38  C   UNL     1     -39.637  50.381 -51.647  1.00  0.00     0.015 C 
HETATM   39  C   UNL     1     -40.143  50.031 -54.056  1.00  0.00     0.015 C 
HETATM   40  C   UNL     1     -38.329  51.612 -53.379  1.00  0.00     0.015 C 
ENDBRANCH   8  37
TORSDOF 8
ENDMDL
MODEL 10
REMARK VINA RESULT:      -7.8      2.501      5.984
REMARK  8 active torsions:
REMARK  status: ('A' for Active; 'I' for Inactive)
REMARK    1  A    between atoms: C_6  and  N_7 
REMARK       I    between atoms: N_7  and  C_8 
REMARK    2  A    between atoms: C_8  and  C_9 
REMARK    3  A    between atoms: C_10  and  N_11 
REMARK       I    between atoms: N_11  and  C_12 
REMARK    4  A    between atoms: C_12  and  C_13 
REMARK    5  A    between atoms: C_13  and  N_14 
REMARK    6  A    between atoms: N_14  and  C_17 
REMARK    7  A    between atoms: C_17  and  C_18 
REMARK    8  A    between atoms: C_30  and  C_31 
ROOT
HETATM    1  C   UNL     1     -43.139  57.899 -57.058  1.00  0.00     0.073 A 
HETATM    2  C   UNL     1     -42.818  56.593 -57.430  1.00  0.00     0.093 A 
HETATM    3  S   UNL     1     -43.582  56.085 -58.847  1.00  0.00    -0.075 SA
HETATM    4  C   UNL     1     -44.475  57.524 -58.949  1.00  0.00    -0.008 A 
HETATM    5  C   UNL     1     -44.183  58.414 -57.929  1.00  0.00    -0.026 A 
HETATM    6  C   UNL     1     -44.938  59.709 -57.831  1.00  0.00     0.041 C 
HETATM    7  C   UNL     1     -46.260  59.678 -58.614  1.00  0.00     0.010 C 
HETATM    8  C   UNL     1     -46.062  59.160 -60.061  1.00  0.00    -0.002 C 
HETATM    9  C   UNL     1     -45.516  57.706 -60.021  1.00  0.00     0.052 C 
ENDROOT
BRANCH   2  10
HETATM   10  N   UNL     1     -42.001  55.738 -56.703  1.00  0.00    -0.319 N 
HETATM   11  C   UNL     1     -42.373  54.678 -55.915  1.00  0.00     0.248 C 
HETATM   12  O   UNL     1     -43.466  54.125 -55.830  1.00  0.00    -0.271 OA
HETATM   13  H   UNL     1     -41.009  55.957 -56.822  1.00  0.00     0.169 HD
BRANCH  11  14
HETATM   14  C   UNL     1     -41.216  54.112 -55.093  1.00  0.00     0.335 C 
BRANCH  14  15
HETATM   15  N   UNL     1     -41.684  53.684 -53.726  1.00  0.00    -0.063 N 
HETATM   16  H   UNL     1     -42.442  52.996 -53.801  1.00  0.00     0.278 HD
HETATM   17  H   UNL     1     -40.887  53.197 -53.282  1.00  0.00     0.278 HD
BRANCH  15  18
HETATM   18  C   UNL     1     -42.088  54.804 -52.829  1.00  0.00     0.272 C 
BRANCH  18  19
HETATM   19  C   UNL     1     -41.529  54.631 -51.455  1.00  0.00    -0.015 A 
HETATM   20  C   UNL     1     -40.830  53.480 -51.106  1.00  0.00     0.125 A 
HETATM   21  N   UNL     1     -40.341  53.247 -49.872  1.00  0.00    -0.273 NA
HETATM   22  C   UNL     1     -40.534  54.200 -48.936  1.00  0.00     0.116 A 
HETATM   23  C   UNL     1     -41.213  55.381 -49.180  1.00  0.00     0.020 A 
HETATM   24  C   UNL     1     -41.722  55.596 -50.458  1.00  0.00     0.012 A 
ENDBRANCH  18  19
ENDBRANCH  15  18
ENDBRANCH  14  15
ENDBRANCH  11  14
ENDBRANCH   2  10
BRANCH   1  25
HETATM   25  C   UNL     1     -42.452  58.504 -55.891  1.00  0.00     0.259 C 
HETATM   26  N   UNL     1     -42.668  57.907 -54.667  1.00  0.00    -0.322 N 
HETATM   27  H   UNL     1     -43.018  56.965 -54.674  1.00  0.00     0.169 HD
HETATM   28  O   UNL     1     -41.746  59.499 -56.066  1.00  0.00    -0.267 OA
BRANCH  26  29
HETATM   29  C   UNL     1     -42.125  58.330 -53.432  1.00  0.00     0.041 A 
HETATM   30  C   UNL     1     -42.873  58.698 -52.300  1.00  0.00    -0.035 A 
HETATM   31  C   UNL     1     -42.190  59.184 -51.165  1.00  0.00     0.015 A 
HETATM   32  C   UNL     1     -44.364  58.546 -52.176  1.00  0.00     0.050 C 
HETATM   33  C   UNL     1     -40.793  59.238 -51.115  1.00  0.00    -0.061 A 
HETATM   34  C   UNL     1     -40.092  59.796 -49.912  1.00  0.00     0.048 C 
HETATM   35  C   UNL     1     -40.063  58.802 -52.220  1.00  0.00     0.009 A 
HETATM   36  C   UNL     1     -40.724  58.338 -53.359  1.00  0.00     0.030 A 
ENDBRANCH  26  29
ENDBRANCH   1  25
BRANCH   8  37
HETATM   37  C   UNL     1     -47.340  59.323 -60.966  1.00  0.00    -0.047 C 
HETATM   38  C   UNL     1     -48.470  60.017 -60.171  1.00  0.00     0.015 C 
HETATM   39  C   UNL     1     -47.025  60.216 -62.185  1.00  0.00     0.015 C 
HETATM   40  C   UNL     1     -47.881  57.975 -61.480  1.00  0.00     0.015 C 
ENDBRANCH   8  37
TORSDOF 8
ENDMDL
