MODEL 1
REMARK VINA RESULT:      -7.8      0.000      0.000
REMARK  8 active torsions:
REMARK  status: ('A' for Active; 'I' for Inactive)
REMARK    1  A    between atoms: O_2  and  C_3 
REMARK    2  A    between atoms: C_4  and  N_5 
REMARK       I    between atoms: N_5  and  C_6 
REMARK       I    between atoms: C_6  and  N_7 
REMARK    3  A    between atoms: N_7  and  C_8 
REMARK    4  A    between atoms: C_11  and  C_12 
REMARK    5  A    between atoms: C_12  and  C_13 
REMARK       I    between atoms: C_13  and  N_14 
REMARK    6  A    between atoms: N_14  and  C_15 
REMARK    7  A    between atoms: C_16  and  O_17 
REMARK    8  A    between atoms: O_17  and  C_18 
ROOT
HETATM    1  C   UNL     1     -44.801  59.428 -53.272  1.00  0.00     0.174 C 
HETATM    2  S   UNL     1     -45.685  60.844 -53.609  1.00  0.00    -0.062 SA
HETATM    3  C   UNL     1     -44.435  61.341 -54.670  1.00  0.00     0.081 C 
HETATM    4  C   UNL     1     -43.415  60.405 -54.672  1.00  0.00     0.052 C 
HETATM    5  N   UNL     1     -43.681  59.257 -53.930  1.00  0.00    -0.228 NA
ENDROOT
BRANCH   4   6
HETATM    6  C   UNL     1     -42.085  60.554 -55.335  1.00  0.00     0.163 C 
BRANCH   6   7
HETATM    7  C   UNL     1     -42.113  59.863 -56.696  1.00  0.00     0.227 C 
HETATM    8  N   UNL     1     -43.076  58.875 -56.798  1.00  0.00    -0.324 N 
HETATM    9  H   UNL     1     -43.810  58.840 -56.099  1.00  0.00     0.169 HD
HETATM   10  O   UNL     1     -41.331  60.188 -57.587  1.00  0.00    -0.273 OA
BRANCH   8  11
HETATM   11  C   UNL     1     -43.173  57.878 -57.797  1.00  0.00     0.069 A 
HETATM   12  C   UNL     1     -43.328  56.544 -57.385  1.00  0.00     0.102 A 
HETATM   13  C   UNL     1     -43.313  55.497 -58.315  1.00  0.00     0.039 A 
HETATM   14  C   UNL     1     -43.196  55.781 -59.674  1.00  0.00     0.003 A 
HETATM   15  C   UNL     1     -43.080  57.104 -60.097  1.00  0.00     0.002 A 
HETATM   16  C   UNL     1     -43.065  58.147 -59.164  1.00  0.00     0.032 A 
BRANCH  12  17
HETATM   17  O   UNL     1     -43.446  56.289 -56.032  1.00  0.00    -0.309 OA
BRANCH  17  18
HETATM   18  C   UNL     1     -42.535  55.419 -55.469  1.00  0.00     0.076 A 
HETATM   19  C   UNL     1     -41.277  55.945 -55.173  1.00  0.00     0.037 A 
HETATM   20  C   UNL     1     -40.299  55.135 -54.593  1.00  0.00     0.003 A 
HETATM   21  C   UNL     1     -40.584  53.803 -54.296  1.00  0.00     0.000 A 
HETATM   22  C   UNL     1     -41.849  53.281 -54.568  1.00  0.00     0.003 A 
HETATM   23  C   UNL     1     -42.830  54.091 -55.143  1.00  0.00     0.037 A 
ENDBRANCH  17  18
ENDBRANCH  12  17
ENDBRANCH   8  11
ENDBRANCH   6   7
ENDBRANCH   4   6
BRANCH   1  24
HETATM   24  N   UNL     1     -45.355  58.644 -52.306  1.00  0.00    -0.287 N 
HETATM   25  C   UNL     1     -44.743  57.627 -51.636  1.00  0.00     0.326 C 
HETATM   26  N   UNL     1     -43.635  57.078 -52.216  1.00  0.00    -0.306 N 
HETATM   27  O   UNL     1     -45.275  57.225 -50.601  1.00  0.00    -0.247 OA
HETATM   28  H   UNL     1     -43.470  57.314 -53.190  1.00  0.00     0.171 HD
HETATM   29  H   UNL     1     -46.241  58.938 -51.925  1.00  0.00     0.172 HD
BRANCH  26  30
HETATM   30  C   UNL     1     -42.861  56.014 -51.710  1.00  0.00     0.069 A 
HETATM   31  C   UNL     1     -41.521  56.269 -51.372  1.00  0.00     0.095 A 
HETATM   32  C   UNL     1     -40.722  55.258 -50.829  1.00  0.00     0.039 A 
HETATM   33  C   UNL     1     -41.249  53.980 -50.644  1.00  0.00     0.003 A 
HETATM   34  C   UNL     1     -42.572  53.715 -50.992  1.00  0.00     0.002 A 
HETATM   35  C   UNL     1     -43.376  54.728 -51.524  1.00  0.00     0.032 A 
BRANCH  31  36
HETATM   36  O   UNL     1     -41.034  57.536 -51.594  1.00  0.00    -0.354 OA
HETATM   37  C   UNL     1     -40.936  58.294 -50.387  1.00  0.00     0.210 C 
ENDBRANCH  31  36
ENDBRANCH  26  30
ENDBRANCH   1  24
TORSDOF 8
ENDMDL
MODEL 2
REMARK VINA RESULT:      -7.5      1.890      5.934
REMARK  8 active torsions:
REMARK  status: ('A' for Active; 'I' for Inactive)
REMARK    1  A    between atoms: O_2  and  C_3 
REMARK    2  A    between atoms: C_4  and  N_5 
REMARK       I    between atoms: N_5  and  C_6 
REMARK       I    between atoms: C_6  and  N_7 
REMARK    3  A    between atoms: N_7  and  C_8 
REMARK    4  A    between atoms: C_11  and  C_12 
REMARK    5  A    between atoms: C_12  and  C_13 
REMARK       I    between atoms: C_13  and  N_14 
REMARK    6  A    between atoms: N_14  and  C_15 
REMARK    7  A    between atoms: C_16  and  O_17 
REMARK    8  A    between atoms: O_17  and  C_18 
ROOT
HETATM    1  C   UNL     1     -44.247  59.814 -54.671  1.00  0.00     0.174 C 
HETATM    2  S   UNL     1     -44.385  61.289 -53.831  1.00  0.00    -0.062 SA
HETATM    3  C   UNL     1     -42.765  61.111 -53.304  1.00  0.00     0.081 C 
HETATM    4  C   UNL     1     -42.239  59.922 -53.782  1.00  0.00     0.052 C 
HETATM    5  N   UNL     1     -43.077  59.226 -54.649  1.00  0.00    -0.228 NA
ENDROOT
BRANCH   4   6
HETATM    6  C   UNL     1     -40.920  59.329 -53.406  1.00  0.00     0.163 C 
BRANCH   6   7
HETATM    7  C   UNL     1     -41.135  58.210 -52.391  1.00  0.00     0.227 C 
HETATM    8  N   UNL     1     -42.019  57.235 -52.815  1.00  0.00    -0.324 N 
HETATM    9  H   UNL     1     -42.265  57.199 -53.799  1.00  0.00     0.169 HD
HETATM   10  O   UNL     1     -40.554  58.219 -51.307  1.00  0.00    -0.273 OA
BRANCH   8  11
HETATM   11  C   UNL     1     -42.639  56.241 -52.022  1.00  0.00     0.069 A 
HETATM   12  C   UNL     1     -42.163  54.923 -52.126  1.00  0.00     0.102 A 
HETATM   13  C   UNL     1     -42.806  53.872 -51.458  1.00  0.00     0.039 A 
HETATM   14  C   UNL     1     -43.900  54.139 -50.639  1.00  0.00     0.003 A 
HETATM   15  C   UNL     1     -44.357  55.449 -50.500  1.00  0.00     0.002 A 
HETATM   16  C   UNL     1     -43.733  56.494 -51.190  1.00  0.00     0.032 A 
BRANCH  12  17
HETATM   17  O   UNL     1     -41.074  54.685 -52.942  1.00  0.00    -0.309 OA
BRANCH  17  18
HETATM   18  C   UNL     1     -40.591  53.394 -52.992  1.00  0.00     0.076 A 
HETATM   19  C   UNL     1     -40.815  52.694 -54.178  1.00  0.00     0.037 A 
HETATM   20  C   UNL     1     -40.349  51.386 -54.316  1.00  0.00     0.003 A 
HETATM   21  C   UNL     1     -39.648  50.781 -53.273  1.00  0.00     0.000 A 
HETATM   22  C   UNL     1     -39.401  51.488 -52.096  1.00  0.00     0.003 A 
HETATM   23  C   UNL     1     -39.861  52.799 -51.957  1.00  0.00     0.037 A 
ENDBRANCH  17  18
ENDBRANCH  12  17
ENDBRANCH   8  11
ENDBRANCH   6   7
ENDBRANCH   4   6
BRANCH   1  24
HETATM   24  N   UNL     1     -45.408  59.390 -55.243  1.00  0.00    -0.287 N 
HETATM   25  C   UNL     1     -45.531  58.492 -56.261  1.00  0.00     0.326 C 
HETATM   26  N   UNL     1     -44.429  58.279 -57.039  1.00  0.00    -0.306 N 
HETATM   27  O   UNL     1     -46.642  57.998 -56.454  1.00  0.00    -0.247 OA
HETATM   28  H   UNL     1     -43.671  58.949 -56.943  1.00  0.00     0.171 HD
HETATM   29  H   UNL     1     -46.268  59.627 -54.772  1.00  0.00     0.172 HD
BRANCH  26  30
HETATM   30  C   UNL     1     -44.337  57.411 -58.147  1.00  0.00     0.069 A 
HETATM   31  C   UNL     1     -43.390  56.374 -58.101  1.00  0.00     0.095 A 
HETATM   32  C   UNL     1     -43.286  55.463 -59.157  1.00  0.00     0.039 A 
HETATM   33  C   UNL     1     -44.109  55.598 -60.275  1.00  0.00     0.003 A 
HETATM   34  C   UNL     1     -45.039  56.634 -60.334  1.00  0.00     0.002 A 
HETATM   35  C   UNL     1     -45.153  57.539 -59.275  1.00  0.00     0.032 A 
BRANCH  31  36
HETATM   36  O   UNL     1     -42.581  56.292 -56.992  1.00  0.00    -0.354 OA
HETATM   37  C   UNL     1     -42.848  55.122 -56.217  1.00  0.00     0.210 C 
ENDBRANCH  31  36
ENDBRANCH  26  30
ENDBRANCH   1  24
TORSDOF 8
ENDMDL
MODEL 3
REMARK VINA RESULT:      -7.4      2.423      5.490
REMARK  8 active torsions:
REMARK  status: ('A' for Active; 'I' for Inactive)
REMARK    1  A    between atoms: O_2  and  C_3 
REMARK    2  A    between atoms: C_4  and  N_5 
REMARK       I    between atoms: N_5  and  C_6 
REMARK       I    between atoms: C_6  and  N_7 
REMARK    3  A    between atoms: N_7  and  C_8 
REMARK    4  A    between atoms: C_11  and  C_12 
REMARK    5  A    between atoms: C_12  and  C_13 
REMARK       I    between atoms: C_13  and  N_14 
REMARK    6  A    between atoms: N_14  and  C_15 
REMARK    7  A    between atoms: C_16  and  O_17 
REMARK    8  A    between atoms: O_17  and  C_18 
ROOT
HETATM    1  C   UNL     1     -43.848  58.435 -56.968  1.00  0.00     0.174 C 
HETATM    2  S   UNL     1     -43.459  58.416 -58.626  1.00  0.00    -0.062 SA
HETATM    3  C   UNL     1     -42.906  56.804 -58.451  1.00  0.00     0.081 C 
HETATM    4  C   UNL     1     -43.029  56.402 -57.132  1.00  0.00     0.052 C 
HETATM    5  N   UNL     1     -43.663  57.323 -56.302  1.00  0.00    -0.228 NA
ENDROOT
BRANCH   4   6
HETATM    6  C   UNL     1     -42.504  55.131 -56.547  1.00  0.00     0.163 C 
BRANCH   6   7
HETATM    7  C   UNL     1     -43.001  54.988 -55.111  1.00  0.00     0.227 C 
HETATM    8  N   UNL     1     -42.227  55.661 -54.183  1.00  0.00    -0.324 N 
HETATM    9  H   UNL     1     -41.568  56.356 -54.517  1.00  0.00     0.169 HD
HETATM   10  O   UNL     1     -44.003  54.323 -54.852  1.00  0.00    -0.273 OA
BRANCH   8  11
HETATM   11  C   UNL     1     -42.247  55.502 -52.778  1.00  0.00     0.069 A 
HETATM   12  C   UNL     1     -41.254  54.700 -52.190  1.00  0.00     0.102 A 
HETATM   13  C   UNL     1     -41.283  54.407 -50.821  1.00  0.00     0.039 A 
HETATM   14  C   UNL     1     -42.280  54.956 -50.017  1.00  0.00     0.003 A 
HETATM   15  C   UNL     1     -43.248  55.783 -50.583  1.00  0.00     0.002 A 
HETATM   16  C   UNL     1     -43.235  56.052 -51.957  1.00  0.00     0.032 A 
BRANCH  12  17
HETATM   17  O   UNL     1     -40.275  54.170 -53.008  1.00  0.00    -0.309 OA
BRANCH  17  18
HETATM   18  C   UNL     1     -40.147  52.798 -53.036  1.00  0.00     0.076 A 
HETATM   19  C   UNL     1     -40.536  52.162 -54.215  1.00  0.00     0.037 A 
HETATM   20  C   UNL     1     -40.429  50.775 -54.330  1.00  0.00     0.003 A 
HETATM   21  C   UNL     1     -39.920  50.024 -53.270  1.00  0.00     0.000 A 
HETATM   22  C   UNL     1     -39.508  50.660 -52.099  1.00  0.00     0.003 A 
HETATM   23  C   UNL     1     -39.608  52.048 -51.984  1.00  0.00     0.037 A 
ENDBRANCH  17  18
ENDBRANCH  12  17
ENDBRANCH   8  11
ENDBRANCH   6   7
ENDBRANCH   4   6
BRANCH   1  24
HETATM   24  N   UNL     1     -44.275  59.646 -56.512  1.00  0.00    -0.287 N 
HETATM   25  C   UNL     1     -44.055  60.171 -55.274  1.00  0.00     0.326 C 
HETATM   26  N   UNL     1     -43.724  59.296 -54.277  1.00  0.00    -0.306 N 
HETATM   27  O   UNL     1     -44.243  61.378 -55.125  1.00  0.00    -0.247 OA
HETATM   28  H   UNL     1     -43.874  58.311 -54.472  1.00  0.00     0.171 HD
HETATM   29  H   UNL     1     -44.646  60.291 -57.192  1.00  0.00     0.172 HD
BRANCH  26  30
HETATM   30  C   UNL     1     -43.470  59.617 -52.928  1.00  0.00     0.069 A 
HETATM   31  C   UNL     1     -42.139  59.846 -52.540  1.00  0.00     0.095 A 
HETATM   32  C   UNL     1     -41.836  60.205 -51.223  1.00  0.00     0.039 A 
HETATM   33  C   UNL     1     -42.859  60.314 -50.280  1.00  0.00     0.003 A 
HETATM   34  C   UNL     1     -44.179  60.073 -50.654  1.00  0.00     0.002 A 
HETATM   35  C   UNL     1     -44.485  59.724 -51.973  1.00  0.00     0.032 A 
BRANCH  31  36
HETATM   36  O   UNL     1     -41.158  59.703 -53.494  1.00  0.00    -0.354 OA
HETATM   37  C   UNL     1     -40.278  58.616 -53.201  1.00  0.00     0.210 C 
ENDBRANCH  31  36
ENDBRANCH  26  30
ENDBRANCH   1  24
TORSDOF 8
ENDMDL
MODEL 4
REMARK VINA RESULT:      -7.3      2.226      4.024
REMARK  8 active torsions:
REMARK  status: ('A' for Active; 'I' for Inactive)
REMARK    1  A    between atoms: O_2  and  C_3 
REMARK    2  A    between atoms: C_4  and  N_5 
REMARK       I    between atoms: N_5  and  C_6 
REMARK       I    between atoms: C_6  and  N_7 
REMARK    3  A    between atoms: N_7  and  C_8 
REMARK    4  A    between atoms: C_11  and  C_12 
REMARK    5  A    between atoms: C_12  and  C_13 
REMARK       I    between atoms: C_13  and  N_14 
REMARK    6  A    between atoms: N_14  and  C_15 
REMARK    7  A    between atoms: C_16  and  O_17 
REMARK    8  A    between atoms: O_17  and  C_18 
ROOT
HETATM    1  C   UNL     1     -43.690  57.032 -52.480  1.00  0.00     0.174 C 
HETATM    2  S   UNL     1     -44.233  58.261 -51.432  1.00  0.00    -0.062 SA
HETATM    3  C   UNL     1     -43.281  59.388 -52.304  1.00  0.00     0.081 C 
HETATM    4  C   UNL     1     -42.591  58.742 -53.316  1.00  0.00     0.052 C 
HETATM    5  N   UNL     1     -42.909  57.395 -53.466  1.00  0.00    -0.228 NA
ENDROOT
BRANCH   4   6
HETATM    6  C   UNL     1     -41.535  59.345 -54.185  1.00  0.00     0.163 C 
BRANCH   6   7
HETATM    7  C   UNL     1     -42.165  59.840 -55.484  1.00  0.00     0.227 C 
HETATM    8  N   UNL     1     -41.699  59.191 -56.612  1.00  0.00    -0.324 N 
HETATM    9  H   UNL     1     -41.186  58.324 -56.494  1.00  0.00     0.169 HD
HETATM   10  O   UNL     1     -43.005  60.739 -55.477  1.00  0.00    -0.273 OA
BRANCH   8  11
HETATM   11  C   UNL     1     -41.862  59.595 -57.958  1.00  0.00     0.069 A 
HETATM   12  C   UNL     1     -42.338  58.646 -58.879  1.00  0.00     0.102 A 
HETATM   13  C   UNL     1     -42.412  58.944 -60.245  1.00  0.00     0.039 A 
HETATM   14  C   UNL     1     -42.059  60.214 -60.696  1.00  0.00     0.003 A 
HETATM   15  C   UNL     1     -41.621  61.175 -59.786  1.00  0.00     0.002 A 
HETATM   16  C   UNL     1     -41.519  60.866 -58.425  1.00  0.00     0.032 A 
BRANCH  12  17
HETATM   17  O   UNL     1     -42.685  57.395 -58.405  1.00  0.00    -0.309 OA
BRANCH  17  18
HETATM   18  C   UNL     1     -43.721  56.743 -59.040  1.00  0.00     0.076 A 
HETATM   19  C   UNL     1     -44.984  57.326 -58.923  1.00  0.00     0.037 A 
HETATM   20  C   UNL     1     -46.086  56.735 -59.543  1.00  0.00     0.003 A 
HETATM   21  C   UNL     1     -45.924  55.570 -60.292  1.00  0.00     0.000 A 
HETATM   22  C   UNL     1     -44.658  55.000 -60.431  1.00  0.00     0.003 A 
HETATM   23  C   UNL     1     -43.553  55.591 -59.816  1.00  0.00     0.037 A 
ENDBRANCH  17  18
ENDBRANCH  12  17
ENDBRANCH   8  11
ENDBRANCH   6   7
ENDBRANCH   4   6
BRANCH   1  24
HETATM   24  N   UNL     1     -44.108  55.782 -52.133  1.00  0.00    -0.287 N 
HETATM   25  C   UNL     1     -43.353  54.648 -52.121  1.00  0.00     0.326 C 
HETATM   26  N   UNL     1     -42.208  54.654 -52.868  1.00  0.00    -0.306 N 
HETATM   27  O   UNL     1     -43.792  53.678 -51.504  1.00  0.00    -0.247 OA
HETATM   28  H   UNL     1     -42.110  55.411 -53.539  1.00  0.00     0.171 HD
HETATM   29  H   UNL     1     -45.008  55.704 -51.686  1.00  0.00     0.172 HD
BRANCH  26  30
HETATM   30  C   UNL     1     -41.292  53.592 -53.011  1.00  0.00     0.069 A 
HETATM   31  C   UNL     1     -40.402  53.336 -51.955  1.00  0.00     0.095 A 
HETATM   32  C   UNL     1     -39.500  52.270 -52.030  1.00  0.00     0.039 A 
HETATM   33  C   UNL     1     -39.466  51.469 -53.171  1.00  0.00     0.003 A 
HETATM   34  C   UNL     1     -40.335  51.727 -54.230  1.00  0.00     0.002 A 
HETATM   35  C   UNL     1     -41.245  52.786 -54.151  1.00  0.00     0.032 A 
BRANCH  31  36
HETATM   36  O   UNL     1     -40.451  54.166 -50.859  1.00  0.00    -0.354 OA
HETATM   37  C   UNL     1     -40.460  53.434 -49.631  1.00  0.00     0.210 C 
ENDBRANCH  31  36
ENDBRANCH  26  30
ENDBRANCH   1  24
TORSDOF 8
ENDMDL
MODEL 5
REMARK VINA RESULT:      -7.3      3.446      6.661
REMARK  8 active torsions:
REMARK  status: ('A' for Active; 'I' for Inactive)
REMARK    1  A    between atoms: O_2  and  C_3 
REMARK    2  A    between atoms: C_4  and  N_5 
REMARK       I    between atoms: N_5  and  C_6 
REMARK       I    between atoms: C_6  and  N_7 
REMARK    3  A    between atoms: N_7  and  C_8 
REMARK    4  A    between atoms: C_11  and  C_12 
REMARK    5  A    between atoms: C_12  and  C_13 
REMARK       I    between atoms: C_13  and  N_14 
REMARK    6  A    between atoms: N_14  and  C_15 
REMARK    7  A    between atoms: C_16  and  O_17 
REMARK    8  A    between atoms: O_17  and  C_18 
ROOT
HETATM    1  C   UNL     1     -43.678  57.553 -51.630  1.00  0.00     0.174 C 
HETATM    2  S   UNL     1     -42.668  58.069 -52.901  1.00  0.00    -0.062 SA
HETATM    3  C   UNL     1     -41.402  57.119 -52.246  1.00  0.00     0.081 C 
HETATM    4  C   UNL     1     -41.829  56.497 -51.084  1.00  0.00     0.052 C 
HETATM    5  N   UNL     1     -43.177  56.682 -50.790  1.00  0.00    -0.228 NA
ENDROOT
BRANCH   4   6
HETATM    6  C   UNL     1     -40.973  55.723 -50.135  1.00  0.00     0.163 C 
BRANCH   6   7
HETATM    7  C   UNL     1     -41.074  54.234 -50.456  1.00  0.00     0.227 C 
HETATM    8  N   UNL     1     -39.952  53.723 -51.082  1.00  0.00    -0.324 N 
HETATM    9  H   UNL     1     -39.098  54.271 -51.069  1.00  0.00     0.169 HD
HETATM   10  O   UNL     1     -42.083  53.592 -50.167  1.00  0.00    -0.273 OA
BRANCH   8  11
HETATM   11  C   UNL     1     -39.840  52.482 -51.752  1.00  0.00     0.069 A 
HETATM   12  C   UNL     1     -39.864  52.487 -53.157  1.00  0.00     0.102 A 
HETATM   13  C   UNL     1     -39.874  51.287 -53.881  1.00  0.00     0.039 A 
HETATM   14  C   UNL     1     -39.807  50.071 -53.204  1.00  0.00     0.003 A 
HETATM   15  C   UNL     1     -39.744  50.056 -51.812  1.00  0.00     0.002 A 
HETATM   16  C   UNL     1     -39.764  51.255 -51.089  1.00  0.00     0.032 A 
BRANCH  12  17
HETATM   17  O   UNL     1     -39.926  53.706 -53.804  1.00  0.00    -0.309 OA
BRANCH  17  18
HETATM   18  C   UNL     1     -41.148  54.089 -54.317  1.00  0.00     0.076 A 
HETATM   19  C   UNL     1     -41.132  54.680 -55.581  1.00  0.00     0.037 A 
HETATM   20  C   UNL     1     -42.326  55.087 -56.177  1.00  0.00     0.003 A 
HETATM   21  C   UNL     1     -43.538  54.892 -55.516  1.00  0.00     0.000 A 
HETATM   22  C   UNL     1     -43.559  54.279 -54.263  1.00  0.00     0.003 A 
HETATM   23  C   UNL     1     -42.366  53.865 -53.667  1.00  0.00     0.037 A 
ENDBRANCH  17  18
ENDBRANCH  12  17
ENDBRANCH   8  11
ENDBRANCH   6   7
ENDBRANCH   4   6
BRANCH   1  24
HETATM   24  N   UNL     1     -44.901  58.154 -51.614  1.00  0.00    -0.287 N 
HETATM   25  C   UNL     1     -45.198  59.373 -51.083  1.00  0.00     0.326 C 
HETATM   26  N   UNL     1     -44.327  59.879 -50.160  1.00  0.00    -0.306 N 
HETATM   27  O   UNL     1     -46.264  59.893 -51.413  1.00  0.00    -0.247 OA
HETATM   28  H   UNL     1     -43.644  59.231 -49.779  1.00  0.00     0.171 HD
HETATM   29  H   UNL     1     -45.623  57.747 -52.187  1.00  0.00     0.172 HD
BRANCH  26  30
HETATM   30  C   UNL     1     -44.446  61.107 -49.477  1.00  0.00     0.069 A 
HETATM   31  C   UNL     1     -45.223  61.144 -48.307  1.00  0.00     0.095 A 
HETATM   32  C   UNL     1     -45.341  62.327 -47.571  1.00  0.00     0.039 A 
HETATM   33  C   UNL     1     -44.704  63.486 -48.013  1.00  0.00     0.003 A 
HETATM   34  C   UNL     1     -43.946  63.462 -49.182  1.00  0.00     0.002 A 
HETATM   35  C   UNL     1     -43.818  62.277 -49.913  1.00  0.00     0.032 A 
BRANCH  31  36
HETATM   36  O   UNL     1     -45.854  59.985 -47.919  1.00  0.00    -0.354 OA
HETATM   37  C   UNL     1     -46.193  59.996 -46.531  1.00  0.00     0.210 C 
ENDBRANCH  31  36
ENDBRANCH  26  30
ENDBRANCH   1  24
TORSDOF 8
ENDMDL
MODEL 6
REMARK VINA RESULT:      -7.1      2.187      5.747
REMARK  8 active torsions:
REMARK  status: ('A' for Active; 'I' for Inactive)
REMARK    1  A    between atoms: O_2  and  C_3 
REMARK    2  A    between atoms: C_4  and  N_5 
REMARK       I    between atoms: N_5  and  C_6 
REMARK       I    between atoms: C_6  and  N_7 
REMARK    3  A    between atoms: N_7  and  C_8 
REMARK    4  A    between atoms: C_11  and  C_12 
REMARK    5  A    between atoms: C_12  and  C_13 
REMARK       I    between atoms: C_13  and  N_14 
REMARK    6  A    between atoms: N_14  and  C_15 
REMARK    7  A    between atoms: C_16  and  O_17 
REMARK    8  A    between atoms: O_17  and  C_18 
ROOT
HETATM    1  C   UNL     1     -41.848  60.022 -53.087  1.00  0.00     0.174 C 
HETATM    2  S   UNL     1     -43.195  60.695 -52.289  1.00  0.00    -0.062 SA
HETATM    3  C   UNL     1     -42.935  59.608 -50.990  1.00  0.00     0.081 C 
HETATM    4  C   UNL     1     -41.856  58.787 -51.269  1.00  0.00     0.052 C 
HETATM    5  N   UNL     1     -41.178  59.099 -52.444  1.00  0.00    -0.228 NA
ENDROOT
BRANCH   4   6
HETATM    6  C   UNL     1     -41.419  57.605 -50.465  1.00  0.00     0.163 C 
BRANCH   6   7
HETATM    7  C   UNL     1     -41.963  56.328 -51.100  1.00  0.00     0.227 C 
HETATM    8  N   UNL     1     -41.696  56.221 -52.452  1.00  0.00    -0.324 N 
HETATM    9  H   UNL     1     -40.996  56.833 -52.857  1.00  0.00     0.169 HD
HETATM   10  O   UNL     1     -42.579  55.501 -50.428  1.00  0.00    -0.273 OA
BRANCH   8  11
HETATM   11  C   UNL     1     -42.291  55.325 -53.371  1.00  0.00     0.069 A 
HETATM   12  C   UNL     1     -41.545  54.206 -53.779  1.00  0.00     0.102 A 
HETATM   13  C   UNL     1     -42.027  53.344 -54.773  1.00  0.00     0.039 A 
HETATM   14  C   UNL     1     -43.284  53.565 -55.331  1.00  0.00     0.003 A 
HETATM   15  C   UNL     1     -44.048  54.651 -54.906  1.00  0.00     0.002 A 
HETATM   16  C   UNL     1     -43.553  55.529 -53.934  1.00  0.00     0.032 A 
BRANCH  12  17
HETATM   17  O   UNL     1     -40.303  54.006 -53.208  1.00  0.00    -0.309 OA
BRANCH  17  18
HETATM   18  C   UNL     1     -40.106  52.830 -52.515  1.00  0.00     0.076 A 
HETATM   19  C   UNL     1     -40.394  52.859 -51.150  1.00  0.00     0.037 A 
HETATM   20  C   UNL     1     -40.232  51.708 -50.377  1.00  0.00     0.003 A 
HETATM   21  C   UNL     1     -39.794  50.525 -50.971  1.00  0.00     0.000 A 
HETATM   22  C   UNL     1     -39.529  50.487 -52.340  1.00  0.00     0.003 A 
HETATM   23  C   UNL     1     -39.696  51.635 -53.117  1.00  0.00     0.037 A 
ENDBRANCH  17  18
ENDBRANCH  12  17
ENDBRANCH   8  11
ENDBRANCH   6   7
ENDBRANCH   4   6
BRANCH   1  24
HETATM   24  N   UNL     1     -41.650  60.505 -54.345  1.00  0.00    -0.287 N 
HETATM   25  C   UNL     1     -42.178  60.008 -55.498  1.00  0.00     0.326 C 
HETATM   26  N   UNL     1     -42.622  58.716 -55.472  1.00  0.00    -0.306 N 
HETATM   27  O   UNL     1     -42.146  60.727 -56.496  1.00  0.00    -0.247 OA
HETATM   28  H   UNL     1     -42.338  58.156 -54.674  1.00  0.00     0.171 HD
HETATM   29  H   UNL     1     -41.210  61.409 -54.428  1.00  0.00     0.172 HD
BRANCH  26  30
HETATM   30  C   UNL     1     -43.187  58.000 -56.548  1.00  0.00     0.069 A 
HETATM   31  C   UNL     1     -44.513  58.286 -56.912  1.00  0.00     0.095 A 
HETATM   32  C   UNL     1     -45.107  57.632 -57.996  1.00  0.00     0.039 A 
HETATM   33  C   UNL     1     -44.388  56.670 -58.706  1.00  0.00     0.003 A 
HETATM   34  C   UNL     1     -43.078  56.370 -58.340  1.00  0.00     0.002 A 
HETATM   35  C   UNL     1     -42.479  57.030 -57.263  1.00  0.00     0.032 A 
BRANCH  31  36
HETATM   36  O   UNL     1     -45.195  59.222 -56.170  1.00  0.00    -0.354 OA
HETATM   37  C   UNL     1     -45.874  60.171 -56.995  1.00  0.00     0.210 C 
ENDBRANCH  31  36
ENDBRANCH  26  30
ENDBRANCH   1  24
TORSDOF 8
ENDMDL
MODEL 7
REMARK VINA RESULT:      -7.0      2.514      4.758
REMARK  8 active torsions:
REMARK  status: ('A' for Active; 'I' for Inactive)
REMARK    1  A    between atoms: O_2  and  C_3 
REMARK    2  A    between atoms: C_4  and  N_5 
REMARK       I    between atoms: N_5  and  C_6 
REMARK       I    between atoms: C_6  and  N_7 
REMARK    3  A    between atoms: N_7  and  C_8 
REMARK    4  A    between atoms: C_11  and  C_12 
REMARK    5  A    between atoms: C_12  and  C_13 
REMARK       I    between atoms: C_13  and  N_14 
REMARK    6  A    between atoms: N_14  and  C_15 
REMARK    7  A    between atoms: C_16  and  O_17 
REMARK    8  A    between atoms: O_17  and  C_18 
ROOT
HETATM    1  C   UNL     1     -41.969  56.897 -50.897  1.00  0.00     0.174 C 
HETATM    2  S   UNL     1     -41.313  58.430 -51.247  1.00  0.00    -0.062 SA
HETATM    3  C   UNL     1     -42.609  58.708 -52.332  1.00  0.00     0.081 C 
HETATM    4  C   UNL     1     -43.437  57.599 -52.375  1.00  0.00     0.052 C 
HETATM    5  N   UNL     1     -43.108  56.594 -51.470  1.00  0.00    -0.228 NA
ENDROOT
BRANCH   4   6
HETATM    6  C   UNL     1     -44.575  57.387 -53.321  1.00  0.00     0.163 C 
BRANCH   6   7
HETATM    7  C   UNL     1     -44.532  58.448 -54.417  1.00  0.00     0.227 C 
HETATM    8  N   UNL     1     -43.807  58.069 -55.531  1.00  0.00    -0.324 N 
HETATM    9  H   UNL     1     -43.572  57.088 -55.645  1.00  0.00     0.169 HD
HETATM   10  O   UNL     1     -45.103  59.528 -54.274  1.00  0.00    -0.273 OA
BRANCH   8  11
HETATM   11  C   UNL     1     -43.345  58.905 -56.575  1.00  0.00     0.069 A 
HETATM   12  C   UNL     1     -43.997  58.832 -57.817  1.00  0.00     0.102 A 
HETATM   13  C   UNL     1     -43.519  59.544 -58.924  1.00  0.00     0.039 A 
HETATM   14  C   UNL     1     -42.412  60.379 -58.783  1.00  0.00     0.003 A 
HETATM   15  C   UNL     1     -41.780  60.488 -57.546  1.00  0.00     0.002 A 
HETATM   16  C   UNL     1     -42.241  59.752 -56.448  1.00  0.00     0.032 A 
BRANCH  12  17
HETATM   17  O   UNL     1     -45.095  58.000 -57.930  1.00  0.00    -0.309 OA
BRANCH  17  18
HETATM   18  C   UNL     1     -45.018  56.970 -58.844  1.00  0.00     0.076 A 
HETATM   19  C   UNL     1     -46.062  56.881 -59.766  1.00  0.00     0.037 A 
HETATM   20  C   UNL     1     -46.056  55.874 -60.732  1.00  0.00     0.003 A 
HETATM   21  C   UNL     1     -45.001  54.964 -60.786  1.00  0.00     0.000 A 
HETATM   22  C   UNL     1     -43.944  55.066 -59.880  1.00  0.00     0.003 A 
HETATM   23  C   UNL     1     -43.945  56.076 -58.916  1.00  0.00     0.037 A 
ENDBRANCH  17  18
ENDBRANCH  12  17
ENDBRANCH   8  11
ENDBRANCH   6   7
ENDBRANCH   4   6
BRANCH   1  24
HETATM   24  N   UNL     1     -41.192  56.134 -50.079  1.00  0.00    -0.287 N 
HETATM   25  C   UNL     1     -40.564  54.970 -50.409  1.00  0.00     0.326 C 
HETATM   26  N   UNL     1     -41.037  54.296 -51.499  1.00  0.00    -0.306 N 
HETATM   27  O   UNL     1     -39.672  54.572 -49.660  1.00  0.00    -0.247 OA
HETATM   28  H   UNL     1     -41.942  54.589 -51.855  1.00  0.00     0.171 HD
HETATM   29  H   UNL     1     -40.913  56.539 -49.199  1.00  0.00     0.172 HD
BRANCH  26  30
HETATM   30  C   UNL     1     -40.551  53.074 -52.007  1.00  0.00     0.069 A 
HETATM   31  C   UNL     1     -40.567  52.879 -53.398  1.00  0.00     0.095 A 
HETATM   32  C   UNL     1     -40.060  51.701 -53.955  1.00  0.00     0.039 A 
HETATM   33  C   UNL     1     -39.558  50.700 -53.124  1.00  0.00     0.003 A 
HETATM   34  C   UNL     1     -39.554  50.879 -51.742  1.00  0.00     0.002 A 
HETATM   35  C   UNL     1     -40.050  52.061 -51.184  1.00  0.00     0.032 A 
BRANCH  31  36
HETATM   36  O   UNL     1     -41.094  53.880 -54.180  1.00  0.00    -0.354 OA
HETATM   37  C   UNL     1     -40.086  54.570 -54.922  1.00  0.00     0.210 C 
ENDBRANCH  31  36
ENDBRANCH  26  30
ENDBRANCH   1  24
TORSDOF 8
ENDMDL
MODEL 8
REMARK VINA RESULT:      -7.0      3.111      7.870
REMARK  8 active torsions:
REMARK  status: ('A' for Active; 'I' for Inactive)
REMARK    1  A    between atoms: O_2  and  C_3 
REMARK    2  A    between atoms: C_4  and  N_5 
REMARK       I    between atoms: N_5  and  C_6 
REMARK       I    between atoms: C_6  and  N_7 
REMARK    3  A    between atoms: N_7  and  C_8 
REMARK    4  A    between atoms: C_11  and  C_12 
REMARK    5  A    between atoms: C_12  and  C_13 
REMARK       I    between atoms: C_13  and  N_14 
REMARK    6  A    between atoms: N_14  and  C_15 
REMARK    7  A    between atoms: C_16  and  O_17 
REMARK    8  A    between atoms: O_17  and  C_18 
ROOT
HETATM    1  C   UNL     1     -42.719  56.710 -56.920  1.00  0.00     0.174 C 
HETATM    2  S   UNL     1     -42.165  58.282 -56.568  1.00  0.00    -0.062 SA
HETATM    3  C   UNL     1     -42.765  58.108 -54.973  1.00  0.00     0.081 C 
HETATM    4  C   UNL     1     -43.374  56.872 -54.828  1.00  0.00     0.052 C 
HETATM    5  N   UNL     1     -43.258  56.036 -55.934  1.00  0.00    -0.228 NA
ENDROOT
BRANCH   4   6
HETATM    6  C   UNL     1     -44.161  56.413 -53.644  1.00  0.00     0.163 C 
BRANCH   6   7
HETATM    7  C   UNL     1     -43.280  56.457 -52.398  1.00  0.00     0.227 C 
HETATM    8  N   UNL     1     -42.327  55.457 -52.354  1.00  0.00    -0.324 N 
HETATM    9  H   UNL     1     -42.126  54.941 -53.205  1.00  0.00     0.169 HD
HETATM   10  O   UNL     1     -43.443  57.322 -51.539  1.00  0.00    -0.273 OA
BRANCH   8  11
HETATM   11  C   UNL     1     -41.562  55.054 -51.234  1.00  0.00     0.069 A 
HETATM   12  C   UNL     1     -40.484  54.179 -51.451  1.00  0.00     0.102 A 
HETATM   13  C   UNL     1     -39.760  53.650 -50.375  1.00  0.00     0.039 A 
HETATM   14  C   UNL     1     -40.074  54.034 -49.074  1.00  0.00     0.003 A 
HETATM   15  C   UNL     1     -41.117  54.932 -48.850  1.00  0.00     0.002 A 
HETATM   16  C   UNL     1     -41.860  55.437 -49.924  1.00  0.00     0.032 A 
BRANCH  12  17
HETATM   17  O   UNL     1     -40.190  53.816 -52.751  1.00  0.00    -0.309 OA
BRANCH  17  18
HETATM   18  C   UNL     1     -40.087  52.468 -53.024  1.00  0.00     0.076 A 
HETATM   19  C   UNL     1     -39.580  51.665 -52.002  1.00  0.00     0.037 A 
HETATM   20  C   UNL     1     -39.452  50.288 -52.192  1.00  0.00     0.003 A 
HETATM   21  C   UNL     1     -39.843  49.712 -53.400  1.00  0.00     0.000 A 
HETATM   22  C   UNL     1     -40.373  50.509 -54.415  1.00  0.00     0.003 A 
HETATM   23  C   UNL     1     -40.507  51.886 -54.225  1.00  0.00     0.037 A 
ENDBRANCH  17  18
ENDBRANCH  12  17
ENDBRANCH   8  11
ENDBRANCH   6   7
ENDBRANCH   4   6
BRANCH   1  24
HETATM   24  N   UNL     1     -42.572  56.349 -58.225  1.00  0.00    -0.287 N 
HETATM   25  C   UNL     1     -43.451  56.589 -59.238  1.00  0.00     0.326 C 
HETATM   26  N   UNL     1     -44.743  56.861 -58.889  1.00  0.00    -0.306 N 
HETATM   27  O   UNL     1     -43.038  56.468 -60.392  1.00  0.00    -0.247 OA
HETATM   28  H   UNL     1     -45.005  56.658 -57.928  1.00  0.00     0.171 HD
HETATM   29  H   UNL     1     -41.663  56.020 -58.513  1.00  0.00     0.172 HD
BRANCH  26  30
HETATM   30  C   UNL     1     -45.814  57.123 -59.768  1.00  0.00     0.069 A 
HETATM   31  C   UNL     1     -46.137  58.463 -60.041  1.00  0.00     0.095 A 
HETATM   32  C   UNL     1     -47.164  58.777 -60.936  1.00  0.00     0.039 A 
HETATM   33  C   UNL     1     -47.892  57.754 -61.544  1.00  0.00     0.003 A 
HETATM   34  C   UNL     1     -47.588  56.423 -61.265  1.00  0.00     0.002 A 
HETATM   35  C   UNL     1     -46.554  56.107 -60.379  1.00  0.00     0.032 A 
BRANCH  31  36
HETATM   36  O   UNL     1     -45.411  59.441 -59.400  1.00  0.00    -0.354 OA
HETATM   37  C   UNL     1     -46.076  60.706 -59.424  1.00  0.00     0.210 C 
ENDBRANCH  31  36
ENDBRANCH  26  30
ENDBRANCH   1  24
TORSDOF 8
ENDMDL
MODEL 9
REMARK VINA RESULT:      -7.0      2.322      5.519
REMARK  8 active torsions:
REMARK  status: ('A' for Active; 'I' for Inactive)
REMARK    1  A    between atoms: O_2  and  C_3 
REMARK    2  A    between atoms: C_4  and  N_5 
REMARK       I    between atoms: N_5  and  C_6 
REMARK       I    between atoms: C_6  and  N_7 
REMARK    3  A    between atoms: N_7  and  C_8 
REMARK    4  A    between atoms: C_11  and  C_12 
REMARK    5  A    between atoms: C_12  and  C_13 
REMARK       I    between atoms: C_13  and  N_14 
REMARK    6  A    between atoms: N_14  and  C_15 
REMARK    7  A    between atoms: C_16  and  O_17 
REMARK    8  A    between atoms: O_17  and  C_18 
ROOT
HETATM    1  C   UNL     1     -44.252  58.616 -56.550  1.00  0.00     0.174 C 
HETATM    2  S   UNL     1     -42.750  59.356 -56.865  1.00  0.00    -0.062 SA
HETATM    3  C   UNL     1     -42.129  57.833 -57.345  1.00  0.00     0.081 C 
HETATM    4  C   UNL     1     -43.103  56.859 -57.203  1.00  0.00     0.052 C 
HETATM    5  N   UNL     1     -44.355  57.341 -56.831  1.00  0.00    -0.228 NA
ENDROOT
BRANCH   4   6
HETATM    6  C   UNL     1     -42.903  55.386 -57.358  1.00  0.00     0.163 C 
BRANCH   6   7
HETATM    7  C   UNL     1     -42.837  54.734 -55.980  1.00  0.00     0.227 C 
HETATM    8  N   UNL     1     -41.583  54.784 -55.400  1.00  0.00    -0.324 N 
HETATM    9  H   UNL     1     -40.894  55.419 -55.790  1.00  0.00     0.169 HD
HETATM   10  O   UNL     1     -43.834  54.221 -55.474  1.00  0.00    -0.273 OA
BRANCH   8  11
HETATM   11  C   UNL     1     -41.127  54.042 -54.285  1.00  0.00     0.069 A 
HETATM   12  C   UNL     1     -41.373  54.560 -53.002  1.00  0.00     0.102 A 
HETATM   13  C   UNL     1     -40.849  53.936 -51.862  1.00  0.00     0.039 A 
HETATM   14  C   UNL     1     -40.117  52.758 -51.993  1.00  0.00     0.003 A 
HETATM   15  C   UNL     1     -39.900  52.215 -53.258  1.00  0.00     0.002 A 
HETATM   16  C   UNL     1     -40.399  52.855 -54.399  1.00  0.00     0.032 A 
BRANCH  12  17
HETATM   17  O   UNL     1     -42.104  55.727 -52.899  1.00  0.00    -0.309 OA
BRANCH  17  18
HETATM   18  C   UNL     1     -41.453  56.842 -52.415  1.00  0.00     0.076 A 
HETATM   19  C   UNL     1     -40.868  57.679 -53.366  1.00  0.00     0.037 A 
HETATM   20  C   UNL     1     -40.198  58.835 -52.962  1.00  0.00     0.003 A 
HETATM   21  C   UNL     1     -40.123  59.161 -51.608  1.00  0.00     0.000 A 
HETATM   22  C   UNL     1     -40.729  58.339 -50.658  1.00  0.00     0.003 A 
HETATM   23  C   UNL     1     -41.404  57.185 -51.060  1.00  0.00     0.037 A 
ENDBRANCH  17  18
ENDBRANCH  12  17
ENDBRANCH   8  11
ENDBRANCH   6   7
ENDBRANCH   4   6
BRANCH   1  24
HETATM   24  N   UNL     1     -45.174  59.447 -55.990  1.00  0.00    -0.287 N 
HETATM   25  C   UNL     1     -45.057  60.109 -54.805  1.00  0.00     0.326 C 
HETATM   26  N   UNL     1     -44.140  59.629 -53.912  1.00  0.00    -0.306 N 
HETATM   27  O   UNL     1     -45.834  61.039 -54.592  1.00  0.00    -0.247 OA
HETATM   28  H   UNL     1     -43.769  58.702 -54.100  1.00  0.00     0.171 HD
HETATM   29  H   UNL     1     -45.945  59.738 -56.570  1.00  0.00     0.172 HD
BRANCH  26  30
HETATM   30  C   UNL     1     -43.866  60.145 -52.629  1.00  0.00     0.069 A 
HETATM   31  C   UNL     1     -44.445  59.508 -51.519  1.00  0.00     0.095 A 
HETATM   32  C   UNL     1     -44.173  59.956 -50.223  1.00  0.00     0.039 A 
HETATM   33  C   UNL     1     -43.342  61.059 -50.029  1.00  0.00     0.003 A 
HETATM   34  C   UNL     1     -42.778  61.707 -51.127  1.00  0.00     0.002 A 
HETATM   35  C   UNL     1     -43.039  61.253 -52.423  1.00  0.00     0.032 A 
BRANCH  31  36
HETATM   36  O   UNL     1     -45.278  58.439 -51.755  1.00  0.00    -0.354 OA
HETATM   37  C   UNL     1     -44.901  57.286 -50.999  1.00  0.00     0.210 C 
ENDBRANCH  31  36
ENDBRANCH  26  30
ENDBRANCH   1  24
TORSDOF 8
ENDMDL
MODEL 10
REMARK VINA RESULT:      -7.0      2.281      3.967
REMARK  8 active torsions:
REMARK  status: ('A' for Active; 'I' for Inactive)
REMARK    1  A    between atoms: O_2  and  C_3 
REMARK    2  A    between atoms: C_4  and  N_5 
REMARK       I    between atoms: N_5  and  C_6 
REMARK       I    between atoms: C_6  and  N_7 
REMARK    3  A    between atoms: N_7  and  C_8 
REMARK    4  A    between atoms: C_11  and  C_12 
REMARK    5  A    between atoms: C_12  and  C_13 
REMARK       I    between atoms: C_13  and  N_14 
REMARK    6  A    between atoms: N_14  and  C_15 
REMARK    7  A    between atoms: C_16  and  O_17 
REMARK    8  A    between atoms: O_17  and  C_18 
ROOT
HETATM    1  C   UNL     1     -43.431  57.069 -52.327  1.00  0.00     0.174 C 
HETATM    2  S   UNL     1     -43.355  58.120 -50.988  1.00  0.00    -0.062 SA
HETATM    3  C   UNL     1     -42.580  59.284 -51.977  1.00  0.00     0.081 C 
HETATM    4  C   UNL     1     -42.406  58.779 -53.255  1.00  0.00     0.052 C 
HETATM    5  N   UNL     1     -42.987  57.532 -53.469  1.00  0.00    -0.228 NA
ENDROOT
BRANCH   4   6
HETATM    6  C   UNL     1     -41.625  59.420 -54.356  1.00  0.00     0.163 C 
BRANCH   6   7
HETATM    7  C   UNL     1     -42.586  60.031 -55.373  1.00  0.00     0.227 C 
HETATM    8  N   UNL     1     -43.907  59.671 -55.176  1.00  0.00    -0.324 N 
HETATM    9  H   UNL     1     -44.168  59.252 -54.290  1.00  0.00     0.169 HD
HETATM   10  O   UNL     1     -42.176  60.768 -56.268  1.00  0.00    -0.273 OA
BRANCH   8  11
HETATM   11  C   UNL     1     -44.979  59.829 -56.085  1.00  0.00     0.069 A 
HETATM   12  C   UNL     1     -45.241  58.782 -56.985  1.00  0.00     0.102 A 
HETATM   13  C   UNL     1     -46.211  58.919 -57.986  1.00  0.00     0.039 A 
HETATM   14  C   UNL     1     -46.964  60.088 -58.064  1.00  0.00     0.003 A 
HETATM   15  C   UNL     1     -46.738  61.119 -57.153  1.00  0.00     0.002 A 
HETATM   16  C   UNL     1     -45.749  60.992 -56.171  1.00  0.00     0.032 A 
BRANCH  12  17
HETATM   17  O   UNL     1     -44.483  57.631 -56.885  1.00  0.00    -0.309 OA
BRANCH  17  18
HETATM   18  C   UNL     1     -43.732  57.269 -57.983  1.00  0.00     0.076 A 
HETATM   19  C   UNL     1     -42.753  58.176 -58.390  1.00  0.00     0.037 A 
HETATM   20  C   UNL     1     -41.942  57.883 -59.488  1.00  0.00     0.003 A 
HETATM   21  C   UNL     1     -42.101  56.678 -60.171  1.00  0.00     0.000 A 
HETATM   22  C   UNL     1     -43.063  55.759 -59.751  1.00  0.00     0.003 A 
HETATM   23  C   UNL     1     -43.872  56.047 -58.650  1.00  0.00     0.037 A 
ENDBRANCH  17  18
ENDBRANCH  12  17
ENDBRANCH   8  11
ENDBRANCH   6   7
ENDBRANCH   4   6
BRANCH   1  24
HETATM   24  N   UNL     1     -43.915  55.831 -52.034  1.00  0.00    -0.287 N 
HETATM   25  C   UNL     1     -43.223  54.658 -52.072  1.00  0.00     0.326 C 
HETATM   26  N   UNL     1     -42.079  54.635 -52.818  1.00  0.00    -0.306 N 
HETATM   27  O   UNL     1     -43.714  53.687 -51.497  1.00  0.00    -0.247 OA
HETATM   28  H   UNL     1     -41.939  55.413 -53.456  1.00  0.00     0.171 HD
HETATM   29  H   UNL     1     -44.819  55.782 -51.589  1.00  0.00     0.172 HD
BRANCH  26  30
HETATM   30  C   UNL     1     -41.221  53.532 -53.008  1.00  0.00     0.069 A 
HETATM   31  C   UNL     1     -40.302  53.223 -51.991  1.00  0.00     0.095 A 
HETATM   32  C   UNL     1     -39.457  52.116 -52.113  1.00  0.00     0.039 A 
HETATM   33  C   UNL     1     -39.506  51.327 -53.262  1.00  0.00     0.003 A 
HETATM   34  C   UNL     1     -40.403  51.638 -54.282  1.00  0.00     0.002 A 
HETATM   35  C   UNL     1     -41.257  52.737 -54.157  1.00  0.00     0.032 A 
BRANCH  31  36
HETATM   36  O   UNL     1     -40.269  54.041 -50.886  1.00  0.00    -0.354 OA
HETATM   37  C   UNL     1     -40.530  53.324 -49.678  1.00  0.00     0.210 C 
ENDBRANCH  31  36
ENDBRANCH  26  30
ENDBRANCH   1  24
TORSDOF 8
ENDMDL
