MODEL 1
REMARK VINA RESULT:      -8.0      0.000      0.000
REMARK  3 active torsions:
REMARK  status: ('A' for Active; 'I' for Inactive)
REMARK    1  A    between atoms: C_3  and  N_4 
REMARK       I    between atoms: N_4  and  C_5 
REMARK    2  A    between atoms: C_5  and  C_6 
REMARK    3  A    between atoms: C_6  and  C_7 
ROOT
HETATM    1  C   UNL     1     -42.548  55.640 -51.488  1.00  0.00     0.286 C 
HETATM    2  N   UNL     1     -41.141  56.225 -51.405  1.00  0.00    -0.056 N 
HETATM    3  H   UNL     1     -40.885  56.167 -50.396  1.00  0.00     0.278 HD
HETATM    4  H   UNL     1     -40.462  55.640 -51.904  1.00  0.00     0.278 HD
HETATM    5  C   UNL     1     -41.032  57.666 -51.813  1.00  0.00     0.209 C 
HETATM    6  C   UNL     1     -42.053  58.505 -51.009  1.00  0.00     0.115 C 
HETATM    7  N   UNL     1     -43.400  57.933 -51.029  1.00  0.00    -0.353 N 
HETATM    8  C   UNL     1     -43.638  56.583 -50.935  1.00  0.00     0.249 C 
HETATM    9  O   UNL     1     -44.720  56.174 -50.527  1.00  0.00    -0.271 OA
HETATM   10  C   UNL     1     -41.202  57.797 -53.329  1.00  0.00     0.035 C 
HETATM   11  C   UNL     1     -41.182  59.262 -53.757  1.00  0.00     0.002 C 
HETATM   12  C   UNL     1     -42.232  60.076 -53.007  1.00  0.00     0.002 C 
HETATM   13  C   UNL     1     -42.064  59.960 -51.492  1.00  0.00     0.027 C 
HETATM   14  H   UNL     1     -44.148  58.481 -50.608  1.00  0.00     0.163 HD
ENDROOT
BRANCH   1  15
HETATM   15  C   UNL     1     -42.609  54.255 -50.825  1.00  0.00     0.146 C 
BRANCH  15  16
HETATM   16  C   UNL     1     -41.299  53.921 -50.162  1.00  0.00     0.224 C 
HETATM   17  N   UNL     1     -40.383  53.096 -50.725  1.00  0.00    -0.326 N 
HETATM   18  H   UNL     1     -39.610  52.891 -50.092  1.00  0.00     0.169 HD
HETATM   19  O   UNL     1     -41.036  54.464 -49.080  1.00  0.00    -0.273 OA
BRANCH  17  20
HETATM   20  C   UNL     1     -40.254  52.459 -51.983  1.00  0.00     0.056 A 
HETATM   21  C   UNL     1     -40.380  53.100 -53.218  1.00  0.00     0.031 A 
HETATM   22  C   UNL     1     -40.200  52.389 -54.414  1.00  0.00     0.002 A 
HETATM   23  C   UNL     1     -39.888  51.033 -54.393  1.00  0.00     0.002 A 
HETATM   24  C   UNL     1     -39.749  50.378 -53.175  1.00  0.00     0.026 A 
HETATM   25  C   UNL     1     -39.925  51.085 -51.984  1.00  0.00     0.060 A 
HETATM   26 CL   UNL     1     -39.726  50.221 -50.495  1.00  0.00    -0.082 Cl
ENDBRANCH  17  20
ENDBRANCH  15  16
ENDBRANCH   1  15
TORSDOF 3
ENDMDL
MODEL 2
REMARK VINA RESULT:      -7.9      2.233      2.914
REMARK  3 active torsions:
REMARK  status: ('A' for Active; 'I' for Inactive)
REMARK    1  A    between atoms: C_3  and  N_4 
REMARK       I    between atoms: N_4  and  C_5 
REMARK    2  A    between atoms: C_5  and  C_6 
REMARK    3  A    between atoms: C_6  and  C_7 
ROOT
HETATM    1  C   UNL     1     -42.268  55.033 -53.359  1.00  0.00     0.286 C 
HETATM    2  N   UNL     1     -41.053  55.910 -53.648  1.00  0.00    -0.056 N 
HETATM    3  H   UNL     1     -40.232  55.339 -53.349  1.00  0.00     0.278 HD
HETATM    4  H   UNL     1     -40.936  56.070 -54.654  1.00  0.00     0.278 HD
HETATM    5  C   UNL     1     -41.007  57.198 -52.876  1.00  0.00     0.209 C 
HETATM    6  C   UNL     1     -41.155  56.895 -51.365  1.00  0.00     0.115 C 
HETATM    7  N   UNL     1     -42.283  56.010 -51.071  1.00  0.00    -0.353 N 
HETATM    8  C   UNL     1     -42.610  54.932 -51.858  1.00  0.00     0.249 C 
HETATM    9  O   UNL     1     -43.242  53.993 -51.386  1.00  0.00    -0.271 OA
HETATM   10  C   UNL     1     -42.068  58.166 -53.405  1.00  0.00     0.035 C 
HETATM   11  C   UNL     1     -42.099  59.448 -52.579  1.00  0.00     0.002 C 
HETATM   12  C   UNL     1     -42.308  59.151 -51.097  1.00  0.00     0.002 C 
HETATM   13  C   UNL     1     -41.246  58.193 -50.556  1.00  0.00     0.027 C 
HETATM   14  H   UNL     1     -42.507  55.847 -50.090  1.00  0.00     0.163 HD
ENDROOT
BRANCH   1  15
HETATM   15  C   UNL     1     -42.108  53.644 -53.997  1.00  0.00     0.146 C 
BRANCH  15  16
HETATM   16  C   UNL     1     -40.715  53.460 -54.538  1.00  0.00     0.224 C 
HETATM   17  N   UNL     1     -39.788  52.686 -53.924  1.00  0.00    -0.326 N 
HETATM   18  H   UNL     1     -38.869  52.765 -54.363  1.00  0.00     0.169 HD
HETATM   19  O   UNL     1     -40.428  54.007 -55.613  1.00  0.00    -0.273 OA
BRANCH  17  20
HETATM   20  C   UNL     1     -39.802  51.795 -52.824  1.00  0.00     0.056 A 
HETATM   21  C   UNL     1     -39.969  52.177 -51.490  1.00  0.00     0.031 A 
HETATM   22  C   UNL     1     -40.004  51.215 -50.470  1.00  0.00     0.002 A 
HETATM   23  C   UNL     1     -39.877  49.861 -50.767  1.00  0.00     0.002 A 
HETATM   24  C   UNL     1     -39.720  49.458 -52.088  1.00  0.00     0.026 A 
HETATM   25  C   UNL     1     -39.687  50.415 -53.105  1.00  0.00     0.060 A 
HETATM   26 CL   UNL     1     -39.502  49.855 -54.735  1.00  0.00    -0.082 Cl
ENDBRANCH  17  20
ENDBRANCH  15  16
ENDBRANCH   1  15
TORSDOF 3
ENDMDL
MODEL 3
REMARK VINA RESULT:      -7.8      1.854      2.187
REMARK  3 active torsions:
REMARK  status: ('A' for Active; 'I' for Inactive)
REMARK    1  A    between atoms: C_3  and  N_4 
REMARK       I    between atoms: N_4  and  C_5 
REMARK    2  A    between atoms: C_5  and  C_6 
REMARK    3  A    between atoms: C_6  and  C_7 
ROOT
HETATM    1  C   UNL     1     -42.571  54.714 -51.456  1.00  0.00     0.286 C 
HETATM    2  N   UNL     1     -41.650  55.880 -51.803  1.00  0.00    -0.056 N 
HETATM    3  H   UNL     1     -41.264  56.199 -50.888  1.00  0.00     0.278 HD
HETATM    4  H   UNL     1     -40.846  55.570 -52.359  1.00  0.00     0.278 HD
HETATM    5  C   UNL     1     -42.335  57.058 -52.435  1.00  0.00     0.209 C 
HETATM    6  C   UNL     1     -43.518  57.503 -51.541  1.00  0.00     0.115 C 
HETATM    7  N   UNL     1     -44.385  56.390 -51.150  1.00  0.00    -0.353 N 
HETATM    8  C   UNL     1     -43.898  55.153 -50.802  1.00  0.00     0.249 C 
HETATM    9  O   UNL     1     -44.562  54.408 -50.089  1.00  0.00    -0.271 OA
HETATM   10  C   UNL     1     -42.755  56.716 -53.867  1.00  0.00     0.035 C 
HETATM   11  C   UNL     1     -43.531  57.868 -54.499  1.00  0.00     0.002 C 
HETATM   12  C   UNL     1     -44.733  58.264 -53.648  1.00  0.00     0.002 C 
HETATM   13  C   UNL     1     -44.323  58.618 -52.218  1.00  0.00     0.027 C 
HETATM   14  H   UNL     1     -45.241  56.617 -50.647  1.00  0.00     0.163 HD
ENDROOT
BRANCH   1  15
HETATM   15  C   UNL     1     -41.838  53.670 -50.600  1.00  0.00     0.146 C 
BRANCH  15  16
HETATM   16  C   UNL     1     -40.351  53.905 -50.626  1.00  0.00     0.224 C 
HETATM   17  N   UNL     1     -39.489  53.076 -51.264  1.00  0.00    -0.326 N 
HETATM   18  H   UNL     1     -38.515  53.322 -51.083  1.00  0.00     0.169 HD
HETATM   19  O   UNL     1     -39.911  54.926 -50.078  1.00  0.00    -0.273 OA
BRANCH  17  20
HETATM   20  C   UNL     1     -39.630  51.957 -52.119  1.00  0.00     0.056 A 
HETATM   21  C   UNL     1     -39.486  50.625 -51.720  1.00  0.00     0.031 A 
HETATM   22  C   UNL     1     -39.680  49.580 -52.636  1.00  0.00     0.002 A 
HETATM   23  C   UNL     1     -40.023  49.849 -53.958  1.00  0.00     0.002 A 
HETATM   24  C   UNL     1     -40.181  51.167 -54.373  1.00  0.00     0.026 A 
HETATM   25  C   UNL     1     -39.991  52.208 -53.462  1.00  0.00     0.060 A 
HETATM   26 CL   UNL     1     -40.213  53.830 -54.031  1.00  0.00    -0.082 Cl
ENDBRANCH  17  20
ENDBRANCH  15  16
ENDBRANCH   1  15
TORSDOF 3
ENDMDL
MODEL 4
REMARK VINA RESULT:      -7.6      2.527      6.433
REMARK  3 active torsions:
REMARK  status: ('A' for Active; 'I' for Inactive)
REMARK    1  A    between atoms: C_3  and  N_4 
REMARK       I    between atoms: N_4  and  C_5 
REMARK    2  A    between atoms: C_5  and  C_6 
REMARK    3  A    between atoms: C_6  and  C_7 
ROOT
HETATM    1  C   UNL     1     -41.928  53.896 -51.103  1.00  0.00     0.286 C 
HETATM    2  N   UNL     1     -40.452  53.769 -50.740  1.00  0.00    -0.056 N 
HETATM    3  H   UNL     1     -40.014  54.652 -51.080  1.00  0.00     0.278 HD
HETATM    4  H   UNL     1     -40.315  53.756 -49.724  1.00  0.00     0.278 HD
HETATM    5  C   UNL     1     -39.735  52.629 -51.406  1.00  0.00     0.209 C 
HETATM    6  C   UNL     1     -39.948  52.714 -52.936  1.00  0.00     0.115 C 
HETATM    7  N   UNL     1     -41.353  52.892 -53.306  1.00  0.00    -0.353 N 
HETATM    8  C   UNL     1     -42.209  53.711 -52.609  1.00  0.00     0.249 C 
HETATM    9  O   UNL     1     -43.204  54.172 -53.158  1.00  0.00    -0.271 OA
HETATM   10  C   UNL     1     -40.193  51.297 -50.805  1.00  0.00     0.035 C 
HETATM   11  C   UNL     1     -39.543  50.120 -51.526  1.00  0.00     0.002 C 
HETATM   12  C   UNL     1     -39.807  50.171 -53.028  1.00  0.00     0.002 C 
HETATM   13  C   UNL     1     -39.343  51.494 -53.639  1.00  0.00     0.027 C 
HETATM   14  H   UNL     1     -41.585  52.854 -54.297  1.00  0.00     0.163 HD
ENDROOT
BRANCH   1  15
HETATM   15  C   UNL     1     -42.512  55.218 -50.578  1.00  0.00     0.146 C 
BRANCH  15  16
HETATM   16  C   UNL     1     -41.437  56.065 -49.951  1.00  0.00     0.224 C 
HETATM   17  N   UNL     1     -40.885  57.132 -50.579  1.00  0.00    -0.326 N 
HETATM   18  H   UNL     1     -40.097  57.519 -50.059  1.00  0.00     0.169 HD
HETATM   19  O   UNL     1     -41.082  55.798 -48.794  1.00  0.00    -0.273 OA
BRANCH  17  20
HETATM   20  C   UNL     1     -41.151  57.828 -51.783  1.00  0.00     0.056 A 
HETATM   21  C   UNL     1     -41.142  57.252 -53.056  1.00  0.00     0.031 A 
HETATM   22  C   UNL     1     -41.453  58.018 -54.189  1.00  0.00     0.002 A 
HETATM   23  C   UNL     1     -41.782  59.366 -54.067  1.00  0.00     0.002 A 
HETATM   24  C   UNL     1     -41.807  59.956 -52.808  1.00  0.00     0.026 A 
HETATM   25  C   UNL     1     -41.500  59.194 -51.679  1.00  0.00     0.060 A 
HETATM   26 CL   UNL     1     -41.559  59.978 -50.134  1.00  0.00    -0.082 Cl
ENDBRANCH  17  20
ENDBRANCH  15  16
ENDBRANCH   1  15
TORSDOF 3
ENDMDL
MODEL 5
REMARK VINA RESULT:      -7.5      3.964      4.515
REMARK  3 active torsions:
REMARK  status: ('A' for Active; 'I' for Inactive)
REMARK    1  A    between atoms: C_3  and  N_4 
REMARK       I    between atoms: N_4  and  C_5 
REMARK    2  A    between atoms: C_5  and  C_6 
REMARK    3  A    between atoms: C_6  and  C_7 
ROOT
HETATM    1  C   UNL     1     -43.277  55.053 -55.207  1.00  0.00     0.286 C 
HETATM    2  N   UNL     1     -42.184  55.191 -56.263  1.00  0.00    -0.056 N 
HETATM    3  H   UNL     1     -41.430  55.742 -55.799  1.00  0.00     0.278 HD
HETATM    4  H   UNL     1     -41.770  54.282 -56.494  1.00  0.00     0.278 HD
HETATM    5  C   UNL     1     -42.592  55.940 -57.499  1.00  0.00     0.209 C 
HETATM    6  C   UNL     1     -43.180  57.314 -57.095  1.00  0.00     0.115 C 
HETATM    7  N   UNL     1     -44.192  57.211 -56.043  1.00  0.00    -0.353 N 
HETATM    8  C   UNL     1     -44.073  56.355 -54.974  1.00  0.00     0.249 C 
HETATM    9  O   UNL     1     -44.674  56.585 -53.930  1.00  0.00    -0.271 OA
HETATM   10  C   UNL     1     -43.555  55.092 -58.334  1.00  0.00     0.035 C 
HETATM   11  C   UNL     1     -44.052  55.868 -59.551  1.00  0.00     0.002 C 
HETATM   12  C   UNL     1     -44.688  57.194 -59.145  1.00  0.00     0.002 C 
HETATM   13  C   UNL     1     -43.729  58.053 -58.319  1.00  0.00     0.027 C 
HETATM   14  H   UNL     1     -44.698  58.060 -55.795  1.00  0.00     0.163 HD
ENDROOT
BRANCH   1  15
HETATM   15  C   UNL     1     -42.706  54.498 -53.893  1.00  0.00     0.146 C 
BRANCH  15  16
HETATM   16  C   UNL     1     -41.291  54.969 -53.683  1.00  0.00     0.224 C 
HETATM   17  N   UNL     1     -40.272  54.122 -53.397  1.00  0.00    -0.326 N 
HETATM   18  H   UNL     1     -39.409  54.620 -53.175  1.00  0.00     0.169 HD
HETATM   19  O   UNL     1     -41.049  56.176 -53.824  1.00  0.00    -0.273 OA
BRANCH  17  20
HETATM   20  C   UNL     1     -40.131  52.715 -53.340  1.00  0.00     0.056 A 
HETATM   21  C   UNL     1     -40.199  51.860 -54.444  1.00  0.00     0.031 A 
HETATM   22  C   UNL     1     -40.012  50.479 -54.290  1.00  0.00     0.002 A 
HETATM   23  C   UNL     1     -39.752  49.932 -53.037  1.00  0.00     0.002 A 
HETATM   24  C   UNL     1     -39.671  50.765 -51.927  1.00  0.00     0.026 A 
HETATM   25  C   UNL     1     -39.854  52.142 -52.078  1.00  0.00     0.060 A 
HETATM   26 CL   UNL     1     -39.730  53.134 -50.662  1.00  0.00    -0.082 Cl
ENDBRANCH  17  20
ENDBRANCH  15  16
ENDBRANCH   1  15
TORSDOF 3
ENDMDL
MODEL 6
REMARK VINA RESULT:      -7.5      2.445      2.772
REMARK  3 active torsions:
REMARK  status: ('A' for Active; 'I' for Inactive)
REMARK    1  A    between atoms: C_3  and  N_4 
REMARK       I    between atoms: N_4  and  C_5 
REMARK    2  A    between atoms: C_5  and  C_6 
REMARK    3  A    between atoms: C_6  and  C_7 
ROOT
HETATM    1  C   UNL     1     -42.670  55.255 -53.089  1.00  0.00     0.286 C 
HETATM    2  N   UNL     1     -43.509  56.224 -52.262  1.00  0.00    -0.056 N 
HETATM    3  H   UNL     1     -44.336  55.668 -51.954  1.00  0.00     0.278 HD
HETATM    4  H   UNL     1     -43.021  56.506 -51.405  1.00  0.00     0.278 HD
HETATM    5  C   UNL     1     -44.027  57.415 -53.018  1.00  0.00     0.209 C 
HETATM    6  C   UNL     1     -44.780  56.932 -54.281  1.00  0.00     0.115 C 
HETATM    7  N   UNL     1     -44.015  55.959 -55.062  1.00  0.00    -0.353 N 
HETATM    8  C   UNL     1     -43.265  54.963 -54.483  1.00  0.00     0.249 C 
HETATM    9  O   UNL     1     -43.004  53.943 -55.112  1.00  0.00    -0.271 OA
HETATM   10  C   UNL     1     -42.879  58.379 -53.330  1.00  0.00     0.035 C 
HETATM   11  C   UNL     1     -43.366  59.553 -54.174  1.00  0.00     0.002 C 
HETATM   12  C   UNL     1     -44.053  59.076 -55.449  1.00  0.00     0.002 C 
HETATM   13  C   UNL     1     -45.208  58.121 -55.148  1.00  0.00     0.027 C 
HETATM   14  H   UNL     1     -44.400  55.672 -55.960  1.00  0.00     0.163 HD
ENDROOT
BRANCH   1  15
HETATM   15  C   UNL     1     -42.395  53.960 -52.309  1.00  0.00     0.146 C 
BRANCH  15  16
HETATM   16  C   UNL     1     -41.083  54.045 -51.575  1.00  0.00     0.224 C 
HETATM   17  N   UNL     1     -40.119  53.099 -51.686  1.00  0.00    -0.326 N 
HETATM   18  H   UNL     1     -39.349  53.257 -51.036  1.00  0.00     0.169 HD
HETATM   19  O   UNL     1     -40.866  55.048 -50.880  1.00  0.00    -0.273 OA
BRANCH  17  20
HETATM   20  C   UNL     1     -39.937  51.951 -52.494  1.00  0.00     0.056 A 
HETATM   21  C   UNL     1     -39.773  51.969 -53.882  1.00  0.00     0.031 A 
HETATM   22  C   UNL     1     -39.564  50.779 -54.593  1.00  0.00     0.002 A 
HETATM   23  C   UNL     1     -39.511  49.556 -53.929  1.00  0.00     0.002 A 
HETATM   24  C   UNL     1     -39.662  49.516 -52.548  1.00  0.00     0.026 A 
HETATM   25  C   UNL     1     -39.868  50.701 -51.838  1.00  0.00     0.060 A 
HETATM   26 CL   UNL     1     -40.036  50.593 -50.117  1.00  0.00    -0.082 Cl
ENDBRANCH  17  20
ENDBRANCH  15  16
ENDBRANCH   1  15
TORSDOF 3
ENDMDL
MODEL 7
REMARK VINA RESULT:      -7.4      4.483      6.482
REMARK  3 active torsions:
REMARK  status: ('A' for Active; 'I' for Inactive)
REMARK    1  A    between atoms: C_3  and  N_4 
REMARK       I    between atoms: N_4  and  C_5 
REMARK    2  A    between atoms: C_5  and  C_6 
REMARK    3  A    between atoms: C_6  and  C_7 
ROOT
HETATM    1  C   UNL     1     -41.112  54.706 -54.102  1.00  0.00     0.286 C 
HETATM    2  N   UNL     1     -41.777  53.587 -53.306  1.00  0.00    -0.056 N 
HETATM    3  H   UNL     1     -42.797  53.694 -53.490  1.00  0.00     0.278 HD
HETATM    4  H   UNL     1     -41.518  52.663 -53.670  1.00  0.00     0.278 HD
HETATM    5  C   UNL     1     -41.579  53.667 -51.819  1.00  0.00     0.209 C 
HETATM    6  C   UNL     1     -42.014  55.066 -51.320  1.00  0.00     0.115 C 
HETATM    7  N   UNL     1     -41.431  56.156 -52.104  1.00  0.00    -0.353 N 
HETATM    8  C   UNL     1     -41.300  56.102 -53.472  1.00  0.00     0.249 C 
HETATM    9  O   UNL     1     -41.227  57.138 -54.125  1.00  0.00    -0.271 OA
HETATM   10  C   UNL     1     -40.132  53.320 -51.461  1.00  0.00     0.035 C 
HETATM   11  C   UNL     1     -39.886  53.481 -49.963  1.00  0.00     0.002 C 
HETATM   12  C   UNL     1     -40.256  54.881 -49.485  1.00  0.00     0.002 C 
HETATM   13  C   UNL     1     -41.704  55.233 -49.828  1.00  0.00     0.027 C 
HETATM   14  H   UNL     1     -41.588  57.107 -51.774  1.00  0.00     0.163 HD
ENDROOT
BRANCH   1  15
HETATM   15  C   UNL     1     -41.568  54.683 -55.569  1.00  0.00     0.146 C 
BRANCH  15  16
HETATM   16  C   UNL     1     -43.044  54.962 -55.676  1.00  0.00     0.224 C 
HETATM   17  N   UNL     1     -43.560  55.837 -56.572  1.00  0.00    -0.326 N 
HETATM   18  H   UNL     1     -44.560  55.988 -56.430  1.00  0.00     0.169 HD
HETATM   19  O   UNL     1     -43.814  54.325 -54.943  1.00  0.00    -0.273 OA
BRANCH  17  20
HETATM   20  C   UNL     1     -43.035  56.584 -57.654  1.00  0.00     0.056 A 
HETATM   21  C   UNL     1     -42.319  57.777 -57.527  1.00  0.00     0.031 A 
HETATM   22  C   UNL     1     -41.808  58.428 -58.660  1.00  0.00     0.002 A 
HETATM   23  C   UNL     1     -42.000  57.895 -59.932  1.00  0.00     0.002 A 
HETATM   24  C   UNL     1     -42.700  56.704 -60.080  1.00  0.00     0.026 A 
HETATM   25  C   UNL     1     -43.208  56.053 -58.953  1.00  0.00     0.060 A 
HETATM   26 CL   UNL     1     -44.063  54.565 -59.195  1.00  0.00    -0.082 Cl
ENDBRANCH  17  20
ENDBRANCH  15  16
ENDBRANCH   1  15
TORSDOF 3
ENDMDL
MODEL 8
REMARK VINA RESULT:      -7.3     15.050     16.769
REMARK  3 active torsions:
REMARK  status: ('A' for Active; 'I' for Inactive)
REMARK    1  A    between atoms: C_3  and  N_4 
REMARK       I    between atoms: N_4  and  C_5 
REMARK    2  A    between atoms: C_5  and  C_6 
REMARK    3  A    between atoms: C_6  and  C_7 
ROOT
HETATM    1  C   UNL     1     -36.103  40.490 -55.422  1.00  0.00     0.286 C 
HETATM    2  N   UNL     1     -37.411  41.220 -55.712  1.00  0.00    -0.056 N 
HETATM    3  H   UNL     1     -38.130  40.718 -55.148  1.00  0.00     0.278 HD
HETATM    4  H   UNL     1     -37.391  42.181 -55.356  1.00  0.00     0.278 HD
HETATM    5  C   UNL     1     -37.855  41.173 -57.147  1.00  0.00     0.209 C 
HETATM    6  C   UNL     1     -37.898  39.701 -57.622  1.00  0.00     0.115 C 
HETATM    7  N   UNL     1     -36.673  38.965 -57.304  1.00  0.00    -0.353 N 
HETATM    8  C   UNL     1     -36.000  39.115 -56.115  1.00  0.00     0.249 C 
HETATM    9  O   UNL     1     -35.271  38.219 -55.702  1.00  0.00    -0.271 OA
HETATM   10  C   UNL     1     -36.949  42.059 -58.006  1.00  0.00     0.035 C 
HETATM   11  C   UNL     1     -37.327  41.958 -59.481  1.00  0.00     0.002 C 
HETATM   12  C   UNL     1     -37.308  40.511 -59.964  1.00  0.00     0.002 C 
HETATM   13  C   UNL     1     -38.217  39.620 -59.118  1.00  0.00     0.027 C 
HETATM   14  H   UNL     1     -36.584  38.020 -57.674  1.00  0.00     0.163 HD
ENDROOT
BRANCH   1  15
HETATM   15  C   UNL     1     -35.858  40.380 -53.909  1.00  0.00     0.146 C 
BRANCH  15  16
HETATM   16  C   UNL     1     -35.487  41.718 -53.328  1.00  0.00     0.224 C 
HETATM   17  N   UNL     1     -34.638  41.851 -52.280  1.00  0.00    -0.326 N 
HETATM   18  H   UNL     1     -34.588  42.814 -51.945  1.00  0.00     0.169 HD
HETATM   19  O   UNL     1     -35.945  42.736 -53.865  1.00  0.00    -0.273 OA
BRANCH  17  20
HETATM   20  C   UNL     1     -33.807  40.966 -51.550  1.00  0.00     0.056 A 
HETATM   21  C   UNL     1     -32.435  40.806 -51.758  1.00  0.00     0.031 A 
HETATM   22  C   UNL     1     -31.689  39.928 -50.959  1.00  0.00     0.002 A 
HETATM   23  C   UNL     1     -32.300  39.201 -49.941  1.00  0.00     0.002 A 
HETATM   24  C   UNL     1     -33.663  39.352 -49.711  1.00  0.00     0.026 A 
HETATM   25  C   UNL     1     -34.407  40.229 -50.504  1.00  0.00     0.060 A 
HETATM   26 CL   UNL     1     -36.099  40.388 -50.165  1.00  0.00    -0.082 Cl
ENDBRANCH  17  20
ENDBRANCH  15  16
ENDBRANCH   1  15
TORSDOF 3
ENDMDL
MODEL 9
REMARK VINA RESULT:      -7.3      4.686      5.589
REMARK  3 active torsions:
REMARK  status: ('A' for Active; 'I' for Inactive)
REMARK    1  A    between atoms: C_3  and  N_4 
REMARK       I    between atoms: N_4  and  C_5 
REMARK    2  A    between atoms: C_5  and  C_6 
REMARK    3  A    between atoms: C_6  and  C_7 
ROOT
HETATM    1  C   UNL     1     -43.649  56.753 -55.791  1.00  0.00     0.286 C 
HETATM    2  N   UNL     1     -42.441  56.671 -56.719  1.00  0.00    -0.056 N 
HETATM    3  H   UNL     1     -41.844  57.485 -56.456  1.00  0.00     0.278 HD
HETATM    4  H   UNL     1     -41.879  55.834 -56.529  1.00  0.00     0.278 HD
HETATM    5  C   UNL     1     -42.758  56.802 -58.181  1.00  0.00     0.209 C 
HETATM    6  C   UNL     1     -43.578  58.094 -58.413  1.00  0.00     0.115 C 
HETATM    7  N   UNL     1     -44.711  58.221 -57.497  1.00  0.00    -0.353 N 
HETATM    8  C   UNL     1     -44.638  57.876 -56.168  1.00  0.00     0.249 C 
HETATM    9  O   UNL     1     -45.411  58.375 -55.358  1.00  0.00    -0.271 OA
HETATM   10  C   UNL     1     -43.466  55.539 -58.681  1.00  0.00     0.035 C 
HETATM   11  C   UNL     1     -43.876  55.685 -60.143  1.00  0.00     0.002 C 
HETATM   12  C   UNL     1     -44.737  56.927 -60.359  1.00  0.00     0.002 C 
HETATM   13  C   UNL     1     -44.034  58.195 -59.873  1.00  0.00     0.027 C 
HETATM   14  H   UNL     1     -45.357  58.993 -57.654  1.00  0.00     0.163 HD
ENDROOT
BRANCH   1  15
HETATM   15  C   UNL     1     -43.209  56.857 -54.322  1.00  0.00     0.146 C 
BRANCH  15  16
HETATM   16  C   UNL     1     -41.780  57.319 -54.223  1.00  0.00     0.224 C 
HETATM   17  N   UNL     1     -40.754  56.473 -53.958  1.00  0.00    -0.326 N 
HETATM   18  H   UNL     1     -39.874  56.970 -53.814  1.00  0.00     0.169 HD
HETATM   19  O   UNL     1     -41.535  58.514 -54.440  1.00  0.00    -0.273 OA
BRANCH  17  20
HETATM   20  C   UNL     1     -40.624  55.069 -53.839  1.00  0.00     0.056 A 
HETATM   21  C   UNL     1     -40.295  54.206 -54.887  1.00  0.00     0.031 A 
HETATM   22  C   UNL     1     -40.156  52.828 -54.662  1.00  0.00     0.002 A 
HETATM   23  C   UNL     1     -40.339  52.295 -53.390  1.00  0.00     0.002 A 
HETATM   24  C   UNL     1     -40.658  53.137 -52.330  1.00  0.00     0.026 A 
HETATM   25  C   UNL     1     -40.794  54.509 -52.552  1.00  0.00     0.060 A 
HETATM   26 CL   UNL     1     -41.181  55.512 -51.193  1.00  0.00    -0.082 Cl
ENDBRANCH  17  20
ENDBRANCH  15  16
ENDBRANCH   1  15
TORSDOF 3
ENDMDL
MODEL 10
REMARK VINA RESULT:      -7.3      4.672      6.966
REMARK  3 active torsions:
REMARK  status: ('A' for Active; 'I' for Inactive)
REMARK    1  A    between atoms: C_3  and  N_4 
REMARK       I    between atoms: N_4  and  C_5 
REMARK    2  A    between atoms: C_5  and  C_6 
REMARK    3  A    between atoms: C_6  and  C_7 
ROOT
HETATM    1  C   UNL     1     -41.690  56.277 -54.124  1.00  0.00     0.286 C 
HETATM    2  N   UNL     1     -42.460  54.973 -54.313  1.00  0.00    -0.056 N 
HETATM    3  H   UNL     1     -43.429  55.183 -53.989  1.00  0.00     0.278 HD
HETATM    4  H   UNL     1     -42.540  54.725 -55.305  1.00  0.00     0.278 HD
HETATM    5  C   UNL     1     -41.955  53.819 -53.495  1.00  0.00     0.209 C 
HETATM    6  C   UNL     1     -41.885  54.237 -52.007  1.00  0.00     0.115 C 
HETATM    7  N   UNL     1     -41.198  55.514 -51.807  1.00  0.00    -0.353 N 
HETATM    8  C   UNL     1     -41.362  56.588 -52.649  1.00  0.00     0.249 C 
HETATM    9  O   UNL     1     -41.144  57.726 -52.246  1.00  0.00    -0.271 OA
HETATM   10  C   UNL     1     -40.615  53.328 -54.049  1.00  0.00     0.035 C 
HETATM   11  C   UNL     1     -40.040  52.212 -53.182  1.00  0.00     0.002 C 
HETATM   12  C   UNL     1     -39.913  52.649 -51.725  1.00  0.00     0.002 C 
HETATM   13  C   UNL     1     -41.249  53.130 -51.159  1.00  0.00     0.027 C 
HETATM   14  H   UNL     1     -41.022  55.806 -50.848  1.00  0.00     0.163 HD
ENDROOT
BRANCH   1  15
HETATM   15  C   UNL     1     -42.419  57.449 -54.800  1.00  0.00     0.146 C 
BRANCH  15  16
HETATM   16  C   UNL     1     -43.826  57.062 -55.172  1.00  0.00     0.224 C 
HETATM   17  N   UNL     1     -44.242  56.960 -56.457  1.00  0.00    -0.326 N 
HETATM   18  H   UNL     1     -45.248  56.801 -56.525  1.00  0.00     0.169 HD
HETATM   19  O   UNL     1     -44.616  56.782 -54.259  1.00  0.00    -0.273 OA
BRANCH  17  20
HETATM   20  C   UNL     1     -43.605  57.020 -57.720  1.00  0.00     0.056 A 
HETATM   21  C   UNL     1     -43.101  55.916 -58.413  1.00  0.00     0.031 A 
HETATM   22  C   UNL     1     -42.515  56.073 -59.678  1.00  0.00     0.002 A 
HETATM   23  C   UNL     1     -42.428  57.331 -60.269  1.00  0.00     0.002 A 
HETATM   24  C   UNL     1     -42.931  58.441 -59.601  1.00  0.00     0.026 A 
HETATM   25  C   UNL     1     -43.517  58.286 -58.342  1.00  0.00     0.060 A 
HETATM   26 CL   UNL     1     -44.139  59.702 -57.561  1.00  0.00    -0.082 Cl
ENDBRANCH  17  20
ENDBRANCH  15  16
ENDBRANCH   1  15
TORSDOF 3
ENDMDL
