MODEL 1
REMARK VINA RESULT:      -7.7      0.000      0.000
REMARK  6 active torsions:
REMARK  status: ('A' for Active; 'I' for Inactive)
REMARK    1  A    between atoms: C_4  and  C_5 
REMARK    2  A    between atoms: C_10  and  C_11 
REMARK    3  A    between atoms: C_11  and  N_12 
REMARK    4  A    between atoms: N_12  and  C_14 
REMARK    5  A    between atoms: C_14  and  C_15 
REMARK       I    between atoms: C_15  and  N_16 
REMARK    6  A    between atoms: N_16  and  C_17 
ROOT
HETATM    1  N   UNL     1     -41.604  58.546 -53.076  1.00  0.00    -0.063 N 
HETATM    2  H   UNL     1     -42.485  58.451 -52.548  1.00  0.00     0.280 HD
HETATM    3  C   UNL     1     -41.741  59.791 -53.906  1.00  0.00     0.270 C 
ENDROOT
BRANCH   1   4
HETATM    4  C   UNL     1     -41.449  57.326 -53.943  1.00  0.00     0.277 C 
BRANCH   4   5
HETATM    5  C   UNL     1     -42.692  56.538 -54.109  1.00  0.00     0.018 A 
HETATM    6  C   UNL     1     -42.820  55.146 -54.376  1.00  0.00     0.120 A 
HETATM    7  N   UNL     1     -44.102  54.777 -54.469  1.00  0.00    -0.172 NA
HETATM    8  N   UNL     1     -44.795  55.910 -54.298  1.00  0.00    -0.288 N 
HETATM    9  H   UNL     1     -45.810  55.869 -54.356  1.00  0.00     0.188 HD
HETATM   10  C   UNL     1     -43.997  56.992 -54.051  1.00  0.00     0.120 A 
BRANCH   6  11
HETATM   11  C   UNL     1     -41.704  54.161 -54.511  1.00  0.00     0.106 A 
HETATM   12  O   UNL     1     -41.816  52.819 -54.257  1.00  0.00    -0.313 OA
HETATM   13  C   UNL     1     -40.589  52.260 -54.470  1.00  0.00     0.050 A 
HETATM   14  C   UNL     1     -40.457  50.811 -54.214  1.00  0.00     0.076 C 
HETATM   15  C   UNL     1     -39.696  53.223 -54.882  1.00  0.00     0.035 A 
HETATM   16  C   UNL     1     -40.414  54.442 -54.917  1.00  0.00     0.042 A 
ENDBRANCH   6  11
ENDBRANCH   4   5
ENDBRANCH   1   4
BRANCH   1  17
HETATM   17  C   UNL     1     -40.521  58.686 -51.992  1.00  0.00     0.337 C 
BRANCH  17  18
HETATM   18  C   UNL     1     -41.151  58.747 -50.600  1.00  0.00     0.248 C 
HETATM   19  N   UNL     1     -41.493  57.622 -49.914  1.00  0.00    -0.326 N 
HETATM   20  H   UNL     1     -41.712  57.823 -48.939  1.00  0.00     0.169 HD
HETATM   21  O   UNL     1     -41.279  59.851 -50.056  1.00  0.00    -0.271 OA
BRANCH  19  22
HETATM   22  C   UNL     1     -41.625  56.277 -50.304  1.00  0.00     0.040 A 
HETATM   23  C   UNL     1     -40.449  55.517 -50.344  1.00  0.00     0.072 A 
HETATM   24  C   UNL     1     -40.490  54.170 -50.703  1.00  0.00     0.121 A 
HETATM   25  F   UNL     1     -39.348  53.473 -50.757  1.00  0.00    -0.206 F 
HETATM   26  C   UNL     1     -41.688  53.545 -51.005  1.00  0.00     0.084 A 
HETATM   27  C   UNL     1     -42.851  54.292 -50.939  1.00  0.00     0.121 A 
HETATM   28  F   UNL     1     -44.027  53.706 -51.197  1.00  0.00    -0.206 F 
HETATM   29  C   UNL     1     -42.834  55.646 -50.593  1.00  0.00     0.072 A 
ENDBRANCH  19  22
ENDBRANCH  17  18
ENDBRANCH   1  17
TORSDOF 6
ENDMDL
MODEL 2
REMARK VINA RESULT:      -7.3      3.103      4.990
REMARK  6 active torsions:
REMARK  status: ('A' for Active; 'I' for Inactive)
REMARK    1  A    between atoms: C_4  and  C_5 
REMARK    2  A    between atoms: C_10  and  C_11 
REMARK    3  A    between atoms: C_11  and  N_12 
REMARK    4  A    between atoms: N_12  and  C_14 
REMARK    5  A    between atoms: C_14  and  C_15 
REMARK       I    between atoms: C_15  and  N_16 
REMARK    6  A    between atoms: N_16  and  C_17 
ROOT
HETATM    1  N   UNL     1     -42.548  55.051 -53.859  1.00  0.00    -0.063 N 
HETATM    2  H   UNL     1     -41.569  55.326 -54.029  1.00  0.00     0.280 HD
HETATM    3  C   UNL     1     -42.974  54.240 -55.050  1.00  0.00     0.270 C 
ENDROOT
BRANCH   1   4
HETATM    4  C   UNL     1     -43.368  56.308 -53.733  1.00  0.00     0.277 C 
BRANCH   4   5
HETATM    5  C   UNL     1     -42.627  57.548 -54.059  1.00  0.00     0.018 A 
HETATM    6  C   UNL     1     -42.492  58.181 -55.327  1.00  0.00     0.120 A 
HETATM    7  N   UNL     1     -41.743  59.286 -55.249  1.00  0.00    -0.172 NA
HETATM    8  N   UNL     1     -41.371  59.355 -53.965  1.00  0.00    -0.288 N 
HETATM    9  H   UNL     1     -40.762  60.118 -53.678  1.00  0.00     0.188 HD
HETATM   10  C   UNL     1     -41.897  58.351 -53.202  1.00  0.00     0.120 A 
BRANCH   6  11
HETATM   11  C   UNL     1     -43.113  57.739 -56.613  1.00  0.00     0.106 A 
HETATM   12  O   UNL     1     -42.545  56.849 -57.486  1.00  0.00    -0.313 OA
HETATM   13  C   UNL     1     -43.396  56.717 -58.544  1.00  0.00     0.050 A 
HETATM   14  C   UNL     1     -42.967  55.829 -59.644  1.00  0.00     0.076 C 
HETATM   15  C   UNL     1     -44.517  57.492 -58.350  1.00  0.00     0.035 A 
HETATM   16  C   UNL     1     -44.338  58.142 -57.105  1.00  0.00     0.042 A 
ENDBRANCH   6  11
ENDBRANCH   4   5
ENDBRANCH   1   4
BRANCH   1  17
HETATM   17  C   UNL     1     -42.492  54.208 -52.572  1.00  0.00     0.337 C 
BRANCH  17  18
HETATM   18  C   UNL     1     -41.236  54.535 -51.763  1.00  0.00     0.248 C 
HETATM   19  N   UNL     1     -40.149  53.716 -51.758  1.00  0.00    -0.326 N 
HETATM   20  H   UNL     1     -39.337  54.165 -51.338  1.00  0.00     0.169 HD
HETATM   21  O   UNL     1     -41.185  55.614 -51.160  1.00  0.00    -0.271 OA
BRANCH  19  22
HETATM   22  C   UNL     1     -39.960  52.390 -52.188  1.00  0.00     0.040 A 
HETATM   23  C   UNL     1     -39.805  51.421 -51.187  1.00  0.00     0.072 A 
HETATM   24  C   UNL     1     -39.630  50.079 -51.525  1.00  0.00     0.121 A 
HETATM   25  F   UNL     1     -39.460  49.177 -50.550  1.00  0.00    -0.206 F 
HETATM   26  C   UNL     1     -39.627  49.666 -52.846  1.00  0.00     0.084 A 
HETATM   27  C   UNL     1     -39.806  50.623 -53.831  1.00  0.00     0.121 A 
HETATM   28  F   UNL     1     -39.837  50.247 -55.116  1.00  0.00    -0.206 F 
HETATM   29  C   UNL     1     -39.973  51.974 -53.519  1.00  0.00     0.072 A 
ENDBRANCH  19  22
ENDBRANCH  17  18
ENDBRANCH   1  17
TORSDOF 6
ENDMDL
MODEL 3
REMARK VINA RESULT:      -7.3      2.482      4.678
REMARK  6 active torsions:
REMARK  status: ('A' for Active; 'I' for Inactive)
REMARK    1  A    between atoms: C_4  and  C_5 
REMARK    2  A    between atoms: C_10  and  C_11 
REMARK    3  A    between atoms: C_11  and  N_12 
REMARK    4  A    between atoms: N_12  and  C_14 
REMARK    5  A    between atoms: C_14  and  C_15 
REMARK       I    between atoms: C_15  and  N_16 
REMARK    6  A    between atoms: N_16  and  C_17 
ROOT
HETATM    1  N   UNL     1     -42.539  55.494 -51.609  1.00  0.00    -0.063 N 
HETATM    2  H   UNL     1     -41.622  55.407 -52.072  1.00  0.00     0.280 HD
HETATM    3  C   UNL     1     -43.563  55.026 -52.604  1.00  0.00     0.270 C 
ENDROOT
BRANCH   1   4
HETATM    4  C   UNL     1     -42.745  56.943 -51.254  1.00  0.00     0.277 C 
BRANCH   4   5
HETATM    5  C   UNL     1     -41.573  57.806 -51.531  1.00  0.00     0.018 A 
HETATM    6  C   UNL     1     -41.065  58.215 -52.796  1.00  0.00     0.120 A 
HETATM    7  N   UNL     1     -39.984  58.991 -52.665  1.00  0.00    -0.172 NA
HETATM    8  N   UNL     1     -39.772  59.060 -51.346  1.00  0.00    -0.288 N 
HETATM    9  H   UNL     1     -38.969  59.588 -51.012  1.00  0.00     0.188 HD
HETATM   10  C   UNL     1     -40.714  58.388 -50.618  1.00  0.00     0.120 A 
BRANCH   6  11
HETATM   11  C   UNL     1     -41.642  57.886 -54.135  1.00  0.00     0.106 A 
HETATM   12  O   UNL     1     -41.805  56.615 -54.621  1.00  0.00    -0.313 OA
HETATM   13  C   UNL     1     -42.337  56.723 -55.873  1.00  0.00     0.050 A 
HETATM   14  C   UNL     1     -42.562  55.466 -56.618  1.00  0.00     0.076 C 
HETATM   15  C   UNL     1     -42.542  58.047 -56.188  1.00  0.00     0.035 A 
HETATM   16  C   UNL     1     -42.103  58.793 -55.068  1.00  0.00     0.042 A 
ENDBRANCH   6  11
ENDBRANCH   4   5
ENDBRANCH   1   4
BRANCH   1  17
HETATM   17  C   UNL     1     -42.443  54.559 -50.390  1.00  0.00     0.337 C 
BRANCH  17  18
HETATM   18  C   UNL     1     -41.015  54.523 -49.844  1.00  0.00     0.248 C 
HETATM   19  N   UNL     1     -40.002  53.909 -50.516  1.00  0.00    -0.326 N 
HETATM   20  H   UNL     1     -39.091  54.143 -50.124  1.00  0.00     0.169 HD
HETATM   21  O   UNL     1     -40.765  55.138 -48.800  1.00  0.00    -0.271 OA
BRANCH  19  22
HETATM   22  C   UNL     1     -39.990  53.015 -51.601  1.00  0.00     0.040 A 
HETATM   23  C   UNL     1     -40.201  53.566 -52.872  1.00  0.00     0.072 A 
HETATM   24  C   UNL     1     -40.187  52.754 -54.005  1.00  0.00     0.121 A 
HETATM   25  F   UNL     1     -40.416  53.302 -55.205  1.00  0.00    -0.206 F 
HETATM   26  C   UNL     1     -39.942  51.395 -53.910  1.00  0.00     0.084 A 
HETATM   27  C   UNL     1     -39.707  50.858 -52.656  1.00  0.00     0.121 A 
HETATM   28  F   UNL     1     -39.439  49.551 -52.538  1.00  0.00    -0.206 F 
HETATM   29  C   UNL     1     -39.727  51.649 -51.504  1.00  0.00     0.072 A 
ENDBRANCH  19  22
ENDBRANCH  17  18
ENDBRANCH   1  17
TORSDOF 6
ENDMDL
MODEL 4
REMARK VINA RESULT:      -7.3      2.759      4.808
REMARK  6 active torsions:
REMARK  status: ('A' for Active; 'I' for Inactive)
REMARK    1  A    between atoms: C_4  and  C_5 
REMARK    2  A    between atoms: C_10  and  C_11 
REMARK    3  A    between atoms: C_11  and  N_12 
REMARK    4  A    between atoms: N_12  and  C_14 
REMARK    5  A    between atoms: C_14  and  C_15 
REMARK       I    between atoms: C_15  and  N_16 
REMARK    6  A    between atoms: N_16  and  C_17 
ROOT
HETATM    1  N   UNL     1     -42.552  56.456 -50.609  1.00  0.00    -0.063 N 
HETATM    2  H   UNL     1     -42.615  56.819 -49.645  1.00  0.00     0.280 HD
HETATM    3  C   UNL     1     -43.601  55.386 -50.727  1.00  0.00     0.270 C 
ENDROOT
BRANCH   1   4
HETATM    4  C   UNL     1     -41.171  55.890 -50.802  1.00  0.00     0.277 C 
BRANCH   4   5
HETATM    5  C   UNL     1     -40.878  54.705 -49.962  1.00  0.00     0.018 A 
HETATM    6  C   UNL     1     -40.549  53.388 -50.387  1.00  0.00     0.120 A 
HETATM    7  N   UNL     1     -40.355  52.569 -49.348  1.00  0.00    -0.172 NA
HETATM    8  N   UNL     1     -40.585  53.327 -48.269  1.00  0.00    -0.288 N 
HETATM    9  H   UNL     1     -40.519  52.894 -47.351  1.00  0.00     0.188 HD
HETATM   10  C   UNL     1     -40.876  54.625 -48.581  1.00  0.00     0.120 A 
BRANCH   6  11
HETATM   11  C   UNL     1     -40.387  52.923 -51.799  1.00  0.00     0.106 A 
HETATM   12  O   UNL     1     -40.010  51.657 -52.163  1.00  0.00    -0.313 OA
HETATM   13  C   UNL     1     -39.953  51.625 -53.525  1.00  0.00     0.050 A 
HETATM   14  C   UNL     1     -39.521  50.357 -54.150  1.00  0.00     0.076 C 
HETATM   15  C   UNL     1     -40.314  52.848 -54.043  1.00  0.00     0.035 A 
HETATM   16  C   UNL     1     -40.601  53.679 -52.934  1.00  0.00     0.042 A 
ENDBRANCH   6  11
ENDBRANCH   4   5
ENDBRANCH   1   4
BRANCH   1  17
HETATM   17  C   UNL     1     -42.860  57.674 -51.498  1.00  0.00     0.337 C 
BRANCH  17  18
HETATM   18  C   UNL     1     -44.331  57.682 -51.918  1.00  0.00     0.248 C 
HETATM   19  N   UNL     1     -44.763  57.042 -53.039  1.00  0.00    -0.326 N 
HETATM   20  H   UNL     1     -45.779  56.975 -53.070  1.00  0.00     0.169 HD
HETATM   21  O   UNL     1     -45.157  58.221 -51.172  1.00  0.00    -0.271 OA
BRANCH  19  22
HETATM   22  C   UNL     1     -44.081  56.500 -54.144  1.00  0.00     0.040 A 
HETATM   23  C   UNL     1     -43.518  57.413 -55.045  1.00  0.00     0.072 A 
HETATM   24  C   UNL     1     -42.809  56.962 -56.158  1.00  0.00     0.121 A 
HETATM   25  F   UNL     1     -42.302  57.856 -57.016  1.00  0.00    -0.206 F 
HETATM   26  C   UNL     1     -42.624  55.610 -56.390  1.00  0.00     0.084 A 
HETATM   27  C   UNL     1     -43.159  54.711 -55.483  1.00  0.00     0.121 A 
HETATM   28  F   UNL     1     -42.970  53.398 -55.667  1.00  0.00    -0.206 F 
HETATM   29  C   UNL     1     -43.882  55.138 -54.367  1.00  0.00     0.072 A 
ENDBRANCH  19  22
ENDBRANCH  17  18
ENDBRANCH   1  17
TORSDOF 6
ENDMDL
MODEL 5
REMARK VINA RESULT:      -7.2      3.529      5.192
REMARK  6 active torsions:
REMARK  status: ('A' for Active; 'I' for Inactive)
REMARK    1  A    between atoms: C_4  and  C_5 
REMARK    2  A    between atoms: C_10  and  C_11 
REMARK    3  A    between atoms: C_11  and  N_12 
REMARK    4  A    between atoms: N_12  and  C_14 
REMARK    5  A    between atoms: C_14  and  C_15 
REMARK       I    between atoms: C_15  and  N_16 
REMARK    6  A    between atoms: N_16  and  C_17 
ROOT
HETATM    1  N   UNL     1     -42.790  54.852 -54.573  1.00  0.00    -0.063 N 
HETATM    2  H   UNL     1     -41.836  55.174 -54.797  1.00  0.00     0.280 HD
HETATM    3  C   UNL     1     -43.126  53.786 -55.576  1.00  0.00     0.270 C 
ENDROOT
BRANCH   1   4
HETATM    4  C   UNL     1     -43.718  56.031 -54.698  1.00  0.00     0.277 C 
BRANCH   4   5
HETATM    5  C   UNL     1     -43.081  57.246 -55.257  1.00  0.00     0.018 A 
HETATM    6  C   UNL     1     -42.987  57.638 -56.622  1.00  0.00     0.120 A 
HETATM    7  N   UNL     1     -42.334  58.797 -56.758  1.00  0.00    -0.172 NA
HETATM    8  N   UNL     1     -41.981  59.137 -55.513  1.00  0.00    -0.288 N 
HETATM    9  H   UNL     1     -41.440  59.989 -55.379  1.00  0.00     0.188 HD
HETATM   10  C   UNL     1     -42.428  58.254 -54.571  1.00  0.00     0.120 A 
BRANCH   6  11
HETATM   11  C   UNL     1     -43.557  56.912 -57.797  1.00  0.00     0.106 A 
HETATM   12  O   UNL     1     -44.774  57.185 -58.367  1.00  0.00    -0.313 OA
HETATM   13  C   UNL     1     -44.950  56.303 -59.393  1.00  0.00     0.050 A 
HETATM   14  C   UNL     1     -46.226  56.383 -60.134  1.00  0.00     0.076 C 
HETATM   15  C   UNL     1     -43.851  55.483 -59.506  1.00  0.00     0.035 A 
HETATM   16  C   UNL     1     -42.953  55.879 -58.486  1.00  0.00     0.042 A 
ENDBRANCH   6  11
ENDBRANCH   4   5
ENDBRANCH   1   4
BRANCH   1  17
HETATM   17  C   UNL     1     -42.679  54.292 -53.143  1.00  0.00     0.337 C 
BRANCH  17  18
HETATM   18  C   UNL     1     -41.428  54.828 -52.446  1.00  0.00     0.248 C 
HETATM   19  N   UNL     1     -40.326  54.053 -52.249  1.00  0.00    -0.326 N 
HETATM   20  H   UNL     1     -39.521  54.606 -51.955  1.00  0.00     0.169 HD
HETATM   21  O   UNL     1     -41.396  56.021 -52.122  1.00  0.00    -0.271 OA
BRANCH  19  22
HETATM   22  C   UNL     1     -40.112  52.666 -52.346  1.00  0.00     0.040 A 
HETATM   23  C   UNL     1     -40.060  52.128 -53.638  1.00  0.00     0.072 A 
HETATM   24  C   UNL     1     -39.834  50.765 -53.826  1.00  0.00     0.121 A 
HETATM   25  F   UNL     1     -39.814  50.271 -55.071  1.00  0.00    -0.206 F 
HETATM   26  C   UNL     1     -39.633  49.916 -52.752  1.00  0.00     0.084 A 
HETATM   27  C   UNL     1     -39.658  50.456 -51.477  1.00  0.00     0.121 A 
HETATM   28  F   UNL     1     -39.437  49.664 -50.421  1.00  0.00    -0.206 F 
HETATM   29  C   UNL     1     -39.894  51.816 -51.262  1.00  0.00     0.072 A 
ENDBRANCH  19  22
ENDBRANCH  17  18
ENDBRANCH   1  17
TORSDOF 6
ENDMDL
MODEL 6
REMARK VINA RESULT:      -7.2      2.565      5.189
REMARK  6 active torsions:
REMARK  status: ('A' for Active; 'I' for Inactive)
REMARK    1  A    between atoms: C_4  and  C_5 
REMARK    2  A    between atoms: C_10  and  C_11 
REMARK    3  A    between atoms: C_11  and  N_12 
REMARK    4  A    between atoms: N_12  and  C_14 
REMARK    5  A    between atoms: C_14  and  C_15 
REMARK       I    between atoms: C_15  and  N_16 
REMARK    6  A    between atoms: N_16  and  C_17 
ROOT
HETATM    1  N   UNL     1     -42.008  55.504 -54.364  1.00  0.00    -0.063 N 
HETATM    2  H   UNL     1     -41.186  56.038 -54.044  1.00  0.00     0.280 HD
HETATM    3  C   UNL     1     -41.585  54.779 -55.610  1.00  0.00     0.270 C 
ENDROOT
BRANCH   1   4
HETATM    4  C   UNL     1     -43.115  56.483 -54.651  1.00  0.00     0.277 C 
BRANCH   4   5
HETATM    5  C   UNL     1     -42.683  57.676 -55.416  1.00  0.00     0.018 A 
HETATM    6  C   UNL     1     -41.966  58.810 -54.941  1.00  0.00     0.120 A 
HETATM    7  N   UNL     1     -41.755  59.702 -55.915  1.00  0.00    -0.172 NA
HETATM    8  N   UNL     1     -42.348  59.177 -56.993  1.00  0.00    -0.288 N 
HETATM    9  H   UNL     1     -42.335  59.709 -57.860  1.00  0.00     0.188 HD
HETATM   10  C   UNL     1     -42.898  57.948 -56.754  1.00  0.00     0.120 A 
BRANCH   6  11
HETATM   11  C   UNL     1     -41.454  59.022 -53.553  1.00  0.00     0.106 A 
HETATM   12  O   UNL     1     -42.163  59.623 -52.545  1.00  0.00    -0.313 OA
HETATM   13  C   UNL     1     -41.359  59.651 -51.443  1.00  0.00     0.050 A 
HETATM   14  C   UNL     1     -41.902  60.300 -50.232  1.00  0.00     0.076 C 
HETATM   15  C   UNL     1     -40.151  59.053 -51.723  1.00  0.00     0.035 A 
HETATM   16  C   UNL     1     -40.216  58.641 -53.076  1.00  0.00     0.042 A 
ENDBRANCH   6  11
ENDBRANCH   4   5
ENDBRANCH   1   4
BRANCH   1  17
HETATM   17  C   UNL     1     -42.312  54.538 -53.204  1.00  0.00     0.337 C 
BRANCH  17  18
HETATM   18  C   UNL     1     -41.370  54.789 -52.027  1.00  0.00     0.248 C 
HETATM   19  N   UNL     1     -40.365  53.927 -51.712  1.00  0.00    -0.326 N 
HETATM   20  H   UNL     1     -39.715  54.330 -51.038  1.00  0.00     0.169 HD
HETATM   21  O   UNL     1     -41.481  55.846 -51.394  1.00  0.00    -0.271 OA
BRANCH  19  22
HETATM   22  C   UNL     1     -40.086  52.608 -52.115  1.00  0.00     0.040 A 
HETATM   23  C   UNL     1     -39.858  51.675 -51.095  1.00  0.00     0.072 A 
HETATM   24  C   UNL     1     -39.592  50.341 -51.405  1.00  0.00     0.121 A 
HETATM   25  F   UNL     1     -39.353  49.475 -50.412  1.00  0.00    -0.206 F 
HETATM   26  C   UNL     1     -39.569  49.900 -52.716  1.00  0.00     0.084 A 
HETATM   27  C   UNL     1     -39.821  50.820 -53.720  1.00  0.00     0.121 A 
HETATM   28  F   UNL     1     -39.835  50.415 -54.997  1.00  0.00    -0.206 F 
HETATM   29  C   UNL     1     -40.079  52.163 -53.436  1.00  0.00     0.072 A 
ENDBRANCH  19  22
ENDBRANCH  17  18
ENDBRANCH   1  17
TORSDOF 6
ENDMDL
MODEL 7
REMARK VINA RESULT:      -7.2      2.360      5.072
REMARK  6 active torsions:
REMARK  status: ('A' for Active; 'I' for Inactive)
REMARK    1  A    between atoms: C_4  and  C_5 
REMARK    2  A    between atoms: C_10  and  C_11 
REMARK    3  A    between atoms: C_11  and  N_12 
REMARK    4  A    between atoms: N_12  and  C_14 
REMARK    5  A    between atoms: C_14  and  C_15 
REMARK       I    between atoms: C_15  and  N_16 
REMARK    6  A    between atoms: N_16  and  C_17 
ROOT
HETATM    1  N   UNL     1     -42.700  55.661 -52.986  1.00  0.00    -0.063 N 
HETATM    2  H   UNL     1     -41.690  55.825 -53.114  1.00  0.00     0.280 HD
HETATM    3  C   UNL     1     -43.138  54.792 -54.131  1.00  0.00     0.270 C 
ENDROOT
BRANCH   1   4
HETATM    4  C   UNL     1     -43.394  56.997 -53.019  1.00  0.00     0.277 C 
BRANCH   4   5
HETATM    5  C   UNL     1     -42.803  57.963 -53.975  1.00  0.00     0.018 A 
HETATM    6  C   UNL     1     -41.825  58.964 -53.717  1.00  0.00     0.120 A 
HETATM    7  N   UNL     1     -41.530  59.660 -54.820  1.00  0.00    -0.172 NA
HETATM    8  N   UNL     1     -42.321  59.145 -55.769  1.00  0.00    -0.288 N 
HETATM    9  H   UNL     1     -42.283  59.548 -56.703  1.00  0.00     0.188 HD
HETATM   10  C   UNL     1     -43.086  58.105 -55.320  1.00  0.00     0.120 A 
BRANCH   6  11
HETATM   11  C   UNL     1     -41.148  59.232 -52.412  1.00  0.00     0.106 A 
HETATM   12  O   UNL     1     -39.802  59.099 -52.191  1.00  0.00    -0.313 OA
HETATM   13  C   UNL     1     -39.572  59.409 -50.883  1.00  0.00     0.050 A 
HETATM   14  C   UNL     1     -38.179  59.293 -50.401  1.00  0.00     0.076 C 
HETATM   15  C   UNL     1     -40.749  59.764 -50.265  1.00  0.00     0.035 A 
HETATM   16  C   UNL     1     -41.761  59.658 -51.250  1.00  0.00     0.042 A 
ENDBRANCH   6  11
ENDBRANCH   4   5
ENDBRANCH   1   4
BRANCH   1  17
HETATM   17  C   UNL     1     -42.803  54.935 -51.633  1.00  0.00     0.337 C 
BRANCH  17  18
HETATM   18  C   UNL     1     -41.560  55.195 -50.782  1.00  0.00     0.248 C 
HETATM   19  N   UNL     1     -40.448  54.415 -50.874  1.00  0.00    -0.326 N 
HETATM   20  H   UNL     1     -39.650  54.833 -50.396  1.00  0.00     0.169 HD
HETATM   21  O   UNL     1     -41.543  56.190 -50.046  1.00  0.00    -0.271 OA
BRANCH  19  22
HETATM   22  C   UNL     1     -40.216  53.162 -51.468  1.00  0.00     0.040 A 
HETATM   23  C   UNL     1     -40.236  53.116 -52.868  1.00  0.00     0.072 A 
HETATM   24  C   UNL     1     -39.998  51.917 -53.540  1.00  0.00     0.121 A 
HETATM   25  F   UNL     1     -40.048  51.897 -54.878  1.00  0.00    -0.206 F 
HETATM   26  C   UNL     1     -39.714  50.752 -52.848  1.00  0.00     0.084 A 
HETATM   27  C   UNL     1     -39.669  50.806 -51.466  1.00  0.00     0.121 A 
HETATM   28  F   UNL     1     -39.367  49.701 -50.772  1.00  0.00    -0.206 F 
HETATM   29  C   UNL     1     -39.914  51.993 -50.770  1.00  0.00     0.072 A 
ENDBRANCH  19  22
ENDBRANCH  17  18
ENDBRANCH   1  17
TORSDOF 6
ENDMDL
MODEL 8
REMARK VINA RESULT:      -7.1      3.996      6.097
REMARK  6 active torsions:
REMARK  status: ('A' for Active; 'I' for Inactive)
REMARK    1  A    between atoms: C_4  and  C_5 
REMARK    2  A    between atoms: C_10  and  C_11 
REMARK    3  A    between atoms: C_11  and  N_12 
REMARK    4  A    between atoms: N_12  and  C_14 
REMARK    5  A    between atoms: C_14  and  C_15 
REMARK       I    between atoms: C_15  and  N_16 
REMARK    6  A    between atoms: N_16  and  C_17 
ROOT
HETATM    1  N   UNL     1     -42.483  55.513 -53.646  1.00  0.00    -0.063 N 
HETATM    2  H   UNL     1     -42.499  56.200 -52.878  1.00  0.00     0.280 HD
HETATM    3  C   UNL     1     -43.902  55.374 -54.121  1.00  0.00     0.270 C 
ENDROOT
BRANCH   1   4
HETATM    4  C   UNL     1     -41.961  54.213 -53.095  1.00  0.00     0.277 C 
BRANCH   4   5
HETATM    5  C   UNL     1     -41.180  54.356 -51.844  1.00  0.00     0.018 A 
HETATM    6  C   UNL     1     -40.334  53.394 -51.224  1.00  0.00     0.120 A 
HETATM    7  N   UNL     1     -39.792  53.868 -50.097  1.00  0.00    -0.172 NA
HETATM    8  N   UNL     1     -40.300  55.100 -49.968  1.00  0.00    -0.288 N 
HETATM    9  H   UNL     1     -40.040  55.647 -49.150  1.00  0.00     0.188 HD
HETATM   10  C   UNL     1     -41.118  55.452 -51.004  1.00  0.00     0.120 A 
BRANCH   6  11
HETATM   11  C   UNL     1     -40.019  52.025 -51.735  1.00  0.00     0.106 A 
HETATM   12  O   UNL     1     -39.881  51.702 -53.060  1.00  0.00    -0.313 OA
HETATM   13  C   UNL     1     -39.618  50.365 -53.127  1.00  0.00     0.050 A 
HETATM   14  C   UNL     1     -39.472  49.776 -54.474  1.00  0.00     0.076 C 
HETATM   15  C   UNL     1     -39.561  49.829 -51.860  1.00  0.00     0.035 A 
HETATM   16  C   UNL     1     -39.810  50.898 -50.966  1.00  0.00     0.042 A 
ENDBRANCH   6  11
ENDBRANCH   4   5
ENDBRANCH   1   4
BRANCH   1  17
HETATM   17  C   UNL     1     -41.573  56.150 -54.712  1.00  0.00     0.337 C 
BRANCH  17  18
HETATM   18  C   UNL     1     -41.928  57.623 -54.918  1.00  0.00     0.248 C 
HETATM   19  N   UNL     1     -42.471  58.077 -56.081  1.00  0.00    -0.326 N 
HETATM   20  H   UNL     1     -42.828  59.027 -55.989  1.00  0.00     0.169 HD
HETATM   21  O   UNL     1     -41.787  58.405 -53.970  1.00  0.00    -0.271 OA
BRANCH  19  22
HETATM   22  C   UNL     1     -42.597  57.499 -57.358  1.00  0.00     0.040 A 
HETATM   23  C   UNL     1     -41.979  58.175 -58.418  1.00  0.00     0.072 A 
HETATM   24  C   UNL     1     -42.039  57.663 -59.713  1.00  0.00     0.121 A 
HETATM   25  F   UNL     1     -41.460  58.341 -60.712  1.00  0.00    -0.206 F 
HETATM   26  C   UNL     1     -42.687  56.470 -59.983  1.00  0.00     0.084 A 
HETATM   27  C   UNL     1     -43.275  55.791 -58.929  1.00  0.00     0.121 A 
HETATM   28  F   UNL     1     -43.883  54.620 -59.156  1.00  0.00    -0.206 F 
HETATM   29  C   UNL     1     -43.237  56.289 -57.624  1.00  0.00     0.072 A 
ENDBRANCH  19  22
ENDBRANCH  17  18
ENDBRANCH   1  17
TORSDOF 6
ENDMDL
MODEL 9
REMARK VINA RESULT:      -7.1      2.068      5.623
REMARK  6 active torsions:
REMARK  status: ('A' for Active; 'I' for Inactive)
REMARK    1  A    between atoms: C_4  and  C_5 
REMARK    2  A    between atoms: C_10  and  C_11 
REMARK    3  A    between atoms: C_11  and  N_12 
REMARK    4  A    between atoms: N_12  and  C_14 
REMARK    5  A    between atoms: C_14  and  C_15 
REMARK       I    between atoms: C_15  and  N_16 
REMARK    6  A    between atoms: N_16  and  C_17 
ROOT
HETATM    1  N   UNL     1     -42.919  55.818 -53.383  1.00  0.00    -0.063 N 
HETATM    2  H   UNL     1     -43.640  56.375 -53.867  1.00  0.00     0.280 HD
HETATM    3  C   UNL     1     -43.301  55.802 -51.930  1.00  0.00     0.270 C 
ENDROOT
BRANCH   1   4
HETATM    4  C   UNL     1     -41.591  56.495 -53.592  1.00  0.00     0.277 C 
BRANCH   4   5
HETATM    5  C   UNL     1     -41.690  57.858 -54.164  1.00  0.00     0.018 A 
HETATM    6  C   UNL     1     -41.337  59.093 -53.552  1.00  0.00     0.120 A 
HETATM    7  N   UNL     1     -41.568  60.130 -54.365  1.00  0.00    -0.172 NA
HETATM    8  N   UNL     1     -42.089  59.585 -55.471  1.00  0.00    -0.288 N 
HETATM    9  H   UNL     1     -42.370  60.204 -56.228  1.00  0.00     0.188 HD
HETATM   10  C   UNL     1     -42.159  58.221 -55.413  1.00  0.00     0.120 A 
BRANCH   6  11
HETATM   11  C   UNL     1     -40.746  59.275 -52.191  1.00  0.00     0.106 A 
HETATM   12  O   UNL     1     -39.404  59.387 -51.934  1.00  0.00    -0.313 OA
HETATM   13  C   UNL     1     -39.258  59.517 -50.584  1.00  0.00     0.050 A 
HETATM   14  C   UNL     1     -37.878  59.611 -50.064  1.00  0.00     0.076 C 
HETATM   15  C   UNL     1     -40.491  59.516 -49.972  1.00  0.00     0.035 A 
HETATM   16  C   UNL     1     -41.447  59.369 -51.005  1.00  0.00     0.042 A 
ENDBRANCH   6  11
ENDBRANCH   4   5
ENDBRANCH   1   4
BRANCH   1  17
HETATM   17  C   UNL     1     -43.018  54.422 -54.026  1.00  0.00     0.337 C 
BRANCH  17  18
HETATM   18  C   UNL     1     -41.982  54.262 -55.139  1.00  0.00     0.248 C 
HETATM   19  N   UNL     1     -40.971  53.354 -55.056  1.00  0.00    -0.326 N 
HETATM   20  H   UNL     1     -40.494  53.235 -55.949  1.00  0.00     0.169 HD
HETATM   21  O   UNL     1     -42.117  54.926 -56.174  1.00  0.00    -0.271 OA
BRANCH  19  22
HETATM   22  C   UNL     1     -40.463  52.596 -53.986  1.00  0.00     0.040 A 
HETATM   23  C   UNL     1     -40.319  53.258 -52.759  1.00  0.00     0.072 A 
HETATM   24  C   UNL     1     -39.839  52.576 -51.641  1.00  0.00     0.121 A 
HETATM   25  F   UNL     1     -39.689  53.238 -50.487  1.00  0.00    -0.206 F 
HETATM   26  C   UNL     1     -39.515  51.232 -51.705  1.00  0.00     0.084 A 
HETATM   27  C   UNL     1     -39.683  50.575 -52.912  1.00  0.00     0.121 A 
HETATM   28  F   UNL     1     -39.406  49.268 -52.995  1.00  0.00    -0.206 F 
HETATM   29  C   UNL     1     -40.152  51.238 -54.049  1.00  0.00     0.072 A 
ENDBRANCH  19  22
ENDBRANCH  17  18
ENDBRANCH   1  17
TORSDOF 6
ENDMDL
MODEL 10
REMARK VINA RESULT:      -7.1      2.738      4.756
REMARK  6 active torsions:
REMARK  status: ('A' for Active; 'I' for Inactive)
REMARK    1  A    between atoms: C_4  and  C_5 
REMARK    2  A    between atoms: C_10  and  C_11 
REMARK    3  A    between atoms: C_11  and  N_12 
REMARK    4  A    between atoms: N_12  and  C_14 
REMARK    5  A    between atoms: C_14  and  C_15 
REMARK       I    between atoms: C_15  and  N_16 
REMARK    6  A    between atoms: N_16  and  C_17 
ROOT
HETATM    1  N   UNL     1     -42.109  55.073 -53.831  1.00  0.00    -0.063 N 
HETATM    2  H   UNL     1     -42.539  54.687 -54.685  1.00  0.00     0.280 HD
HETATM    3  C   UNL     1     -40.656  55.289 -54.148  1.00  0.00     0.270 C 
ENDROOT
BRANCH   1   4
HETATM    4  C   UNL     1     -42.282  54.064 -52.727  1.00  0.00     0.277 C 
BRANCH   4   5
HETATM    5  C   UNL     1     -41.343  54.239 -51.595  1.00  0.00     0.018 A 
HETATM    6  C   UNL     1     -40.359  53.325 -51.122  1.00  0.00     0.120 A 
HETATM    7  N   UNL     1     -39.695  53.816 -50.071  1.00  0.00    -0.172 NA
HETATM    8  N   UNL     1     -40.255  55.010 -49.842  1.00  0.00    -0.288 N 
HETATM    9  H   UNL     1     -39.918  55.560 -49.055  1.00  0.00     0.188 HD
HETATM   10  C   UNL     1     -41.232  55.324 -50.745  1.00  0.00     0.120 A 
BRANCH   6  11
HETATM   11  C   UNL     1     -40.034  51.988 -51.705  1.00  0.00     0.106 A 
HETATM   12  O   UNL     1     -39.942  51.725 -53.047  1.00  0.00    -0.313 OA
HETATM   13  C   UNL     1     -39.652  50.399 -53.184  1.00  0.00     0.050 A 
HETATM   14  C   UNL     1     -39.546  49.873 -54.561  1.00  0.00     0.076 C 
HETATM   15  C   UNL     1     -39.532  49.811 -51.945  1.00  0.00     0.035 A 
HETATM   16  C   UNL     1     -39.770  50.833 -50.996  1.00  0.00     0.042 A 
ENDBRANCH   6  11
ENDBRANCH   4   5
ENDBRANCH   1   4
BRANCH   1  17
HETATM   17  C   UNL     1     -42.855  56.398 -53.591  1.00  0.00     0.337 C 
BRANCH  17  18
HETATM   18  C   UNL     1     -42.334  57.491 -54.524  1.00  0.00     0.248 C 
HETATM   19  N   UNL     1     -41.562  58.516 -54.071  1.00  0.00    -0.326 N 
HETATM   20  H   UNL     1     -41.139  59.040 -54.837  1.00  0.00     0.169 HD
HETATM   21  O   UNL     1     -42.562  57.393 -55.736  1.00  0.00    -0.271 OA
BRANCH  19  22
HETATM   22  C   UNL     1     -41.274  58.987 -52.777  1.00  0.00     0.040 A 
HETATM   23  C   UNL     1     -39.966  58.791 -52.314  1.00  0.00     0.072 A 
HETATM   24  C   UNL     1     -39.590  59.243 -51.049  1.00  0.00     0.121 A 
HETATM   25  F   UNL     1     -38.340  59.022 -50.621  1.00  0.00    -0.206 F 
HETATM   26  C   UNL     1     -40.483  59.912 -50.232  1.00  0.00     0.084 A 
HETATM   27  C   UNL     1     -41.768  60.127 -50.703  1.00  0.00     0.121 A 
HETATM   28  F   UNL     1     -42.644  60.798 -49.945  1.00  0.00    -0.206 F 
HETATM   29  C   UNL     1     -42.172  59.675 -51.962  1.00  0.00     0.072 A 
ENDBRANCH  19  22
ENDBRANCH  17  18
ENDBRANCH   1  17
TORSDOF 6
ENDMDL
