MODEL 1
REMARK VINA RESULT:      -8.1      0.000      0.000
REMARK  6 active torsions:
REMARK  status: ('A' for Active; 'I' for Inactive)
REMARK    1  A    between atoms: C_2  and  N_3 
REMARK    2  A    between atoms: C_2  and  C_25 
REMARK    3  A    between atoms: C_7  and  N_8 
REMARK       I    between atoms: N_8  and  C_9 
REMARK       I    between atoms: C_9  and  N_10 
REMARK    4  A    between atoms: N_10  and  C_11 
REMARK    5  A    between atoms: C_11  and  C_12 
REMARK    6  A    between atoms: C_20  and  O_21 
ROOT
HETATM    1  N   UNL     1     -44.165  58.382 -57.595  1.00  0.00    -0.293 N 
HETATM    2  C   UNL     1     -44.555  57.917 -56.326  1.00  0.00     0.322 C 
HETATM    3  N   UNL     1     -44.028  56.749 -55.872  1.00  0.00    -0.337 N 
HETATM    4  O   UNL     1     -45.289  58.677 -55.721  1.00  0.00    -0.247 OA
HETATM    5  H   UNL     1     -44.534  59.312 -57.748  1.00  0.00     0.172 HD
HETATM    6  H   UNL     1     -43.261  56.378 -56.403  1.00  0.00     0.164 HD
ENDROOT
BRANCH   3   7
HETATM    7  C   UNL     1     -43.927  56.482 -54.450  1.00  0.00     0.181 C 
BRANCH   7   8
HETATM    8  C   UNL     1     -43.160  55.261 -54.071  1.00  0.00     0.028 A 
HETATM    9  N   UNL     1     -42.664  55.024 -52.809  1.00  0.00    -0.357 N 
HETATM   10  H   UNL     1     -42.814  55.622 -52.006  1.00  0.00     0.166 HD
HETATM   11  C   UNL     1     -41.782  53.972 -52.811  1.00  0.00     0.043 A 
HETATM   12  C   UNL     1     -41.738  53.479 -54.109  1.00  0.00    -0.005 A 
HETATM   13  C   UNL     1     -41.002  53.455 -51.773  1.00  0.00     0.033 A 
HETATM   14  C   UNL     1     -42.650  54.258 -54.880  1.00  0.00     0.040 A 
HETATM   15  C   UNL     1     -40.842  52.431 -54.399  1.00  0.00     0.050 A 
HETATM   16  C   UNL     1     -40.003  51.936 -53.389  1.00  0.00     0.069 A 
HETATM   17  C   UNL     1     -40.106  52.427 -52.087  1.00  0.00     0.039 A 
BRANCH  16  18
HETATM   18  O   UNL     1     -39.122  50.968 -53.796  1.00  0.00    -0.356 OA
HETATM   19  C   UNL     1     -39.698  49.824 -54.420  1.00  0.00     0.210 C 
ENDBRANCH  16  18
ENDBRANCH   7   8
ENDBRANCH   3   7
BRANCH   1  20
HETATM   20  C   UNL     1     -43.369  57.842 -58.582  1.00  0.00     0.129 A 
HETATM   21  N   UNL     1     -43.714  56.773 -59.389  1.00  0.00    -0.249 N 
HETATM   22  N   UNL     1     -42.734  56.439 -60.254  1.00  0.00    -0.183 NA
HETATM   23  C   UNL     1     -41.740  57.279 -59.965  1.00  0.00     0.142 A 
HETATM   24  C   UNL     1     -42.078  58.171 -58.929  1.00  0.00     0.071 A 
BRANCH  21  25
HETATM   25  C   UNL     1     -44.988  56.050 -59.481  1.00  0.00     0.111 C 
HETATM   26  C   UNL     1     -44.847  54.634 -60.055  1.00  0.00     0.035 C 
BRANCH  25  27
HETATM   27  C   UNL     1     -46.118  56.908 -60.120  1.00  0.00     0.002 C 
HETATM   28  C   UNL     1     -46.977  56.169 -61.151  1.00  0.00     0.011 C 
HETATM   29  C   UNL     1     -47.035  57.518 -59.053  1.00  0.00     0.011 C 
ENDBRANCH  25  27
ENDBRANCH  21  25
ENDBRANCH   1  20
TORSDOF 6
ENDMDL
MODEL 2
REMARK VINA RESULT:      -7.8      0.929      1.471
REMARK  6 active torsions:
REMARK  status: ('A' for Active; 'I' for Inactive)
REMARK    1  A    between atoms: C_2  and  N_3 
REMARK    2  A    between atoms: C_2  and  C_25 
REMARK    3  A    between atoms: C_7  and  N_8 
REMARK       I    between atoms: N_8  and  C_9 
REMARK       I    between atoms: C_9  and  N_10 
REMARK    4  A    between atoms: N_10  and  C_11 
REMARK    5  A    between atoms: C_11  and  C_12 
REMARK    6  A    between atoms: C_20  and  O_21 
ROOT
HETATM    1  N   UNL     1     -44.013  58.223 -57.408  1.00  0.00    -0.293 N 
HETATM    2  C   UNL     1     -44.364  57.675 -56.160  1.00  0.00     0.322 C 
HETATM    3  N   UNL     1     -43.825  56.481 -55.800  1.00  0.00    -0.337 N 
HETATM    4  O   UNL     1     -45.078  58.394 -55.484  1.00  0.00    -0.247 OA
HETATM    5  H   UNL     1     -44.385  59.161 -57.488  1.00  0.00     0.172 HD
HETATM    6  H   UNL     1     -43.076  56.145 -56.379  1.00  0.00     0.164 HD
ENDROOT
BRANCH   3   7
HETATM    7  C   UNL     1     -43.680  56.121 -54.403  1.00  0.00     0.181 C 
BRANCH   7   8
HETATM    8  C   UNL     1     -42.554  55.197 -54.083  1.00  0.00     0.028 A 
HETATM    9  N   UNL     1     -42.122  54.191 -54.917  1.00  0.00    -0.357 N 
HETATM   10  H   UNL     1     -42.486  54.012 -55.845  1.00  0.00     0.166 HD
HETATM   11  C   UNL     1     -41.266  53.339 -54.267  1.00  0.00     0.043 A 
HETATM   12  C   UNL     1     -41.097  53.835 -52.979  1.00  0.00    -0.005 A 
HETATM   13  C   UNL     1     -40.666  52.159 -54.713  1.00  0.00     0.033 A 
HETATM   14  C   UNL     1     -41.865  55.032 -52.892  1.00  0.00     0.040 A 
HETATM   15  C   UNL     1     -40.313  53.094 -52.073  1.00  0.00     0.050 A 
HETATM   16  C   UNL     1     -39.750  51.874 -52.477  1.00  0.00     0.069 A 
HETATM   17  C   UNL     1     -39.905  51.431 -53.791  1.00  0.00     0.039 A 
BRANCH  16  18
HETATM   18  O   UNL     1     -39.067  51.203 -51.497  1.00  0.00    -0.356 OA
HETATM   19  C   UNL     1     -39.786  50.170 -50.830  1.00  0.00     0.210 C 
ENDBRANCH  16  18
ENDBRANCH   7   8
ENDBRANCH   3   7
BRANCH   1  20
HETATM   20  C   UNL     1     -43.249  57.749 -58.452  1.00  0.00     0.129 A 
HETATM   21  N   UNL     1     -43.618  56.730 -59.312  1.00  0.00    -0.249 N 
HETATM   22  N   UNL     1     -42.666  56.456 -60.228  1.00  0.00    -0.183 NA
HETATM   23  C   UNL     1     -41.666  57.281 -59.921  1.00  0.00     0.142 A 
HETATM   24  C   UNL     1     -41.972  58.106 -58.822  1.00  0.00     0.071 A 
BRANCH  21  25
HETATM   25  C   UNL     1     -44.892  56.007 -59.405  1.00  0.00     0.111 C 
HETATM   26  C   UNL     1     -44.755  54.605 -60.015  1.00  0.00     0.035 C 
BRANCH  25  27
HETATM   27  C   UNL     1     -46.031  56.878 -60.010  1.00  0.00     0.002 C 
HETATM   28  C   UNL     1     -46.888  56.169 -61.063  1.00  0.00     0.011 C 
HETATM   29  C   UNL     1     -46.948  57.443 -58.919  1.00  0.00     0.011 C 
ENDBRANCH  25  27
ENDBRANCH  21  25
ENDBRANCH   1  20
TORSDOF 6
ENDMDL
MODEL 3
REMARK VINA RESULT:      -7.8      1.429      2.108
REMARK  6 active torsions:
REMARK  status: ('A' for Active; 'I' for Inactive)
REMARK    1  A    between atoms: C_2  and  N_3 
REMARK    2  A    between atoms: C_2  and  C_25 
REMARK    3  A    between atoms: C_7  and  N_8 
REMARK       I    between atoms: N_8  and  C_9 
REMARK       I    between atoms: C_9  and  N_10 
REMARK    4  A    between atoms: N_10  and  C_11 
REMARK    5  A    between atoms: C_11  and  C_12 
REMARK    6  A    between atoms: C_20  and  O_21 
ROOT
HETATM    1  N   UNL     1     -43.096  56.988 -57.903  1.00  0.00    -0.293 N 
HETATM    2  C   UNL     1     -43.183  57.247 -56.523  1.00  0.00     0.322 C 
HETATM    3  N   UNL     1     -44.220  56.714 -55.826  1.00  0.00    -0.337 N 
HETATM    4  O   UNL     1     -42.243  57.880 -56.076  1.00  0.00    -0.247 OA
HETATM    5  H   UNL     1     -42.218  57.339 -58.264  1.00  0.00     0.172 HD
HETATM    6  H   UNL     1     -44.767  56.027 -56.311  1.00  0.00     0.164 HD
ENDROOT
BRANCH   3   7
HETATM    7  C   UNL     1     -44.107  56.462 -54.402  1.00  0.00     0.181 C 
BRANCH   7   8
HETATM    8  C   UNL     1     -43.299  55.270 -54.016  1.00  0.00     0.028 A 
HETATM    9  N   UNL     1     -42.753  55.081 -52.766  1.00  0.00    -0.357 N 
HETATM   10  H   UNL     1     -42.888  55.700 -51.976  1.00  0.00     0.166 HD
HETATM   11  C   UNL     1     -41.847  54.050 -52.769  1.00  0.00     0.043 A 
HETATM   12  C   UNL     1     -41.838  53.519 -54.054  1.00  0.00    -0.005 A 
HETATM   13  C   UNL     1     -41.019  53.582 -51.746  1.00  0.00     0.033 A 
HETATM   14  C   UNL     1     -42.794  54.254 -54.813  1.00  0.00     0.040 A 
HETATM   15  C   UNL     1     -40.928  52.484 -54.345  1.00  0.00     0.050 A 
HETATM   16  C   UNL     1     -40.043  52.038 -53.352  1.00  0.00     0.069 A 
HETATM   17  C   UNL     1     -40.111  52.565 -52.062  1.00  0.00     0.039 A 
BRANCH  16  18
HETATM   18  O   UNL     1     -39.155  51.078 -53.763  1.00  0.00    -0.356 OA
HETATM   19  C   UNL     1     -39.719  49.948 -54.421  1.00  0.00     0.210 C 
ENDBRANCH  16  18
ENDBRANCH   7   8
ENDBRANCH   3   7
BRANCH   1  20
HETATM   20  C   UNL     1     -43.928  56.330 -58.782  1.00  0.00     0.129 A 
HETATM   21  N   UNL     1     -45.159  56.791 -59.213  1.00  0.00    -0.249 N 
HETATM   22  N   UNL     1     -45.770  55.931 -60.054  1.00  0.00    -0.183 NA
HETATM   23  C   UNL     1     -44.936  54.894 -60.126  1.00  0.00     0.142 A 
HETATM   24  C   UNL     1     -43.776  55.085 -59.351  1.00  0.00     0.071 A 
BRANCH  21  25
HETATM   25  C   UNL     1     -45.811  58.080 -58.954  1.00  0.00     0.111 C 
HETATM   26  C   UNL     1     -47.051  57.967 -58.055  1.00  0.00     0.035 C 
BRANCH  25  27
HETATM   27  C   UNL     1     -46.013  58.920 -60.248  1.00  0.00     0.002 C 
HETATM   28  C   UNL     1     -47.129  59.966 -60.165  1.00  0.00     0.011 C 
HETATM   29  C   UNL     1     -44.714  59.610 -60.680  1.00  0.00     0.011 C 
ENDBRANCH  25  27
ENDBRANCH  21  25
ENDBRANCH   1  20
TORSDOF 6
ENDMDL
MODEL 4
REMARK VINA RESULT:      -7.7      2.540      3.659
REMARK  6 active torsions:
REMARK  status: ('A' for Active; 'I' for Inactive)
REMARK    1  A    between atoms: C_2  and  N_3 
REMARK    2  A    between atoms: C_2  and  C_25 
REMARK    3  A    between atoms: C_7  and  N_8 
REMARK       I    between atoms: N_8  and  C_9 
REMARK       I    between atoms: C_9  and  N_10 
REMARK    4  A    between atoms: N_10  and  C_11 
REMARK    5  A    between atoms: C_11  and  C_12 
REMARK    6  A    between atoms: C_20  and  O_21 
ROOT
HETATM    1  N   UNL     1     -41.725  59.363 -54.665  1.00  0.00    -0.293 N 
HETATM    2  C   UNL     1     -41.241  59.021 -53.389  1.00  0.00     0.322 C 
HETATM    3  N   UNL     1     -42.094  58.441 -52.505  1.00  0.00    -0.337 N 
HETATM    4  O   UNL     1     -40.048  59.219 -53.240  1.00  0.00    -0.247 OA
HETATM    5  H   UNL     1     -40.959  59.667 -55.253  1.00  0.00     0.172 HD
HETATM    6  H   UNL     1     -42.975  58.138 -52.879  1.00  0.00     0.164 HD
ENDROOT
BRANCH   3   7
HETATM    7  C   UNL     1     -41.596  57.590 -51.441  1.00  0.00     0.181 C 
BRANCH   7   8
HETATM    8  C   UNL     1     -41.407  56.153 -51.792  1.00  0.00     0.028 A 
HETATM    9  N   UNL     1     -40.911  55.207 -50.924  1.00  0.00    -0.357 N 
HETATM   10  H   UNL     1     -40.677  55.377 -49.954  1.00  0.00     0.166 HD
HETATM   11  C   UNL     1     -40.593  54.046 -51.583  1.00  0.00     0.043 A 
HETATM   12  C   UNL     1     -40.938  54.226 -52.917  1.00  0.00    -0.005 A 
HETATM   13  C   UNL     1     -39.997  52.877 -51.102  1.00  0.00     0.033 A 
HETATM   14  C   UNL     1     -41.501  55.531 -53.027  1.00  0.00     0.040 A 
HETATM   15  C   UNL     1     -40.643  53.196 -53.832  1.00  0.00     0.050 A 
HETATM   16  C   UNL     1     -39.988  52.038 -53.385  1.00  0.00     0.069 A 
HETATM   17  C   UNL     1     -39.697  51.875 -52.031  1.00  0.00     0.039 A 
BRANCH  16  18
HETATM   18  O   UNL     1     -39.686  51.133 -54.370  1.00  0.00    -0.356 OA
HETATM   19  C   UNL     1     -39.923  49.765 -54.053  1.00  0.00     0.210 C 
ENDBRANCH  16  18
ENDBRANCH   7   8
ENDBRANCH   3   7
BRANCH   1  20
HETATM   20  C   UNL     1     -42.980  59.305 -55.232  1.00  0.00     0.129 A 
HETATM   21  N   UNL     1     -43.307  58.600 -56.376  1.00  0.00    -0.249 N 
HETATM   22  N   UNL     1     -44.604  58.740 -56.718  1.00  0.00    -0.183 NA
HETATM   23  C   UNL     1     -45.097  59.577 -55.804  1.00  0.00     0.142 A 
HETATM   24  C   UNL     1     -44.129  59.964 -54.858  1.00  0.00     0.071 A 
BRANCH  21  25
HETATM   25  C   UNL     1     -42.479  57.687 -57.174  1.00  0.00     0.111 C 
HETATM   26  C   UNL     1     -41.862  58.350 -58.413  1.00  0.00     0.035 C 
BRANCH  25  27
HETATM   27  C   UNL     1     -43.179  56.323 -57.439  1.00  0.00     0.002 C 
HETATM   28  C   UNL     1     -43.096  55.832 -58.888  1.00  0.00     0.011 C 
HETATM   29  C   UNL     1     -42.645  55.226 -56.510  1.00  0.00     0.011 C 
ENDBRANCH  25  27
ENDBRANCH  21  25
ENDBRANCH   1  20
TORSDOF 6
ENDMDL
MODEL 5
REMARK VINA RESULT:      -7.5      3.355      7.534
REMARK  6 active torsions:
REMARK  status: ('A' for Active; 'I' for Inactive)
REMARK    1  A    between atoms: C_2  and  N_3 
REMARK    2  A    between atoms: C_2  and  C_25 
REMARK    3  A    between atoms: C_7  and  N_8 
REMARK       I    between atoms: N_8  and  C_9 
REMARK       I    between atoms: C_9  and  N_10 
REMARK    4  A    between atoms: N_10  and  C_11 
REMARK    5  A    between atoms: C_11  and  C_12 
REMARK    6  A    between atoms: C_20  and  O_21 
ROOT
HETATM    1  N   UNL     1     -42.597  56.526 -50.729  1.00  0.00    -0.293 N 
HETATM    2  C   UNL     1     -42.556  57.777 -51.372  1.00  0.00     0.322 C 
HETATM    3  N   UNL     1     -41.411  58.146 -52.003  1.00  0.00    -0.337 N 
HETATM    4  O   UNL     1     -43.615  58.379 -51.357  1.00  0.00    -0.247 OA
HETATM    5  H   UNL     1     -43.539  56.333 -50.414  1.00  0.00     0.172 HD
HETATM    6  H   UNL     1     -40.720  57.427 -52.115  1.00  0.00     0.164 HD
ENDROOT
BRANCH   3   7
HETATM    7  C   UNL     1     -41.439  59.093 -53.101  1.00  0.00     0.181 C 
BRANCH   7   8
HETATM    8  C   UNL     1     -42.000  58.583 -54.385  1.00  0.00     0.028 A 
HETATM    9  N   UNL     1     -42.355  57.272 -54.604  1.00  0.00    -0.357 N 
HETATM   10  H   UNL     1     -42.323  56.539 -53.906  1.00  0.00     0.166 HD
HETATM   11  C   UNL     1     -42.583  57.033 -55.936  1.00  0.00     0.043 A 
HETATM   12  C   UNL     1     -42.416  58.242 -56.601  1.00  0.00    -0.005 A 
HETATM   13  C   UNL     1     -42.885  55.838 -56.594  1.00  0.00     0.033 A 
HETATM   14  C   UNL     1     -42.106  59.221 -55.612  1.00  0.00     0.040 A 
HETATM   15  C   UNL     1     -42.523  58.255 -58.006  1.00  0.00     0.050 A 
HETATM   16  C   UNL     1     -42.764  57.057 -58.695  1.00  0.00     0.069 A 
HETATM   17  C   UNL     1     -42.969  55.871 -57.990  1.00  0.00     0.039 A 
BRANCH  16  18
HETATM   18  O   UNL     1     -42.779  57.173 -60.061  1.00  0.00    -0.356 OA
HETATM   19  C   UNL     1     -42.126  58.320 -60.596  1.00  0.00     0.210 C 
ENDBRANCH  16  18
ENDBRANCH   7   8
ENDBRANCH   3   7
BRANCH   1  20
HETATM   20  C   UNL     1     -41.642  55.556 -50.518  1.00  0.00     0.129 A 
HETATM   21  N   UNL     1     -41.226  54.628 -51.455  1.00  0.00    -0.249 N 
HETATM   22  N   UNL     1     -40.295  53.781 -50.969  1.00  0.00    -0.183 NA
HETATM   23  C   UNL     1     -40.149  54.149 -49.696  1.00  0.00     0.142 A 
HETATM   24  C   UNL     1     -40.966  55.245 -49.359  1.00  0.00     0.071 A 
BRANCH  21  25
HETATM   25  C   UNL     1     -41.586  54.514 -52.874  1.00  0.00     0.111 C 
HETATM   26  C   UNL     1     -43.044  54.091 -53.101  1.00  0.00     0.035 C 
BRANCH  25  27
HETATM   27  C   UNL     1     -40.535  53.714 -53.696  1.00  0.00     0.002 C 
HETATM   28  C   UNL     1     -41.010  52.339 -54.176  1.00  0.00     0.011 C 
HETATM   29  C   UNL     1     -40.031  54.517 -54.901  1.00  0.00     0.011 C 
ENDBRANCH  25  27
ENDBRANCH  21  25
ENDBRANCH   1  20
TORSDOF 6
ENDMDL
MODEL 6
REMARK VINA RESULT:      -7.4      3.246      7.481
REMARK  6 active torsions:
REMARK  status: ('A' for Active; 'I' for Inactive)
REMARK    1  A    between atoms: C_2  and  N_3 
REMARK    2  A    between atoms: C_2  and  C_25 
REMARK    3  A    between atoms: C_7  and  N_8 
REMARK       I    between atoms: N_8  and  C_9 
REMARK       I    between atoms: C_9  and  N_10 
REMARK    4  A    between atoms: N_10  and  C_11 
REMARK    5  A    between atoms: C_11  and  C_12 
REMARK    6  A    between atoms: C_20  and  O_21 
ROOT
HETATM    1  N   UNL     1     -42.961  55.280 -50.764  1.00  0.00    -0.293 N 
HETATM    2  C   UNL     1     -43.401  56.602 -50.963  1.00  0.00     0.322 C 
HETATM    3  N   UNL     1     -42.479  57.600 -50.959  1.00  0.00    -0.337 N 
HETATM    4  O   UNL     1     -44.591  56.700 -51.200  1.00  0.00    -0.247 OA
HETATM    5  H   UNL     1     -43.728  54.637 -50.915  1.00  0.00     0.172 HD
HETATM    6  H   UNL     1     -41.518  57.310 -50.983  1.00  0.00     0.164 HD
ENDROOT
BRANCH   3   7
HETATM    7  C   UNL     1     -42.725  58.842 -51.667  1.00  0.00     0.181 C 
BRANCH   7   8
HETATM    8  C   UNL     1     -42.868  58.729 -53.146  1.00  0.00     0.028 A 
HETATM    9  N   UNL     1     -44.078  58.659 -53.800  1.00  0.00    -0.357 N 
HETATM   10  H   UNL     1     -44.983  58.730 -53.352  1.00  0.00     0.166 HD
HETATM   11  C   UNL     1     -43.913  58.293 -55.112  1.00  0.00     0.043 A 
HETATM   12  C   UNL     1     -42.547  58.166 -55.332  1.00  0.00    -0.005 A 
HETATM   13  C   UNL     1     -44.871  58.032 -56.096  1.00  0.00     0.033 A 
HETATM   14  C   UNL     1     -41.897  58.497 -54.108  1.00  0.00     0.040 A 
HETATM   15  C   UNL     1     -42.110  57.722 -56.596  1.00  0.00     0.050 A 
HETATM   16  C   UNL     1     -43.053  57.394 -57.582  1.00  0.00     0.069 A 
HETATM   17  C   UNL     1     -44.414  57.575 -57.338  1.00  0.00     0.039 A 
BRANCH  16  18
HETATM   18  O   UNL     1     -42.521  56.906 -58.747  1.00  0.00    -0.356 OA
HETATM   19  C   UNL     1     -43.235  55.837 -59.359  1.00  0.00     0.210 C 
ENDBRANCH  16  18
ENDBRANCH   7   8
ENDBRANCH   3   7
BRANCH   1  20
HETATM   20  C   UNL     1     -41.727  54.742 -50.472  1.00  0.00     0.129 A 
HETATM   21  N   UNL     1     -40.994  53.924 -51.312  1.00  0.00    -0.249 N 
HETATM   22  N   UNL     1     -39.830  53.523 -50.759  1.00  0.00    -0.183 NA
HETATM   23  C   UNL     1     -39.844  54.059 -49.539  1.00  0.00     0.142 A 
HETATM   24  C   UNL     1     -41.002  54.824 -49.304  1.00  0.00     0.071 A 
BRANCH  21  25
HETATM   25  C   UNL     1     -41.268  53.531 -52.699  1.00  0.00     0.111 C 
HETATM   26  C   UNL     1     -40.333  52.431 -53.218  1.00  0.00     0.035 C 
BRANCH  25  27
HETATM   27  C   UNL     1     -41.431  54.755 -53.647  1.00  0.00     0.002 C 
HETATM   28  C   UNL     1     -40.339  54.889 -54.712  1.00  0.00     0.011 C 
HETATM   29  C   UNL     1     -42.801  54.758 -54.334  1.00  0.00     0.011 C 
ENDBRANCH  25  27
ENDBRANCH  21  25
ENDBRANCH   1  20
TORSDOF 6
ENDMDL
MODEL 7
REMARK VINA RESULT:      -7.4      4.140      8.381
REMARK  6 active torsions:
REMARK  status: ('A' for Active; 'I' for Inactive)
REMARK    1  A    between atoms: C_2  and  N_3 
REMARK    2  A    between atoms: C_2  and  C_25 
REMARK    3  A    between atoms: C_7  and  N_8 
REMARK       I    between atoms: N_8  and  C_9 
REMARK       I    between atoms: C_9  and  N_10 
REMARK    4  A    between atoms: N_10  and  C_11 
REMARK    5  A    between atoms: C_11  and  C_12 
REMARK    6  A    between atoms: C_20  and  O_21 
ROOT
HETATM    1  N   UNL     1     -39.590  52.921 -53.478  1.00  0.00    -0.293 N 
HETATM    2  C   UNL     1     -40.424  53.408 -54.502  1.00  0.00     0.322 C 
HETATM    3  N   UNL     1     -41.759  53.169 -54.420  1.00  0.00    -0.337 N 
HETATM    4  O   UNL     1     -39.845  54.078 -55.338  1.00  0.00    -0.247 OA
HETATM    5  H   UNL     1     -38.650  53.276 -53.603  1.00  0.00     0.172 HD
HETATM    6  H   UNL     1     -42.087  52.805 -53.544  1.00  0.00     0.164 HD
ENDROOT
BRANCH   3   7
HETATM    7  C   UNL     1     -42.712  54.046 -55.074  1.00  0.00     0.181 C 
BRANCH   7   8
HETATM    8  C   UNL     1     -42.777  55.440 -54.550  1.00  0.00     0.028 A 
HETATM    9  N   UNL     1     -41.713  56.314 -54.550  1.00  0.00    -0.357 N 
HETATM   10  H   UNL     1     -40.803  56.118 -54.950  1.00  0.00     0.166 HD
HETATM   11  C   UNL     1     -41.975  57.416 -53.776  1.00  0.00     0.043 A 
HETATM   12  C   UNL     1     -43.271  57.278 -53.294  1.00  0.00    -0.005 A 
HETATM   13  C   UNL     1     -41.149  58.494 -53.443  1.00  0.00     0.033 A 
HETATM   14  C   UNL     1     -43.786  56.063 -53.832  1.00  0.00     0.040 A 
HETATM   15  C   UNL     1     -43.762  58.252 -52.402  1.00  0.00     0.050 A 
HETATM   16  C   UNL     1     -42.932  59.311 -52.004  1.00  0.00     0.069 A 
HETATM   17  C   UNL     1     -41.652  59.440 -52.543  1.00  0.00     0.039 A 
BRANCH  16  18
HETATM   18  O   UNL     1     -43.487  60.160 -51.082  1.00  0.00    -0.356 OA
HETATM   19  C   UNL     1     -42.618  61.156 -50.550  1.00  0.00     0.210 C 
ENDBRANCH  16  18
ENDBRANCH   7   8
ENDBRANCH   3   7
BRANCH   1  20
HETATM   20  C   UNL     1     -39.834  52.137 -52.371  1.00  0.00     0.129 A 
HETATM   21  N   UNL     1     -40.008  52.608 -51.082  1.00  0.00    -0.249 N 
HETATM   22  N   UNL     1     -40.208  51.616 -50.191  1.00  0.00    -0.183 NA
HETATM   23  C   UNL     1     -40.119  50.501 -50.915  1.00  0.00     0.142 A 
HETATM   24  C   UNL     1     -39.882  50.765 -52.277  1.00  0.00     0.071 A 
BRANCH  21  25
HETATM   25  C   UNL     1     -40.090  53.993 -50.602  1.00  0.00     0.111 C 
HETATM   26  C   UNL     1     -39.823  54.133 -49.097  1.00  0.00     0.035 C 
BRANCH  25  27
HETATM   27  C   UNL     1     -41.361  54.730 -51.114  1.00  0.00     0.002 C 
HETATM   28  C   UNL     1     -42.648  53.901 -51.057  1.00  0.00     0.011 C 
HETATM   29  C   UNL     1     -41.586  56.051 -50.369  1.00  0.00     0.011 C 
ENDBRANCH  25  27
ENDBRANCH  21  25
ENDBRANCH   1  20
TORSDOF 6
ENDMDL
MODEL 8
REMARK VINA RESULT:      -7.3      1.749      2.986
REMARK  6 active torsions:
REMARK  status: ('A' for Active; 'I' for Inactive)
REMARK    1  A    between atoms: C_2  and  N_3 
REMARK    2  A    between atoms: C_2  and  C_25 
REMARK    3  A    between atoms: C_7  and  N_8 
REMARK       I    between atoms: N_8  and  C_9 
REMARK       I    between atoms: C_9  and  N_10 
REMARK    4  A    between atoms: N_10  and  C_11 
REMARK    5  A    between atoms: C_11  and  C_12 
REMARK    6  A    between atoms: C_20  and  O_21 
ROOT
HETATM    1  N   UNL     1     -44.449  57.599 -57.114  1.00  0.00    -0.293 N 
HETATM    2  C   UNL     1     -44.527  57.225 -55.759  1.00  0.00     0.322 C 
HETATM    3  N   UNL     1     -43.804  56.155 -55.338  1.00  0.00    -0.337 N 
HETATM    4  O   UNL     1     -45.199  57.976 -55.074  1.00  0.00    -0.247 OA
HETATM    5  H   UNL     1     -44.933  58.476 -57.256  1.00  0.00     0.172 HD
HETATM    6  H   UNL     1     -43.126  55.800 -55.987  1.00  0.00     0.164 HD
ENDROOT
BRANCH   3   7
HETATM    7  C   UNL     1     -43.394  56.034 -53.952  1.00  0.00     0.181 C 
BRANCH   7   8
HETATM    8  C   UNL     1     -42.307  55.050 -53.680  1.00  0.00     0.028 A 
HETATM    9  N   UNL     1     -41.873  54.110 -54.588  1.00  0.00    -0.357 N 
HETATM   10  H   UNL     1     -42.207  54.028 -55.540  1.00  0.00     0.166 HD
HETATM   11  C   UNL     1     -41.066  53.176 -53.989  1.00  0.00     0.043 A 
HETATM   12  C   UNL     1     -40.932  53.546 -52.656  1.00  0.00    -0.005 A 
HETATM   13  C   UNL     1     -40.484  52.022 -54.521  1.00  0.00     0.033 A 
HETATM   14  C   UNL     1     -41.668  54.755 -52.486  1.00  0.00     0.040 A 
HETATM   15  C   UNL     1     -40.204  52.702 -51.795  1.00  0.00     0.050 A 
HETATM   16  C   UNL     1     -39.661  51.506 -52.291  1.00  0.00     0.069 A 
HETATM   17  C   UNL     1     -39.780  51.190 -53.644  1.00  0.00     0.039 A 
BRANCH  16  18
HETATM   18  O   UNL     1     -39.034  50.728 -51.353  1.00  0.00    -0.356 OA
HETATM   19  C   UNL     1     -39.825  49.698 -50.768  1.00  0.00     0.210 C 
ENDBRANCH  16  18
ENDBRANCH   7   8
ENDBRANCH   3   7
BRANCH   1  20
HETATM   20  C   UNL     1     -43.816  57.036 -58.200  1.00  0.00     0.129 A 
HETATM   21  N   UNL     1     -43.381  57.727 -59.316  1.00  0.00    -0.249 N 
HETATM   22  N   UNL     1     -42.816  56.920 -60.238  1.00  0.00    -0.183 NA
HETATM   23  C   UNL     1     -42.931  55.698 -59.720  1.00  0.00     0.142 A 
HETATM   24  C   UNL     1     -43.550  55.709 -58.455  1.00  0.00     0.071 A 
BRANCH  21  25
HETATM   25  C   UNL     1     -43.374  59.173 -59.570  1.00  0.00     0.111 C 
HETATM   26  C   UNL     1     -44.019  59.560 -60.908  1.00  0.00     0.035 C 
BRANCH  25  27
HETATM   27  C   UNL     1     -41.986  59.822 -59.299  1.00  0.00     0.002 C 
HETATM   28  C   UNL     1     -41.684  61.063 -60.143  1.00  0.00     0.011 C 
HETATM   29  C   UNL     1     -41.807  60.171 -57.817  1.00  0.00     0.011 C 
ENDBRANCH  25  27
ENDBRANCH  21  25
ENDBRANCH   1  20
TORSDOF 6
ENDMDL
MODEL 9
REMARK VINA RESULT:      -7.2      1.936      3.270
REMARK  6 active torsions:
REMARK  status: ('A' for Active; 'I' for Inactive)
REMARK    1  A    between atoms: C_2  and  N_3 
REMARK    2  A    between atoms: C_2  and  C_25 
REMARK    3  A    between atoms: C_7  and  N_8 
REMARK       I    between atoms: N_8  and  C_9 
REMARK       I    between atoms: C_9  and  N_10 
REMARK    4  A    between atoms: N_10  and  C_11 
REMARK    5  A    between atoms: C_11  and  C_12 
REMARK    6  A    between atoms: C_20  and  O_21 
ROOT
HETATM    1  N   UNL     1     -44.658  56.972 -55.508  1.00  0.00    -0.293 N 
HETATM    2  C   UNL     1     -43.827  56.330 -54.572  1.00  0.00     0.322 C 
HETATM    3  N   UNL     1     -42.845  57.052 -53.972  1.00  0.00    -0.337 N 
HETATM    4  O   UNL     1     -44.140  55.176 -54.337  1.00  0.00    -0.247 OA
HETATM    5  H   UNL     1     -45.413  56.354 -55.777  1.00  0.00     0.172 HD
HETATM    6  H   UNL     1     -42.883  58.045 -54.112  1.00  0.00     0.164 HD
ENDROOT
BRANCH   3   7
HETATM    7  C   UNL     1     -42.332  56.673 -52.670  1.00  0.00     0.181 C 
BRANCH   7   8
HETATM    8  C   UNL     1     -41.448  55.472 -52.644  1.00  0.00     0.028 A 
HETATM    9  N   UNL     1     -41.112  54.738 -53.759  1.00  0.00    -0.357 N 
HETATM   10  H   UNL     1     -41.385  54.968 -54.707  1.00  0.00     0.166 HD
HETATM   11  C   UNL     1     -40.518  53.551 -53.413  1.00  0.00     0.043 A 
HETATM   12  C   UNL     1     -40.422  53.532 -52.027  1.00  0.00    -0.005 A 
HETATM   13  C   UNL     1     -40.100  52.489 -54.220  1.00  0.00     0.033 A 
HETATM   14  C   UNL     1     -40.955  54.767 -51.557  1.00  0.00     0.040 A 
HETATM   15  C   UNL     1     -39.909  52.376 -51.406  1.00  0.00     0.050 A 
HETATM   16  C   UNL     1     -39.540  51.272 -52.190  1.00  0.00     0.069 A 
HETATM   17  C   UNL     1     -39.610  51.345 -53.581  1.00  0.00     0.039 A 
BRANCH  16  18
HETATM   18  O   UNL     1     -39.121  50.177 -51.480  1.00  0.00    -0.356 OA
HETATM   19  C   UNL     1     -39.991  49.738 -50.441  1.00  0.00     0.210 C 
ENDBRANCH  16  18
ENDBRANCH   7   8
ENDBRANCH   3   7
BRANCH   1  20
HETATM   20  C   UNL     1     -44.649  58.240 -56.047  1.00  0.00     0.129 A 
HETATM   21  N   UNL     1     -43.902  58.637 -57.140  1.00  0.00    -0.249 N 
HETATM   22  N   UNL     1     -44.069  59.942 -57.436  1.00  0.00    -0.183 NA
HETATM   23  C   UNL     1     -44.901  60.389 -56.495  1.00  0.00     0.142 A 
HETATM   24  C   UNL     1     -45.291  59.374 -55.601  1.00  0.00     0.071 A 
BRANCH  21  25
HETATM   25  C   UNL     1     -43.059  57.831 -58.033  1.00  0.00     0.111 C 
HETATM   26  C   UNL     1     -41.947  58.639 -58.715  1.00  0.00     0.035 C 
BRANCH  25  27
HETATM   27  C   UNL     1     -43.892  56.926 -58.986  1.00  0.00     0.002 C 
HETATM   28  C   UNL     1     -44.597  57.672 -60.123  1.00  0.00     0.011 C 
HETATM   29  C   UNL     1     -43.039  55.800 -59.582  1.00  0.00     0.011 C 
ENDBRANCH  25  27
ENDBRANCH  21  25
ENDBRANCH   1  20
TORSDOF 6
ENDMDL
MODEL 10
REMARK VINA RESULT:      -7.2     15.315     17.772
REMARK  6 active torsions:
REMARK  status: ('A' for Active; 'I' for Inactive)
REMARK    1  A    between atoms: C_2  and  N_3 
REMARK    2  A    between atoms: C_2  and  C_25 
REMARK    3  A    between atoms: C_7  and  N_8 
REMARK       I    between atoms: N_8  and  C_9 
REMARK       I    between atoms: C_9  and  N_10 
REMARK    4  A    between atoms: N_10  and  C_11 
REMARK    5  A    between atoms: C_11  and  C_12 
REMARK    6  A    between atoms: C_20  and  O_21 
ROOT
HETATM    1  N   UNL     1     -34.946  41.961 -54.865  1.00  0.00    -0.293 N 
HETATM    2  C   UNL     1     -35.631  41.924 -53.637  1.00  0.00     0.322 C 
HETATM    3  N   UNL     1     -36.054  40.722 -53.165  1.00  0.00    -0.337 N 
HETATM    4  O   UNL     1     -35.703  43.002 -53.075  1.00  0.00    -0.247 OA
HETATM    5  H   UNL     1     -34.585  42.892 -55.029  1.00  0.00     0.172 HD
HETATM    6  H   UNL     1     -35.702  39.914 -53.644  1.00  0.00     0.164 HD
ENDROOT
BRANCH   3   7
HETATM    7  C   UNL     1     -36.253  40.509 -51.744  1.00  0.00     0.181 C 
BRANCH   7   8
HETATM    8  C   UNL     1     -35.073  39.995 -50.992  1.00  0.00     0.028 A 
HETATM    9  N   UNL     1     -35.142  39.028 -50.015  1.00  0.00    -0.357 N 
HETATM   10  H   UNL     1     -35.986  38.535 -49.748  1.00  0.00     0.166 HD
HETATM   11  C   UNL     1     -33.966  38.944 -49.314  1.00  0.00     0.043 A 
HETATM   12  C   UNL     1     -33.085  39.854 -49.884  1.00  0.00    -0.005 A 
HETATM   13  C   UNL     1     -33.639  38.161 -48.204  1.00  0.00     0.033 A 
HETATM   14  C   UNL     1     -33.770  40.468 -50.973  1.00  0.00     0.040 A 
HETATM   15  C   UNL     1     -31.816  40.019 -49.295  1.00  0.00     0.050 A 
HETATM   16  C   UNL     1     -31.485  39.289 -48.143  1.00  0.00     0.069 A 
HETATM   17  C   UNL     1     -32.380  38.353 -47.625  1.00  0.00     0.039 A 
BRANCH  16  18
HETATM   18  O   UNL     1     -30.254  39.578 -47.613  1.00  0.00    -0.356 OA
HETATM   19  C   UNL     1     -30.064  39.221 -46.248  1.00  0.00     0.210 C 
ENDBRANCH  16  18
ENDBRANCH   7   8
ENDBRANCH   3   7
BRANCH   1  20
HETATM   20  C   UNL     1     -34.655  40.991 -55.799  1.00  0.00     0.129 A 
HETATM   21  N   UNL     1     -35.483  40.610 -56.839  1.00  0.00    -0.249 N 
HETATM   22  N   UNL     1     -34.955  39.619 -57.587  1.00  0.00    -0.183 NA
HETATM   23  C   UNL     1     -33.796  39.340 -56.991  1.00  0.00     0.142 A 
HETATM   24  C   UNL     1     -33.560  40.160 -55.871  1.00  0.00     0.071 A 
BRANCH  21  25
HETATM   25  C   UNL     1     -36.765  41.185 -57.265  1.00  0.00     0.111 C 
HETATM   26  C   UNL     1     -37.935  40.816 -56.343  1.00  0.00     0.035 C 
BRANCH  25  27
HETATM   27  C   UNL     1     -37.037  40.982 -58.784  1.00  0.00     0.002 C 
HETATM   28  C   UNL     1     -38.236  40.085 -59.105  1.00  0.00     0.011 C 
HETATM   29  C   UNL     1     -37.208  42.322 -59.509  1.00  0.00     0.011 C 
ENDBRANCH  25  27
ENDBRANCH  21  25
ENDBRANCH   1  20
TORSDOF 6
ENDMDL
