MODEL 1
REMARK VINA RESULT:      -8.3      0.000      0.000
REMARK  3 active torsions:
REMARK  status: ('A' for Active; 'I' for Inactive)
REMARK    1  A    between atoms: C_2  and  O_3 
REMARK    2  A    between atoms: O_3  and  C_4 
REMARK    3  A    between atoms: C_5  and  N_6 
REMARK       I    between atoms: N_6  and  C_7 
REMARK       I    between atoms: C_7  and  N_8 
ROOT
HETATM    1  N   UNL     1     -43.140  57.950 -55.483  1.00  0.00    -0.306 N 
HETATM    2  C   UNL     1     -42.243  57.503 -54.526  1.00  0.00     0.323 C 
HETATM    3  N   UNL     1     -42.559  56.259 -53.992  1.00  0.00    -0.328 N 
HETATM    4  C   UNL     1     -41.846  55.839 -52.781  1.00  0.00     0.185 C 
HETATM    5  C   UNL     1     -41.351  54.452 -52.980  1.00  0.00     0.035 A 
HETATM    6  C   UNL     1     -41.707  53.579 -53.988  1.00  0.00    -0.020 A 
HETATM    7  C   UNL     1     -42.658  53.990 -55.060  1.00  0.00     0.061 C 
HETATM    8  C   UNL     1     -43.440  55.252 -54.624  1.00  0.00     0.132 C 
HETATM    9  N   UNL     1     -40.439  53.830 -52.176  1.00  0.00    -0.357 N 
HETATM   10  H   UNL     1     -39.987  54.240 -51.370  1.00  0.00     0.166 HD
HETATM   11  C   UNL     1     -40.197  52.556 -52.644  1.00  0.00     0.043 A 
HETATM   12  C   UNL     1     -40.985  52.372 -53.785  1.00  0.00    -0.001 A 
HETATM   13  C   UNL     1     -39.338  51.567 -52.150  1.00  0.00     0.030 A 
HETATM   14  C   UNL     1     -39.281  50.354 -52.842  1.00  0.00     0.002 A 
HETATM   15  C   UNL     1     -40.053  50.143 -53.982  1.00  0.00     0.001 A 
HETATM   16  C   UNL     1     -40.908  51.141 -54.464  1.00  0.00     0.014 A 
HETATM   17  O   UNL     1     -41.313  58.178 -54.094  1.00  0.00    -0.247 OA
HETATM   18  H   UNL     1     -44.087  57.779 -55.182  1.00  0.00     0.171 HD
ENDROOT
BRANCH   1  19
HETATM   19  C   UNL     1     -42.929  59.202 -56.118  1.00  0.00     0.069 C 
HETATM   20  C   UNL     1     -42.235  59.319 -57.336  1.00  0.00     0.096 C 
HETATM   21  C   UNL     1     -41.911  60.588 -57.817  1.00  0.00     0.039 C 
HETATM   22  C   UNL     1     -42.365  61.731 -57.156  1.00  0.00     0.003 C 
HETATM   23  C   UNL     1     -43.142  61.611 -56.007  1.00  0.00     0.002 C 
HETATM   24  C   UNL     1     -43.428  60.347 -55.488  1.00  0.00     0.032 C 
BRANCH  20  25
HETATM   25  O   UNL     1     -41.873  58.176 -57.989  1.00  0.00    -0.339 OA
BRANCH  25  26
HETATM   26  C   UNL     1     -42.705  57.633 -59.036  1.00  0.00     0.057 C 
HETATM   27  C   UNL     1     -41.917  57.669 -60.351  1.00  0.00     0.045 C 
HETATM   28  C   UNL     1     -44.099  58.263 -59.213  1.00  0.00     0.045 C 
HETATM   29  C   UNL     1     -42.916  56.160 -58.639  1.00  0.00     0.045 C 
ENDBRANCH  25  26
ENDBRANCH  20  25
ENDBRANCH   1  19
TORSDOF 3
ENDMDL
MODEL 2
REMARK VINA RESULT:      -8.1      2.390      8.378
REMARK  3 active torsions:
REMARK  status: ('A' for Active; 'I' for Inactive)
REMARK    1  A    between atoms: C_2  and  O_3 
REMARK    2  A    between atoms: O_3  and  C_4 
REMARK    3  A    between atoms: C_5  and  N_6 
REMARK       I    between atoms: N_6  and  C_7 
REMARK       I    between atoms: C_7  and  N_8 
ROOT
HETATM    1  N   UNL     1     -41.353  55.213 -54.067  1.00  0.00    -0.306 N 
HETATM    2  C   UNL     1     -42.716  55.454 -54.148  1.00  0.00     0.323 C 
HETATM    3  N   UNL     1     -43.038  56.701 -54.672  1.00  0.00    -0.328 N 
HETATM    4  C   UNL     1     -44.424  57.160 -54.526  1.00  0.00     0.185 C 
HETATM    5  C   UNL     1     -44.900  57.655 -55.844  1.00  0.00     0.035 A 
HETATM    6  C   UNL     1     -44.132  57.914 -56.961  1.00  0.00    -0.020 A 
HETATM    7  C   UNL     1     -42.662  57.669 -56.957  1.00  0.00     0.061 C 
HETATM    8  C   UNL     1     -42.147  57.541 -55.502  1.00  0.00     0.132 C 
HETATM    9  N   UNL     1     -46.204  57.923 -56.147  1.00  0.00    -0.357 N 
HETATM   10  H   UNL     1     -46.992  57.802 -55.525  1.00  0.00     0.166 HD
HETATM   11  C   UNL     1     -46.299  58.359 -57.452  1.00  0.00     0.043 A 
HETATM   12  C   UNL     1     -45.007  58.364 -57.987  1.00  0.00    -0.001 A 
HETATM   13  C   UNL     1     -47.426  58.737 -58.192  1.00  0.00     0.030 A 
HETATM   14  C   UNL     1     -47.227  59.129 -59.519  1.00  0.00     0.002 A 
HETATM   15  C   UNL     1     -45.952  59.143 -60.079  1.00  0.00     0.001 A 
HETATM   16  C   UNL     1     -44.835  58.763 -59.326  1.00  0.00     0.014 A 
HETATM   17  O   UNL     1     -43.570  54.698 -53.696  1.00  0.00    -0.247 OA
HETATM   18  H   UNL     1     -40.873  56.027 -53.714  1.00  0.00     0.171 HD
ENDROOT
BRANCH   1  19
HETATM   19  C   UNL     1     -40.885  53.973 -53.561  1.00  0.00     0.069 C 
HETATM   20  C   UNL     1     -40.455  53.819 -52.230  1.00  0.00     0.096 C 
HETATM   21  C   UNL     1     -39.845  52.625 -51.845  1.00  0.00     0.039 C 
HETATM   22  C   UNL     1     -39.762  51.554 -52.737  1.00  0.00     0.003 C 
HETATM   23  C   UNL     1     -40.283  51.674 -54.022  1.00  0.00     0.002 C 
HETATM   24  C   UNL     1     -40.849  52.881 -54.435  1.00  0.00     0.032 C 
BRANCH  20  25
HETATM   25  O   UNL     1     -40.623  54.864 -51.368  1.00  0.00    -0.339 OA
BRANCH  25  26
HETATM   26  C   UNL     1     -41.720  54.877 -50.433  1.00  0.00     0.057 C 
HETATM   27  C   UNL     1     -41.153  54.732 -49.015  1.00  0.00     0.045 C 
HETATM   28  C   UNL     1     -42.854  53.864 -50.677  1.00  0.00     0.045 C 
HETATM   29  C   UNL     1     -42.330  56.285 -50.568  1.00  0.00     0.045 C 
ENDBRANCH  25  26
ENDBRANCH  20  25
ENDBRANCH   1  19
TORSDOF 3
ENDMDL
MODEL 3
REMARK VINA RESULT:      -8.0      3.673      8.746
REMARK  3 active torsions:
REMARK  status: ('A' for Active; 'I' for Inactive)
REMARK    1  A    between atoms: C_2  and  O_3 
REMARK    2  A    between atoms: O_3  and  C_4 
REMARK    3  A    between atoms: C_5  and  N_6 
REMARK       I    between atoms: N_6  and  C_7 
REMARK       I    between atoms: C_7  and  N_8 
ROOT
HETATM    1  N   UNL     1     -42.409  54.828 -52.919  1.00  0.00    -0.306 N 
HETATM    2  C   UNL     1     -41.896  56.112 -53.026  1.00  0.00     0.323 C 
HETATM    3  N   UNL     1     -42.862  57.110 -52.999  1.00  0.00    -0.328 N 
HETATM    4  C   UNL     1     -42.452  58.462 -53.397  1.00  0.00     0.185 C 
HETATM    5  C   UNL     1     -42.941  59.424 -52.375  1.00  0.00     0.035 A 
HETATM    6  C   UNL     1     -43.853  59.176 -51.370  1.00  0.00    -0.020 A 
HETATM    7  C   UNL     1     -44.441  57.819 -51.182  1.00  0.00     0.061 C 
HETATM    8  C   UNL     1     -44.231  56.967 -52.457  1.00  0.00     0.132 C 
HETATM    9  N   UNL     1     -42.539  60.726 -52.279  1.00  0.00    -0.357 N 
HETATM   10  H   UNL     1     -41.858  61.178 -52.873  1.00  0.00     0.166 HD
HETATM   11  C   UNL     1     -43.182  61.336 -51.222  1.00  0.00     0.043 A 
HETATM   12  C   UNL     1     -44.017  60.381 -50.633  1.00  0.00    -0.001 A 
HETATM   13  C   UNL     1     -43.077  62.647 -50.745  1.00  0.00     0.030 A 
HETATM   14  C   UNL     1     -43.847  62.995 -49.632  1.00  0.00     0.002 A 
HETATM   15  C   UNL     1     -44.687  62.065 -49.023  1.00  0.00     0.001 A 
HETATM   16  C   UNL     1     -44.782  60.756 -49.512  1.00  0.00     0.014 A 
HETATM   17  O   UNL     1     -40.712  56.357 -53.241  1.00  0.00    -0.247 OA
HETATM   18  H   UNL     1     -43.226  54.728 -53.502  1.00  0.00     0.171 HD
ENDROOT
BRANCH   1  19
HETATM   19  C   UNL     1     -41.530  53.714 -52.921  1.00  0.00     0.069 C 
HETATM   20  C   UNL     1     -41.025  53.153 -51.734  1.00  0.00     0.096 C 
HETATM   21  C   UNL     1     -40.033  52.175 -51.810  1.00  0.00     0.039 C 
HETATM   22  C   UNL     1     -39.624  51.679 -53.049  1.00  0.00     0.003 C 
HETATM   23  C   UNL     1     -40.200  52.163 -54.220  1.00  0.00     0.002 C 
HETATM   24  C   UNL     1     -41.157  53.178 -54.158  1.00  0.00     0.032 C 
BRANCH  20  25
HETATM   25  O   UNL     1     -41.507  53.613 -50.542  1.00  0.00    -0.339 OA
BRANCH  25  26
HETATM   26  C   UNL     1     -40.686  54.433 -49.685  1.00  0.00     0.057 C 
HETATM   27  C   UNL     1     -41.360  55.801 -49.529  1.00  0.00     0.045 C 
HETATM   28  C   UNL     1     -39.207  54.592 -50.084  1.00  0.00     0.045 C 
HETATM   29  C   UNL     1     -40.717  53.721 -48.320  1.00  0.00     0.045 C 
ENDBRANCH  25  26
ENDBRANCH  20  25
ENDBRANCH   1  19
TORSDOF 3
ENDMDL
MODEL 4
REMARK VINA RESULT:      -7.5      1.566      3.064
REMARK  3 active torsions:
REMARK  status: ('A' for Active; 'I' for Inactive)
REMARK    1  A    between atoms: C_2  and  O_3 
REMARK    2  A    between atoms: O_3  and  C_4 
REMARK    3  A    between atoms: C_5  and  N_6 
REMARK       I    between atoms: N_6  and  C_7 
REMARK       I    between atoms: C_7  and  N_8 
ROOT
HETATM    1  N   UNL     1     -43.110  58.181 -55.986  1.00  0.00    -0.306 N 
HETATM    2  C   UNL     1     -42.441  57.809 -54.830  1.00  0.00     0.323 C 
HETATM    3  N   UNL     1     -42.769  56.539 -54.371  1.00  0.00    -0.328 N 
HETATM    4  C   UNL     1     -42.344  56.177 -53.014  1.00  0.00     0.185 C 
HETATM    5  C   UNL     1     -41.694  54.841 -53.062  1.00  0.00     0.035 A 
HETATM    6  C   UNL     1     -41.713  53.946 -54.113  1.00  0.00    -0.020 A 
HETATM    7  C   UNL     1     -42.401  54.277 -55.393  1.00  0.00     0.061 C 
HETATM    8  C   UNL     1     -43.375  55.461 -55.184  1.00  0.00     0.132 C 
HETATM    9  N   UNL     1     -40.959  54.298 -52.048  1.00  0.00    -0.357 N 
HETATM   10  H   UNL     1     -40.758  54.742 -51.162  1.00  0.00     0.166 HD
HETATM   11  C   UNL     1     -40.498  53.053 -52.421  1.00  0.00     0.043 A 
HETATM   12  C   UNL     1     -40.960  52.807 -53.718  1.00  0.00    -0.001 A 
HETATM   13  C   UNL     1     -39.705  52.142 -51.715  1.00  0.00     0.030 A 
HETATM   14  C   UNL     1     -39.372  50.943 -52.351  1.00  0.00     0.002 A 
HETATM   15  C   UNL     1     -39.816  50.670 -53.643  1.00  0.00     0.001 A 
HETATM   16  C   UNL     1     -40.610  51.592 -54.337  1.00  0.00     0.014 A 
HETATM   17  O   UNL     1     -41.710  58.563 -54.193  1.00  0.00    -0.247 OA
HETATM   18  H   UNL     1     -44.083  57.924 -55.926  1.00  0.00     0.171 HD
ENDROOT
BRANCH   1  19
HETATM   19  C   UNL     1     -42.859  59.450 -56.569  1.00  0.00     0.069 C 
HETATM   20  C   UNL     1     -43.702  60.556 -56.354  1.00  0.00     0.096 C 
HETATM   21  C   UNL     1     -43.499  61.722 -57.092  1.00  0.00     0.039 C 
HETATM   22  C   UNL     1     -42.405  61.831 -57.954  1.00  0.00     0.003 C 
HETATM   23  C   UNL     1     -41.512  60.771 -58.087  1.00  0.00     0.002 C 
HETATM   24  C   UNL     1     -41.735  59.581 -57.392  1.00  0.00     0.032 C 
BRANCH  20  25
HETATM   25  O   UNL     1     -44.714  60.433 -55.447  1.00  0.00    -0.339 OA
BRANCH  25  26
HETATM   26  C   UNL     1     -44.615  61.050 -54.146  1.00  0.00     0.057 C 
HETATM   27  C   UNL     1     -45.675  62.153 -54.049  1.00  0.00     0.045 C 
HETATM   28  C   UNL     1     -43.230  61.580 -53.732  1.00  0.00     0.045 C 
HETATM   29  C   UNL     1     -44.990  59.931 -53.156  1.00  0.00     0.045 C 
ENDBRANCH  25  26
ENDBRANCH  20  25
ENDBRANCH   1  19
TORSDOF 3
ENDMDL
MODEL 5
REMARK VINA RESULT:      -7.5     16.229     18.660
REMARK  3 active torsions:
REMARK  status: ('A' for Active; 'I' for Inactive)
REMARK    1  A    between atoms: C_2  and  O_3 
REMARK    2  A    between atoms: O_3  and  C_4 
REMARK    3  A    between atoms: C_5  and  N_6 
REMARK       I    between atoms: N_6  and  C_7 
REMARK       I    between atoms: C_7  and  N_8 
ROOT
HETATM    1  N   UNL     1     -34.593  41.376 -53.926  1.00  0.00    -0.306 N 
HETATM    2  C   UNL     1     -35.660  40.575 -54.301  1.00  0.00     0.323 C 
HETATM    3  N   UNL     1     -36.366  41.053 -55.399  1.00  0.00    -0.328 N 
HETATM    4  C   UNL     1     -37.669  40.442 -55.686  1.00  0.00     0.185 C 
HETATM    5  C   UNL     1     -37.723  40.100 -57.131  1.00  0.00     0.035 A 
HETATM    6  C   UNL     1     -36.848  40.513 -58.116  1.00  0.00    -0.020 A 
HETATM    7  C   UNL     1     -35.670  41.366 -57.790  1.00  0.00     0.061 C 
HETATM    8  C   UNL     1     -35.853  42.017 -56.397  1.00  0.00     0.132 C 
HETATM    9  N   UNL     1     -38.668  39.298 -57.704  1.00  0.00    -0.357 N 
HETATM   10  H   UNL     1     -39.423  38.836 -57.217  1.00  0.00     0.166 HD
HETATM   11  C   UNL     1     -38.425  39.185 -59.057  1.00  0.00     0.043 A 
HETATM   12  C   UNL     1     -37.284  39.941 -59.342  1.00  0.00    -0.001 A 
HETATM   13  C   UNL     1     -39.120  38.465 -60.036  1.00  0.00     0.030 A 
HETATM   14  C   UNL     1     -38.635  38.519 -61.346  1.00  0.00     0.002 A 
HETATM   15  C   UNL     1     -37.501  39.263 -61.660  1.00  0.00     0.001 A 
HETATM   16  C   UNL     1     -36.816  39.978 -60.670  1.00  0.00     0.014 A 
HETATM   17  O   UNL     1     -36.032  39.593 -53.666  1.00  0.00    -0.247 OA
HETATM   18  H   UNL     1     -34.861  42.348 -53.944  1.00  0.00     0.171 HD
ENDROOT
BRANCH   1  19
HETATM   19  C   UNL     1     -33.779  40.998 -52.826  1.00  0.00     0.069 C 
HETATM   20  C   UNL     1     -32.491  40.458 -52.994  1.00  0.00     0.096 C 
HETATM   21  C   UNL     1     -31.816  39.946 -51.886  1.00  0.00     0.039 C 
HETATM   22  C   UNL     1     -32.363  40.069 -50.607  1.00  0.00     0.003 C 
HETATM   23  C   UNL     1     -33.592  40.699 -50.431  1.00  0.00     0.002 C 
HETATM   24  C   UNL     1     -34.300  41.168 -51.538  1.00  0.00     0.032 C 
BRANCH  20  25
HETATM   25  O   UNL     1     -31.961  40.425 -54.252  1.00  0.00    -0.339 OA
BRANCH  25  26
HETATM   26  C   UNL     1     -32.093  39.247 -55.074  1.00  0.00     0.057 C 
HETATM   27  C   UNL     1     -32.658  39.667 -56.437  1.00  0.00     0.045 C 
HETATM   28  C   UNL     1     -32.897  38.074 -54.485  1.00  0.00     0.045 C 
HETATM   29  C   UNL     1     -30.649  38.753 -55.281  1.00  0.00     0.045 C 
ENDBRANCH  25  26
ENDBRANCH  20  25
ENDBRANCH   1  19
TORSDOF 3
ENDMDL
MODEL 6
REMARK VINA RESULT:      -7.4      1.385      1.804
REMARK  3 active torsions:
REMARK  status: ('A' for Active; 'I' for Inactive)
REMARK    1  A    between atoms: C_2  and  O_3 
REMARK    2  A    between atoms: O_3  and  C_4 
REMARK    3  A    between atoms: C_5  and  N_6 
REMARK       I    between atoms: N_6  and  C_7 
REMARK       I    between atoms: C_7  and  N_8 
ROOT
HETATM    1  N   UNL     1     -44.324  58.452 -54.599  1.00  0.00    -0.306 N 
HETATM    2  C   UNL     1     -43.600  57.974 -53.518  1.00  0.00     0.323 C 
HETATM    3  N   UNL     1     -43.681  56.597 -53.348  1.00  0.00    -0.328 N 
HETATM    4  C   UNL     1     -43.198  56.041 -52.079  1.00  0.00     0.185 C 
HETATM    5  C   UNL     1     -42.305  54.891 -52.376  1.00  0.00     0.035 A 
HETATM    6  C   UNL     1     -42.148  54.252 -53.590  1.00  0.00    -0.020 A 
HETATM    7  C   UNL     1     -42.882  54.714 -54.802  1.00  0.00     0.061 C 
HETATM    8  C   UNL     1     -44.066  55.623 -54.393  1.00  0.00     0.132 C 
HETATM    9  N   UNL     1     -41.482  54.292 -51.466  1.00  0.00    -0.357 N 
HETATM   10  H   UNL     1     -41.373  54.566 -50.499  1.00  0.00     0.166 HD
HETATM   11  C   UNL     1     -40.789  53.263 -52.069  1.00  0.00     0.043 A 
HETATM   12  C   UNL     1     -41.191  53.217 -53.408  1.00  0.00    -0.001 A 
HETATM   13  C   UNL     1     -39.838  52.387 -51.534  1.00  0.00     0.030 A 
HETATM   14  C   UNL     1     -39.280  51.434 -52.391  1.00  0.00     0.002 A 
HETATM   15  C   UNL     1     -39.660  51.365 -53.729  1.00  0.00     0.001 A 
HETATM   16  C   UNL     1     -40.613  52.248 -54.251  1.00  0.00     0.014 A 
HETATM   17  O   UNL     1     -43.030  58.698 -52.707  1.00  0.00    -0.247 OA
HETATM   18  H   UNL     1     -45.231  58.011 -54.637  1.00  0.00     0.171 HD
ENDROOT
BRANCH   1  19
HETATM   19  C   UNL     1     -44.320  59.840 -54.895  1.00  0.00     0.069 C 
HETATM   20  C   UNL     1     -43.360  60.425 -55.741  1.00  0.00     0.096 C 
HETATM   21  C   UNL     1     -43.305  61.815 -55.850  1.00  0.00     0.039 C 
HETATM   22  C   UNL     1     -44.260  62.612 -55.217  1.00  0.00     0.003 C 
HETATM   23  C   UNL     1     -45.273  62.023 -54.464  1.00  0.00     0.002 C 
HETATM   24  C   UNL     1     -45.307  60.637 -54.305  1.00  0.00     0.032 C 
BRANCH  20  25
HETATM   25  O   UNL     1     -42.492  59.606 -56.402  1.00  0.00    -0.339 OA
BRANCH  25  26
HETATM   26  C   UNL     1     -42.715  59.259 -57.784  1.00  0.00     0.057 C 
HETATM   27  C   UNL     1     -41.753  60.078 -58.653  1.00  0.00     0.045 C 
HETATM   28  C   UNL     1     -44.160  59.375 -58.305  1.00  0.00     0.045 C 
HETATM   29  C   UNL     1     -42.311  57.776 -57.883  1.00  0.00     0.045 C 
ENDBRANCH  25  26
ENDBRANCH  20  25
ENDBRANCH   1  19
TORSDOF 3
ENDMDL
MODEL 7
REMARK VINA RESULT:      -7.4      2.250      3.388
REMARK  3 active torsions:
REMARK  status: ('A' for Active; 'I' for Inactive)
REMARK    1  A    between atoms: C_2  and  O_3 
REMARK    2  A    between atoms: O_3  and  C_4 
REMARK    3  A    between atoms: C_5  and  N_6 
REMARK       I    between atoms: N_6  and  C_7 
REMARK       I    between atoms: C_7  and  N_8 
ROOT
HETATM    1  N   UNL     1     -43.366  56.875 -57.460  1.00  0.00    -0.306 N 
HETATM    2  C   UNL     1     -43.085  57.337 -56.184  1.00  0.00     0.323 C 
HETATM    3  N   UNL     1     -43.299  56.397 -55.183  1.00  0.00    -0.328 N 
HETATM    4  C   UNL     1     -43.314  56.875 -53.795  1.00  0.00     0.185 C 
HETATM    5  C   UNL     1     -42.441  55.990 -52.981  1.00  0.00     0.035 A 
HETATM    6  C   UNL     1     -41.914  54.770 -53.354  1.00  0.00    -0.020 A 
HETATM    7  C   UNL     1     -42.161  54.210 -54.714  1.00  0.00     0.061 C 
HETATM    8  C   UNL     1     -43.358  54.932 -55.378  1.00  0.00     0.132 C 
HETATM    9  N   UNL     1     -42.016  56.271 -51.714  1.00  0.00    -0.357 N 
HETATM   10  H   UNL     1     -42.229  57.111 -51.193  1.00  0.00     0.166 HD
HETATM   11  C   UNL     1     -41.219  55.245 -51.250  1.00  0.00     0.043 A 
HETATM   12  C   UNL     1     -41.140  54.286 -52.265  1.00  0.00    -0.001 A 
HETATM   13  C   UNL     1     -40.562  55.104 -50.023  1.00  0.00     0.030 A 
HETATM   14  C   UNL     1     -39.800  53.949 -49.825  1.00  0.00     0.002 A 
HETATM   15  C   UNL     1     -39.701  52.977 -50.817  1.00  0.00     0.001 A 
HETATM   16  C   UNL     1     -40.365  53.132 -52.041  1.00  0.00     0.014 A 
HETATM   17  O   UNL     1     -42.787  58.501 -55.931  1.00  0.00    -0.247 OA
HETATM   18  H   UNL     1     -44.228  56.352 -57.462  1.00  0.00     0.171 HD
ENDROOT
BRANCH   1  19
HETATM   19  C   UNL     1     -43.180  57.729 -58.577  1.00  0.00     0.069 C 
HETATM   20  C   UNL     1     -44.168  58.636 -59.003  1.00  0.00     0.096 C 
HETATM   21  C   UNL     1     -43.994  59.319 -60.206  1.00  0.00     0.039 C 
HETATM   22  C   UNL     1     -42.804  59.191 -60.925  1.00  0.00     0.003 C 
HETATM   23  C   UNL     1     -41.784  58.373 -60.447  1.00  0.00     0.002 C 
HETATM   24  C   UNL     1     -41.968  57.644 -59.271  1.00  0.00     0.032 C 
BRANCH  20  25
HETATM   25  O   UNL     1     -45.284  58.788 -58.232  1.00  0.00    -0.339 OA
BRANCH  25  26
HETATM   26  C   UNL     1     -46.569  58.327 -58.698  1.00  0.00     0.057 C 
HETATM   27  C   UNL     1     -46.365  57.019 -59.472  1.00  0.00     0.045 C 
HETATM   28  C   UNL     1     -47.410  59.324 -59.516  1.00  0.00     0.045 C 
HETATM   29  C   UNL     1     -47.358  58.010 -57.414  1.00  0.00     0.045 C 
ENDBRANCH  25  26
ENDBRANCH  20  25
ENDBRANCH   1  19
TORSDOF 3
ENDMDL
MODEL 8
REMARK VINA RESULT:      -7.3      2.476      4.099
REMARK  3 active torsions:
REMARK  status: ('A' for Active; 'I' for Inactive)
REMARK    1  A    between atoms: C_2  and  O_3 
REMARK    2  A    between atoms: O_3  and  C_4 
REMARK    3  A    between atoms: C_5  and  N_6 
REMARK       I    between atoms: N_6  and  C_7 
REMARK       I    between atoms: C_7  and  N_8 
ROOT
HETATM    1  N   UNL     1     -43.272  57.991 -52.673  1.00  0.00    -0.306 N 
HETATM    2  C   UNL     1     -43.331  56.886 -53.509  1.00  0.00     0.323 C 
HETATM    3  N   UNL     1     -42.113  56.239 -53.676  1.00  0.00    -0.328 N 
HETATM    4  C   UNL     1     -42.011  55.252 -54.757  1.00  0.00     0.185 C 
HETATM    5  C   UNL     1     -41.395  54.015 -54.212  1.00  0.00     0.035 A 
HETATM    6  C   UNL     1     -40.763  53.868 -52.994  1.00  0.00    -0.020 A 
HETATM    7  C   UNL     1     -40.669  55.006 -52.035  1.00  0.00     0.061 C 
HETATM    8  C   UNL     1     -40.953  56.341 -52.764  1.00  0.00     0.132 C 
HETATM    9  N   UNL     1     -41.374  52.810 -54.855  1.00  0.00    -0.357 N 
HETATM   10  H   UNL     1     -41.783  52.616 -55.758  1.00  0.00     0.166 HD
HETATM   11  C   UNL     1     -40.730  51.875 -54.071  1.00  0.00     0.043 A 
HETATM   12  C   UNL     1     -40.335  52.517 -52.893  1.00  0.00    -0.001 A 
HETATM   13  C   UNL     1     -40.481  50.519 -54.315  1.00  0.00     0.030 A 
HETATM   14  C   UNL     1     -39.809  49.796 -53.325  1.00  0.00     0.002 A 
HETATM   15  C   UNL     1     -39.405  50.408 -52.141  1.00  0.00     0.001 A 
HETATM   16  C   UNL     1     -39.660  51.765 -51.912  1.00  0.00     0.014 A 
HETATM   17  O   UNL     1     -44.332  56.564 -54.143  1.00  0.00    -0.247 OA
HETATM   18  H   UNL     1     -42.454  58.543 -52.879  1.00  0.00     0.171 HD
ENDROOT
BRANCH   1  19
HETATM   19  C   UNL     1     -44.449  58.738 -52.407  1.00  0.00     0.069 C 
HETATM   20  C   UNL     1     -44.943  59.706 -53.300  1.00  0.00     0.096 C 
HETATM   21  C   UNL     1     -46.000  60.525 -52.901  1.00  0.00     0.039 C 
HETATM   22  C   UNL     1     -46.634  60.313 -51.675  1.00  0.00     0.003 C 
HETATM   23  C   UNL     1     -46.210  59.285 -50.838  1.00  0.00     0.002 C 
HETATM   24  C   UNL     1     -45.120  58.494 -51.204  1.00  0.00     0.032 C 
BRANCH  20  25
HETATM   25  O   UNL     1     -44.343  59.831 -54.519  1.00  0.00    -0.339 OA
BRANCH  25  26
HETATM   26  C   UNL     1     -43.307  60.811 -54.732  1.00  0.00     0.057 C 
HETATM   27  C   UNL     1     -42.149  60.142 -55.483  1.00  0.00     0.045 C 
HETATM   28  C   UNL     1     -42.794  61.562 -53.489  1.00  0.00     0.045 C 
HETATM   29  C   UNL     1     -43.947  61.856 -55.665  1.00  0.00     0.045 C 
ENDBRANCH  25  26
ENDBRANCH  20  25
ENDBRANCH   1  19
TORSDOF 3
ENDMDL
MODEL 9
REMARK VINA RESULT:      -7.3      2.182      3.059
REMARK  3 active torsions:
REMARK  status: ('A' for Active; 'I' for Inactive)
REMARK    1  A    between atoms: C_2  and  O_3 
REMARK    2  A    between atoms: O_3  and  C_4 
REMARK    3  A    between atoms: C_5  and  N_6 
REMARK       I    between atoms: N_6  and  C_7 
REMARK       I    between atoms: C_7  and  N_8 
ROOT
HETATM    1  N   UNL     1     -43.742  58.345 -52.295  1.00  0.00    -0.306 N 
HETATM    2  C   UNL     1     -42.732  57.635 -51.666  1.00  0.00     0.323 C 
HETATM    3  N   UNL     1     -42.913  56.257 -51.686  1.00  0.00    -0.328 N 
HETATM    4  C   UNL     1     -42.064  55.448 -50.804  1.00  0.00     0.185 C 
HETATM    5  C   UNL     1     -41.496  54.325 -51.594  1.00  0.00     0.035 A 
HETATM    6  C   UNL     1     -41.884  53.915 -52.853  1.00  0.00    -0.020 A 
HETATM    7  C   UNL     1     -42.955  54.634 -53.600  1.00  0.00     0.061 C 
HETATM    8  C   UNL     1     -43.778  55.518 -52.632  1.00  0.00     0.132 C 
HETATM    9  N   UNL     1     -40.474  53.521 -51.177  1.00  0.00    -0.357 N 
HETATM   10  H   UNL     1     -39.979  53.604 -50.300  1.00  0.00     0.166 HD
HETATM   11  C   UNL     1     -40.190  52.585 -52.149  1.00  0.00     0.043 A 
HETATM   12  C   UNL     1     -41.066  52.811 -53.216  1.00  0.00    -0.001 A 
HETATM   13  C   UNL     1     -39.225  51.571 -52.164  1.00  0.00     0.030 A 
HETATM   14  C   UNL     1     -39.150  50.765 -53.302  1.00  0.00     0.002 A 
HETATM   15  C   UNL     1     -40.008  50.967 -54.381  1.00  0.00     0.001 A 
HETATM   16  C   UNL     1     -40.969  51.984 -54.352  1.00  0.00     0.014 A 
HETATM   17  O   UNL     1     -41.814  58.161 -51.043  1.00  0.00    -0.247 OA
HETATM   18  H   UNL     1     -44.644  57.971 -52.042  1.00  0.00     0.171 HD
ENDROOT
BRANCH   1  19
HETATM   19  C   UNL     1     -43.676  59.762 -52.358  1.00  0.00     0.069 C 
HETATM   20  C   UNL     1     -42.959  60.437 -53.363  1.00  0.00     0.096 C 
HETATM   21  C   UNL     1     -42.789  61.818 -53.267  1.00  0.00     0.039 C 
HETATM   22  C   UNL     1     -43.415  62.539 -52.248  1.00  0.00     0.003 C 
HETATM   23  C   UNL     1     -44.210  61.880 -51.314  1.00  0.00     0.002 C 
HETATM   24  C   UNL     1     -44.345  60.492 -51.370  1.00  0.00     0.032 C 
BRANCH  20  25
HETATM   25  O   UNL     1     -42.426  59.704 -54.383  1.00  0.00    -0.339 OA
BRANCH  25  26
HETATM   26  C   UNL     1     -43.141  59.544 -55.626  1.00  0.00     0.057 C 
HETATM   27  C   UNL     1     -42.328  60.206 -56.745  1.00  0.00     0.045 C 
HETATM   28  C   UNL     1     -44.604  60.024 -55.652  1.00  0.00     0.045 C 
HETATM   29  C   UNL     1     -43.155  58.024 -55.873  1.00  0.00     0.045 C 
ENDBRANCH  25  26
ENDBRANCH  20  25
ENDBRANCH   1  19
TORSDOF 3
ENDMDL
MODEL 10
REMARK VINA RESULT:      -7.3      2.504      7.524
REMARK  3 active torsions:
REMARK  status: ('A' for Active; 'I' for Inactive)
REMARK    1  A    between atoms: C_2  and  O_3 
REMARK    2  A    between atoms: O_3  and  C_4 
REMARK    3  A    between atoms: C_5  and  N_6 
REMARK       I    between atoms: N_6  and  C_7 
REMARK       I    between atoms: C_7  and  N_8 
ROOT
HETATM    1  N   UNL     1     -41.552  57.835 -54.691  1.00  0.00    -0.306 N 
HETATM    2  C   UNL     1     -42.537  58.626 -55.261  1.00  0.00     0.323 C 
HETATM    3  N   UNL     1     -42.655  58.477 -56.638  1.00  0.00    -0.328 N 
HETATM    4  C   UNL     1     -43.455  59.471 -57.362  1.00  0.00     0.185 C 
HETATM    5  C   UNL     1     -44.394  58.756 -58.265  1.00  0.00     0.035 A 
HETATM    6  C   UNL     1     -44.367  57.418 -58.602  1.00  0.00    -0.020 A 
HETATM    7  C   UNL     1     -43.346  56.500 -58.021  1.00  0.00     0.061 C 
HETATM    8  C   UNL     1     -42.176  57.316 -57.420  1.00  0.00     0.132 C 
HETATM    9  N   UNL     1     -45.454  59.338 -58.901  1.00  0.00    -0.357 N 
HETATM   10  H   UNL     1     -45.730  60.306 -58.821  1.00  0.00     0.166 HD
HETATM   11  C   UNL     1     -46.119  58.394 -59.656  1.00  0.00     0.043 A 
HETATM   12  C   UNL     1     -45.454  57.176 -59.485  1.00  0.00    -0.001 A 
HETATM   13  C   UNL     1     -47.257  58.529 -60.460  1.00  0.00     0.030 A 
HETATM   14  C   UNL     1     -47.730  57.386 -61.109  1.00  0.00     0.002 A 
HETATM   15  C   UNL     1     -47.089  56.158 -60.957  1.00  0.00     0.001 A 
HETATM   16  C   UNL     1     -45.952  56.039 -60.150  1.00  0.00     0.014 A 
HETATM   17  O   UNL     1     -43.177  59.472 -54.641  1.00  0.00    -0.247 OA
HETATM   18  H   UNL     1     -40.716  57.856 -55.254  1.00  0.00     0.171 HD
ENDROOT
BRANCH   1  19
HETATM   19  C   UNL     1     -41.333  57.882 -53.289  1.00  0.00     0.069 C 
HETATM   20  C   UNL     1     -42.060  57.083 -52.388  1.00  0.00     0.096 C 
HETATM   21  C   UNL     1     -41.921  57.301 -51.017  1.00  0.00     0.039 C 
HETATM   22  C   UNL     1     -40.988  58.225 -50.541  1.00  0.00     0.003 C 
HETATM   23  C   UNL     1     -40.194  58.940 -51.434  1.00  0.00     0.002 C 
HETATM   24  C   UNL     1     -40.362  58.767 -52.808  1.00  0.00     0.032 C 
BRANCH  20  25
HETATM   25  O   UNL     1     -42.906  56.139 -52.894  1.00  0.00    -0.339 OA
BRANCH  25  26
HETATM   26  C   UNL     1     -42.500  54.757 -52.979  1.00  0.00     0.057 C 
HETATM   27  C   UNL     1     -43.237  53.966 -51.892  1.00  0.00     0.045 C 
HETATM   28  C   UNL     1     -40.988  54.473 -52.935  1.00  0.00     0.045 C 
HETATM   29  C   UNL     1     -43.014  54.285 -54.352  1.00  0.00     0.045 C 
ENDBRANCH  25  26
ENDBRANCH  20  25
ENDBRANCH   1  19
TORSDOF 3
ENDMDL
