MODEL 1
REMARK VINA RESULT:      -7.7      0.000      0.000
REMARK  7 active torsions:
REMARK  status: ('A' for Active; 'I' for Inactive)
REMARK    1  A    between atoms: C_4  and  C_5 
REMARK    2  A    between atoms: C_10  and  C_11 
REMARK       I    between atoms: C_11  and  N_12 
REMARK    3  A    between atoms: N_12  and  C_13 
REMARK    4  A    between atoms: C_13  and  C_14 
REMARK    5  A    between atoms: C_14  and  C_15 
REMARK    6  A    between atoms: C_15  and  N_16 
REMARK    7  A    between atoms: C_26  and  C_27 
ROOT
HETATM    1  C   UNL     1     -41.667  55.118 -52.298  1.00  0.00     0.125 C 
HETATM    2  N   UNL     1     -41.864  56.563 -52.468  1.00  0.00    -0.365 N 
HETATM    3  C   UNL     1     -42.633  57.051 -53.470  1.00  0.00     0.141 A 
HETATM    4  N   UNL     1     -43.442  56.228 -54.204  1.00  0.00    -0.238 N 
HETATM    5  N   UNL     1     -44.208  56.872 -55.106  1.00  0.00    -0.163 NA
HETATM    6  C   UNL     1     -43.808  58.163 -55.004  1.00  0.00     0.165 A 
HETATM    7  C   UNL     1     -42.839  58.307 -53.981  1.00  0.00     0.092 A 
HETATM    8 BR   UNL     1     -42.020  59.896 -53.421  1.00  0.00    -0.044 Br
HETATM    9  C   UNL     1     -43.503  54.786 -54.037  1.00  0.00     0.221 C 
HETATM   10  C   UNL     1     -42.986  54.393 -52.642  1.00  0.00     0.067 C 
HETATM   11  H   UNL     1     -41.119  57.136 -52.068  1.00  0.00     0.162 HD
ENDROOT
BRANCH   6  12
HETATM   12  C   UNL     1     -44.389  59.182 -55.886  1.00  0.00     0.273 C 
HETATM   13  N   UNL     1     -45.721  58.969 -56.182  1.00  0.00    -0.355 N 
HETATM   14  H   UNL     1     -46.095  58.086 -55.827  1.00  0.00     0.162 HD
HETATM   15  O   UNL     1     -43.794  60.169 -56.324  1.00  0.00    -0.266 OA
BRANCH  13  16
HETATM   16  C   UNL     1     -46.435  59.704 -57.197  1.00  0.00     0.124 C 
BRANCH  16  17
HETATM   17  C   UNL     1     -46.282  59.124 -58.603  1.00  0.00     0.047 C 
BRANCH  17  18
HETATM   18  C   UNL     1     -46.871  57.735 -58.854  1.00  0.00     0.236 C 
BRANCH  18  19
HETATM   19  N   UNL     1     -45.844  56.654 -59.045  1.00  0.00    -0.067 N 
HETATM   20  H   UNL     1     -45.877  56.052 -58.194  1.00  0.00     0.280 HD
HETATM   21  C   UNL     1     -46.040  55.780 -60.270  1.00  0.00     0.261 C 
HETATM   22  C   UNL     1     -44.937  54.718 -60.336  1.00  0.00     0.195 C 
HETATM   23  O   UNL     1     -43.639  55.323 -60.346  1.00  0.00    -0.388 OA
HETATM   24  C   UNL     1     -43.410  56.083 -59.153  1.00  0.00     0.195 C 
HETATM   25  C   UNL     1     -44.425  57.224 -59.034  1.00  0.00     0.261 C 
ENDBRANCH  18  19
ENDBRANCH  17  18
ENDBRANCH  16  17
ENDBRANCH  13  16
ENDBRANCH   6  12
BRANCH   9  26
HETATM   26  C   UNL     1     -42.728  54.113 -55.149  1.00  0.00     0.409 C 
HETATM   27  F   UNL     1     -42.089  52.996 -54.741  1.00  0.00    -0.169 F 
HETATM   28  F   UNL     1     -43.566  53.749 -56.149  1.00  0.00    -0.169 F 
HETATM   29  F   UNL     1     -41.806  54.935 -55.697  1.00  0.00    -0.169 F 
ENDBRANCH   9  26
BRANCH   1  30
HETATM   30  C   UNL     1     -41.227  54.747 -50.903  1.00  0.00     0.005 A 
HETATM   31  S   UNL     1     -40.297  53.327 -50.647  1.00  0.00    -0.104 SA
HETATM   32  C   UNL     1     -40.230  53.594 -48.962  1.00  0.00     0.050 A 
HETATM   33  C   UNL     1     -40.900  54.738 -48.591  1.00  0.00     0.008 A 
HETATM   34  C   UNL     1     -41.476  55.404 -49.711  1.00  0.00     0.017 A 
ENDBRANCH   1  30
TORSDOF 7
ENDMDL
MODEL 2
REMARK VINA RESULT:      -7.7      5.365      7.960
REMARK  7 active torsions:
REMARK  status: ('A' for Active; 'I' for Inactive)
REMARK    1  A    between atoms: C_4  and  C_5 
REMARK    2  A    between atoms: C_10  and  C_11 
REMARK       I    between atoms: C_11  and  N_12 
REMARK    3  A    between atoms: N_12  and  C_13 
REMARK    4  A    between atoms: C_13  and  C_14 
REMARK    5  A    between atoms: C_14  and  C_15 
REMARK    6  A    between atoms: C_15  and  N_16 
REMARK    7  A    between atoms: C_26  and  C_27 
ROOT
HETATM    1  C   UNL     1     -40.823  53.067 -51.894  1.00  0.00     0.125 C 
HETATM    2  N   UNL     1     -41.140  54.229 -52.732  1.00  0.00    -0.365 N 
HETATM    3  C   UNL     1     -41.170  55.479 -52.213  1.00  0.00     0.141 A 
HETATM    4  N   UNL     1     -40.675  55.736 -50.963  1.00  0.00    -0.238 N 
HETATM    5  N   UNL     1     -40.698  57.039 -50.621  1.00  0.00    -0.163 NA
HETATM    6  C   UNL     1     -41.316  57.636 -51.668  1.00  0.00     0.165 A 
HETATM    7  C   UNL     1     -41.607  56.691 -52.682  1.00  0.00     0.092 A 
HETATM    8 BR   UNL     1     -42.407  57.030 -54.342  1.00  0.00    -0.044 Br
HETATM    9  C   UNL     1     -40.151  54.717 -50.070  1.00  0.00     0.221 C 
HETATM   10  C   UNL     1     -39.738  53.472 -50.873  1.00  0.00     0.067 C 
HETATM   11  H   UNL     1     -41.690  54.007 -53.564  1.00  0.00     0.162 HD
ENDROOT
BRANCH   6  12
HETATM   12  C   UNL     1     -41.579  59.080 -51.639  1.00  0.00     0.273 C 
HETATM   13  N   UNL     1     -42.147  59.518 -50.458  1.00  0.00    -0.355 N 
HETATM   14  H   UNL     1     -42.393  58.770 -49.806  1.00  0.00     0.162 HD
HETATM   15  O   UNL     1     -41.311  59.872 -52.544  1.00  0.00    -0.266 OA
BRANCH  13  16
HETATM   16  C   UNL     1     -42.695  60.841 -50.286  1.00  0.00     0.124 C 
BRANCH  16  17
HETATM   17  C   UNL     1     -44.222  60.891 -50.351  1.00  0.00     0.047 C 
BRANCH  17  18
HETATM   18  C   UNL     1     -44.902  62.166 -49.850  1.00  0.00     0.236 C 
BRANCH  18  19
HETATM   19  N   UNL     1     -45.457  62.062 -48.456  1.00  0.00    -0.067 N 
HETATM   20  H   UNL     1     -44.761  62.506 -47.820  1.00  0.00     0.280 HD
HETATM   21  C   UNL     1     -46.807  62.722 -48.244  1.00  0.00     0.261 C 
HETATM   22  C   UNL     1     -47.246  62.553 -46.785  1.00  0.00     0.195 C 
HETATM   23  O   UNL     1     -47.294  61.170 -46.418  1.00  0.00    -0.388 OA
HETATM   24  C   UNL     1     -46.005  60.556 -46.534  1.00  0.00     0.195 C 
HETATM   25  C   UNL     1     -45.508  60.609 -47.983  1.00  0.00     0.261 C 
ENDBRANCH  18  19
ENDBRANCH  17  18
ENDBRANCH  16  17
ENDBRANCH  13  16
ENDBRANCH   6  12
BRANCH   9  26
HETATM   26  C   UNL     1     -41.176  54.401 -49.003  1.00  0.00     0.409 C 
HETATM   27  F   UNL     1     -41.111  55.241 -47.948  1.00  0.00    -0.169 F 
HETATM   28  F   UNL     1     -42.428  54.500 -49.513  1.00  0.00    -0.169 F 
HETATM   29  F   UNL     1     -41.049  53.141 -48.531  1.00  0.00    -0.169 F 
ENDBRANCH   9  26
BRANCH   1  30
HETATM   30  C   UNL     1     -40.353  51.877 -52.697  1.00  0.00     0.005 A 
HETATM   31  S   UNL     1     -39.584  50.562 -51.907  1.00  0.00    -0.104 SA
HETATM   32  C   UNL     1     -39.370  49.718 -53.376  1.00  0.00     0.050 A 
HETATM   33  C   UNL     1     -39.870  50.416 -54.452  1.00  0.00     0.008 A 
HETATM   34  C   UNL     1     -40.437  51.663 -54.060  1.00  0.00     0.017 A 
ENDBRANCH   1  30
TORSDOF 7
ENDMDL
MODEL 3
REMARK VINA RESULT:      -7.6      2.655      3.893
REMARK  7 active torsions:
REMARK  status: ('A' for Active; 'I' for Inactive)
REMARK    1  A    between atoms: C_4  and  C_5 
REMARK    2  A    between atoms: C_10  and  C_11 
REMARK       I    between atoms: C_11  and  N_12 
REMARK    3  A    between atoms: N_12  and  C_13 
REMARK    4  A    between atoms: C_13  and  C_14 
REMARK    5  A    between atoms: C_14  and  C_15 
REMARK    6  A    between atoms: C_15  and  N_16 
REMARK    7  A    between atoms: C_26  and  C_27 
ROOT
HETATM    1  C   UNL     1     -41.168  57.274 -53.319  1.00  0.00     0.125 C 
HETATM    2  N   UNL     1     -41.633  57.868 -54.578  1.00  0.00    -0.365 N 
HETATM    3  C   UNL     1     -42.045  57.091 -55.609  1.00  0.00     0.141 A 
HETATM    4  N   UNL     1     -42.273  55.753 -55.436  1.00  0.00    -0.238 N 
HETATM    5  N   UNL     1     -42.759  55.133 -56.529  1.00  0.00    -0.163 NA
HETATM    6  C   UNL     1     -42.764  56.104 -57.474  1.00  0.00     0.165 A 
HETATM    7  C   UNL     1     -42.339  57.339 -56.925  1.00  0.00     0.092 A 
HETATM    8 BR   UNL     1     -42.224  58.986 -57.810  1.00  0.00    -0.044 Br
HETATM    9  C   UNL     1     -42.035  55.040 -54.193  1.00  0.00     0.221 C 
HETATM   10  C   UNL     1     -42.024  56.027 -53.012  1.00  0.00     0.067 C 
HETATM   11  H   UNL     1     -41.271  58.806 -54.757  1.00  0.00     0.162 HD
ENDROOT
BRANCH   6  12
HETATM   12  C   UNL     1     -43.186  55.792 -58.844  1.00  0.00     0.273 C 
HETATM   13  N   UNL     1     -44.478  55.311 -58.933  1.00  0.00    -0.355 N 
HETATM   14  H   UNL     1     -44.929  55.148 -58.030  1.00  0.00     0.162 HD
HETATM   15  O   UNL     1     -42.501  55.953 -59.856  1.00  0.00    -0.266 OA
BRANCH  13  16
HETATM   16  C   UNL     1     -45.027  54.731 -60.134  1.00  0.00     0.124 C 
BRANCH  16  17
HETATM   17  C   UNL     1     -45.869  55.703 -60.961  1.00  0.00     0.047 C 
BRANCH  17  18
HETATM   18  C   UNL     1     -47.120  56.283 -60.298  1.00  0.00     0.236 C 
BRANCH  18  19
HETATM   19  N   UNL     1     -46.961  57.697 -59.812  1.00  0.00    -0.067 N 
HETATM   20  H   UNL     1     -47.717  58.257 -60.263  1.00  0.00     0.280 HD
HETATM   21  C   UNL     1     -47.045  57.881 -58.309  1.00  0.00     0.261 C 
HETATM   22  C   UNL     1     -46.881  59.363 -57.954  1.00  0.00     0.195 C 
HETATM   23  O   UNL     1     -45.647  59.881 -58.461  1.00  0.00    -0.388 OA
HETATM   24  C   UNL     1     -45.592  59.790 -59.890  1.00  0.00     0.195 C 
HETATM   25  C   UNL     1     -45.674  58.329 -60.343  1.00  0.00     0.261 C 
ENDBRANCH  18  19
ENDBRANCH  17  18
ENDBRANCH  16  17
ENDBRANCH  13  16
ENDBRANCH   6  12
BRANCH   9  26
HETATM   26  C   UNL     1     -40.748  54.252 -54.297  1.00  0.00     0.409 C 
HETATM   27  F   UNL     1     -40.132  54.093 -53.107  1.00  0.00    -0.169 F 
HETATM   28  F   UNL     1     -40.996  53.012 -54.785  1.00  0.00    -0.169 F 
HETATM   29  F   UNL     1     -39.863  54.830 -55.141  1.00  0.00    -0.169 F 
ENDBRANCH   9  26
BRANCH   1  30
HETATM   30  C   UNL     1     -41.231  58.237 -52.159  1.00  0.00     0.005 A 
HETATM   31  S   UNL     1     -42.175  59.665 -52.282  1.00  0.00    -0.104 SA
HETATM   32  C   UNL     1     -41.742  60.167 -50.708  1.00  0.00     0.050 A 
HETATM   33  C   UNL     1     -40.895  59.272 -50.093  1.00  0.00     0.008 A 
HETATM   34  C   UNL     1     -40.599  58.158 -50.931  1.00  0.00     0.017 A 
ENDBRANCH   1  30
TORSDOF 7
ENDMDL
MODEL 4
REMARK VINA RESULT:      -7.5      5.362      8.019
REMARK  7 active torsions:
REMARK  status: ('A' for Active; 'I' for Inactive)
REMARK    1  A    between atoms: C_4  and  C_5 
REMARK    2  A    between atoms: C_10  and  C_11 
REMARK       I    between atoms: C_11  and  N_12 
REMARK    3  A    between atoms: N_12  and  C_13 
REMARK    4  A    between atoms: C_13  and  C_14 
REMARK    5  A    between atoms: C_14  and  C_15 
REMARK    6  A    between atoms: C_15  and  N_16 
REMARK    7  A    between atoms: C_26  and  C_27 
ROOT
HETATM    1  C   UNL     1     -41.206  54.439 -53.741  1.00  0.00     0.125 C 
HETATM    2  N   UNL     1     -41.148  55.402 -52.635  1.00  0.00    -0.365 N 
HETATM    3  C   UNL     1     -42.002  56.452 -52.576  1.00  0.00     0.141 A 
HETATM    4  N   UNL     1     -43.094  56.520 -53.396  1.00  0.00    -0.238 N 
HETATM    5  N   UNL     1     -43.893  57.579 -53.160  1.00  0.00    -0.163 NA
HETATM    6  C   UNL     1     -43.236  58.270 -52.197  1.00  0.00     0.165 A 
HETATM    7  C   UNL     1     -42.062  57.582 -51.802  1.00  0.00     0.092 A 
HETATM    8 BR   UNL     1     -40.847  58.100 -50.474  1.00  0.00    -0.044 Br
HETATM    9  C   UNL     1     -43.399  55.544 -54.428  1.00  0.00     0.221 C 
HETATM   10  C   UNL     1     -42.684  54.215 -54.128  1.00  0.00     0.067 C 
HETATM   11  H   UNL     1     -40.237  55.456 -52.175  1.00  0.00     0.162 HD
ENDROOT
BRANCH   6  12
HETATM   12  C   UNL     1     -43.780  59.541 -51.706  1.00  0.00     0.273 C 
HETATM   13  N   UNL     1     -44.431  59.435 -50.492  1.00  0.00    -0.355 N 
HETATM   14  H   UNL     1     -44.529  58.477 -50.148  1.00  0.00     0.162 HD
HETATM   15  O   UNL     1     -43.668  60.630 -52.271  1.00  0.00    -0.266 OA
BRANCH  13  16
HETATM   16  C   UNL     1     -45.232  60.494 -49.928  1.00  0.00     0.124 C 
BRANCH  16  17
HETATM   17  C   UNL     1     -44.497  61.338 -48.887  1.00  0.00     0.047 C 
BRANCH  17  18
HETATM   18  C   UNL     1     -45.057  61.336 -47.464  1.00  0.00     0.236 C 
BRANCH  18  19
HETATM   19  N   UNL     1     -45.778  62.599 -47.081  1.00  0.00    -0.067 N 
HETATM   20  H   UNL     1     -45.228  63.391 -47.478  1.00  0.00     0.280 HD
HETATM   21  C   UNL     1     -47.210  62.704 -47.571  1.00  0.00     0.261 C 
HETATM   22  C   UNL     1     -47.818  64.038 -47.125  1.00  0.00     0.195 C 
HETATM   23  O   UNL     1     -47.756  64.183 -45.703  1.00  0.00    -0.388 OA
HETATM   24  C   UNL     1     -46.401  64.171 -45.236  1.00  0.00     0.195 C 
HETATM   25  C   UNL     1     -45.725  62.837 -45.572  1.00  0.00     0.261 C 
ENDBRANCH  18  19
ENDBRANCH  17  18
ENDBRANCH  16  17
ENDBRANCH  13  16
ENDBRANCH   6  12
BRANCH   9  26
HETATM   26  C   UNL     1     -43.027  56.105 -55.784  1.00  0.00     0.409 C 
HETATM   27  F   UNL     1     -42.723  55.146 -56.683  1.00  0.00    -0.169 F 
HETATM   28  F   UNL     1     -44.060  56.817 -56.295  1.00  0.00    -0.169 F 
HETATM   29  F   UNL     1     -41.973  56.949 -55.714  1.00  0.00    -0.169 F 
ENDBRANCH   9  26
BRANCH   1  30
HETATM   30  C   UNL     1     -40.560  53.118 -53.401  1.00  0.00     0.005 A 
HETATM   31  S   UNL     1     -40.117  52.773 -51.779  1.00  0.00    -0.104 SA
HETATM   32  C   UNL     1     -39.499  51.239 -52.203  1.00  0.00     0.050 A 
HETATM   33  C   UNL     1     -39.621  50.985 -53.551  1.00  0.00     0.008 A 
HETATM   34  C   UNL     1     -40.233  52.070 -54.243  1.00  0.00     0.017 A 
ENDBRANCH   1  30
TORSDOF 7
ENDMDL
MODEL 5
REMARK VINA RESULT:      -7.3      4.486      8.468
REMARK  7 active torsions:
REMARK  status: ('A' for Active; 'I' for Inactive)
REMARK    1  A    between atoms: C_4  and  C_5 
REMARK    2  A    between atoms: C_10  and  C_11 
REMARK       I    between atoms: C_11  and  N_12 
REMARK    3  A    between atoms: N_12  and  C_13 
REMARK    4  A    between atoms: C_13  and  C_14 
REMARK    5  A    between atoms: C_14  and  C_15 
REMARK    6  A    between atoms: C_15  and  N_16 
REMARK    7  A    between atoms: C_26  and  C_27 
ROOT
HETATM    1  C   UNL     1     -43.164  58.597 -59.452  1.00  0.00     0.125 C 
HETATM    2  N   UNL     1     -43.107  58.624 -57.986  1.00  0.00    -0.365 N 
HETATM    3  C   UNL     1     -43.120  57.478 -57.264  1.00  0.00     0.141 A 
HETATM    4  N   UNL     1     -42.942  56.263 -57.866  1.00  0.00    -0.238 N 
HETATM    5  N   UNL     1     -42.894  55.226 -57.007  1.00  0.00    -0.163 NA
HETATM    6  C   UNL     1     -43.139  55.795 -55.802  1.00  0.00     0.165 A 
HETATM    7  C   UNL     1     -43.268  57.200 -55.929  1.00  0.00     0.092 A 
HETATM    8 BR   UNL     1     -43.558  58.434 -54.550  1.00  0.00    -0.044 Br
HETATM    9  C   UNL     1     -42.798  56.078 -59.300  1.00  0.00     0.221 C 
HETATM   10  C   UNL     1     -42.344  57.392 -59.959  1.00  0.00     0.067 C 
HETATM   11  H   UNL     1     -43.443  59.495 -57.570  1.00  0.00     0.162 HD
ENDROOT
BRANCH   6  12
HETATM   12  C   UNL     1     -43.223  54.958 -54.599  1.00  0.00     0.273 C 
HETATM   13  N   UNL     1     -42.103  55.029 -53.793  1.00  0.00    -0.355 N 
HETATM   14  H   UNL     1     -41.335  55.576 -54.187  1.00  0.00     0.162 HD
HETATM   15  O   UNL     1     -44.189  54.262 -54.280  1.00  0.00    -0.266 OA
BRANCH  13  16
HETATM   16  C   UNL     1     -41.866  54.133 -52.687  1.00  0.00     0.124 C 
BRANCH  16  17
HETATM   17  C   UNL     1     -40.447  54.212 -52.122  1.00  0.00     0.047 C 
BRANCH  17  18
HETATM   18  C   UNL     1     -39.910  52.971 -51.407  1.00  0.00     0.236 C 
BRANCH  18  19
HETATM   19  N   UNL     1     -40.081  51.692 -52.178  1.00  0.00    -0.067 N 
HETATM   20  H   UNL     1     -41.102  51.480 -52.188  1.00  0.00     0.280 HD
HETATM   21  C   UNL     1     -39.572  51.722 -53.607  1.00  0.00     0.261 C 
HETATM   22  C   UNL     1     -39.819  50.366 -54.277  1.00  0.00     0.195 C 
HETATM   23  O   UNL     1     -39.201  49.306 -53.541  1.00  0.00    -0.388 OA
HETATM   24  C   UNL     1     -39.735  49.213 -52.214  1.00  0.00     0.195 C 
HETATM   25  C   UNL     1     -39.470  50.505 -51.433  1.00  0.00     0.261 C 
ENDBRANCH  18  19
ENDBRANCH  17  18
ENDBRANCH  16  17
ENDBRANCH  13  16
ENDBRANCH   6  12
BRANCH   9  26
HETATM   26  C   UNL     1     -44.098  55.562 -59.878  1.00  0.00     0.409 C 
HETATM   27  F   UNL     1     -44.192  54.216 -59.836  1.00  0.00    -0.169 F 
HETATM   28  F   UNL     1     -45.149  56.056 -59.181  1.00  0.00    -0.169 F 
HETATM   29  F   UNL     1     -44.271  55.943 -61.164  1.00  0.00    -0.169 F 
ENDBRANCH   9  26
BRANCH   1  30
HETATM   30  C   UNL     1     -42.650  59.869 -60.082  1.00  0.00     0.005 A 
HETATM   31  S   UNL     1     -43.105  61.391 -59.432  1.00  0.00    -0.104 SA
HETATM   32  C   UNL     1     -42.201  62.238 -60.607  1.00  0.00     0.050 A 
HETATM   33  C   UNL     1     -41.563  61.388 -61.482  1.00  0.00     0.008 A 
HETATM   34  C   UNL     1     -41.822  60.021 -61.179  1.00  0.00     0.017 A 
ENDBRANCH   1  30
TORSDOF 7
ENDMDL
MODEL 6
REMARK VINA RESULT:      -7.2      4.276      8.259
REMARK  7 active torsions:
REMARK  status: ('A' for Active; 'I' for Inactive)
REMARK    1  A    between atoms: C_4  and  C_5 
REMARK    2  A    between atoms: C_10  and  C_11 
REMARK       I    between atoms: C_11  and  N_12 
REMARK    3  A    between atoms: N_12  and  C_13 
REMARK    4  A    between atoms: C_13  and  C_14 
REMARK    5  A    between atoms: C_14  and  C_15 
REMARK    6  A    between atoms: C_15  and  N_16 
REMARK    7  A    between atoms: C_26  and  C_27 
ROOT
HETATM    1  C   UNL     1     -44.212  57.740 -56.594  1.00  0.00     0.125 C 
HETATM    2  N   UNL     1     -43.734  56.491 -55.990  1.00  0.00    -0.365 N 
HETATM    3  C   UNL     1     -43.638  56.356 -54.646  1.00  0.00     0.141 A 
HETATM    4  N   UNL     1     -44.203  57.273 -53.802  1.00  0.00    -0.238 N 
HETATM    5  N   UNL     1     -44.096  56.957 -52.497  1.00  0.00    -0.163 NA
HETATM    6  C   UNL     1     -43.351  55.825 -52.499  1.00  0.00     0.165 A 
HETATM    7  C   UNL     1     -43.065  55.418 -53.826  1.00  0.00     0.092 A 
HETATM    8 BR   UNL     1     -42.115  53.893 -54.356  1.00  0.00    -0.044 Br
HETATM    9  C   UNL     1     -44.878  58.480 -54.246  1.00  0.00     0.221 C 
HETATM   10  C   UNL     1     -45.333  58.324 -55.708  1.00  0.00     0.067 C 
HETATM   11  H   UNL     1     -43.144  55.928 -56.605  1.00  0.00     0.162 HD
ENDROOT
BRANCH   6  12
HETATM   12  C   UNL     1     -42.970  55.195 -51.230  1.00  0.00     0.273 C 
HETATM   13  N   UNL     1     -41.626  55.312 -50.932  1.00  0.00    -0.355 N 
HETATM   14  H   UNL     1     -41.065  55.736 -51.675  1.00  0.00     0.162 HD
HETATM   15  O   UNL     1     -43.742  54.627 -50.455  1.00  0.00    -0.266 OA
BRANCH  13  16
HETATM   16  C   UNL     1     -40.985  54.586 -49.863  1.00  0.00     0.124 C 
BRANCH  16  17
HETATM   17  C   UNL     1     -40.664  53.132 -50.208  1.00  0.00     0.047 C 
BRANCH  17  18
HETATM   18  C   UNL     1     -39.711  52.885 -51.378  1.00  0.00     0.236 C 
BRANCH  18  19
HETATM   19  N   UNL     1     -39.962  51.600 -52.119  1.00  0.00    -0.067 N 
HETATM   20  H   UNL     1     -40.993  51.448 -52.117  1.00  0.00     0.280 HD
HETATM   21  C   UNL     1     -39.464  51.569 -53.551  1.00  0.00     0.261 C 
HETATM   22  C   UNL     1     -39.795  50.215 -54.189  1.00  0.00     0.195 C 
HETATM   23  O   UNL     1     -39.233  49.137 -53.432  1.00  0.00    -0.388 OA
HETATM   24  C   UNL     1     -39.760  49.106 -52.100  1.00  0.00     0.195 C 
HETATM   25  C   UNL     1     -39.414  50.397 -51.350  1.00  0.00     0.261 C 
ENDBRANCH  18  19
ENDBRANCH  17  18
ENDBRANCH  16  17
ENDBRANCH  13  16
ENDBRANCH   6  12
BRANCH   9  26
HETATM   26  C   UNL     1     -43.967  59.673 -54.050  1.00  0.00     0.409 C 
HETATM   27  F   UNL     1     -44.048  60.195 -52.808  1.00  0.00    -0.169 F 
HETATM   28  F   UNL     1     -42.676  59.312 -54.247  1.00  0.00    -0.169 F 
HETATM   29  F   UNL     1     -44.230  60.665 -54.930  1.00  0.00    -0.169 F 
ENDBRANCH   9  26
BRANCH   1  30
HETATM   30  C   UNL     1     -44.719  57.552 -58.004  1.00  0.00     0.005 A 
HETATM   31  S   UNL     1     -43.906  56.481 -59.070  1.00  0.00    -0.104 SA
HETATM   32  C   UNL     1     -44.993  56.817 -60.344  1.00  0.00     0.050 A 
HETATM   33  C   UNL     1     -45.958  57.727 -59.974  1.00  0.00     0.008 A 
HETATM   34  C   UNL     1     -45.800  58.152 -58.624  1.00  0.00     0.017 A 
ENDBRANCH   1  30
TORSDOF 7
ENDMDL
MODEL 7
REMARK VINA RESULT:      -7.2      2.922      3.741
REMARK  7 active torsions:
REMARK  status: ('A' for Active; 'I' for Inactive)
REMARK    1  A    between atoms: C_4  and  C_5 
REMARK    2  A    between atoms: C_10  and  C_11 
REMARK       I    between atoms: C_11  and  N_12 
REMARK    3  A    between atoms: N_12  and  C_13 
REMARK    4  A    between atoms: C_13  and  C_14 
REMARK    5  A    between atoms: C_14  and  C_15 
REMARK    6  A    between atoms: C_15  and  N_16 
REMARK    7  A    between atoms: C_26  and  C_27 
ROOT
HETATM    1  C   UNL     1     -41.099  52.998 -52.811  1.00  0.00     0.125 C 
HETATM    2  N   UNL     1     -41.306  53.817 -54.012  1.00  0.00    -0.365 N 
HETATM    3  C   UNL     1     -41.508  55.153 -53.921  1.00  0.00     0.141 A 
HETATM    4  N   UNL     1     -41.288  55.823 -52.748  1.00  0.00    -0.238 N 
HETATM    5  N   UNL     1     -41.450  57.157 -52.838  1.00  0.00    -0.163 NA
HETATM    6  C   UNL     1     -41.878  57.344 -54.110  1.00  0.00     0.165 A 
HETATM    7  C   UNL     1     -41.908  56.115 -54.814  1.00  0.00     0.092 A 
HETATM    8 BR   UNL     1     -42.377  55.855 -56.608  1.00  0.00    -0.044 Br
HETATM    9  C   UNL     1     -40.898  55.179 -51.505  1.00  0.00     0.221 C 
HETATM   10  C   UNL     1     -40.264  53.808 -51.796  1.00  0.00     0.067 C 
HETATM   11  H   UNL     1     -41.664  53.298 -54.815  1.00  0.00     0.162 HD
ENDROOT
BRANCH   6  12
HETATM   12  C   UNL     1     -42.221  58.692 -54.578  1.00  0.00     0.273 C 
HETATM   13  N   UNL     1     -43.550  58.840 -54.923  1.00  0.00    -0.355 N 
HETATM   14  H   UNL     1     -44.091  57.973 -54.897  1.00  0.00     0.162 HD
HETATM   15  O   UNL     1     -41.439  59.642 -54.648  1.00  0.00    -0.266 OA
BRANCH  13  16
HETATM   16  C   UNL     1     -44.064  59.997 -55.615  1.00  0.00     0.124 C 
BRANCH  16  17
HETATM   17  C   UNL     1     -43.882  59.942 -57.132  1.00  0.00     0.047 C 
BRANCH  17  18
HETATM   18  C   UNL     1     -44.960  59.218 -57.940  1.00  0.00     0.236 C 
BRANCH  18  19
HETATM   19  N   UNL     1     -44.487  57.958 -58.611  1.00  0.00    -0.067 N 
HETATM   20  H   UNL     1     -44.010  57.388 -57.880  1.00  0.00     0.280 HD
HETATM   21  C   UNL     1     -45.573  57.118 -59.256  1.00  0.00     0.261 C 
HETATM   22  C   UNL     1     -44.957  55.865 -59.889  1.00  0.00     0.195 C 
HETATM   23  O   UNL     1     -43.948  56.212 -60.843  1.00  0.00    -0.388 OA
HETATM   24  C   UNL     1     -42.874  56.934 -60.228  1.00  0.00     0.195 C 
HETATM   25  C   UNL     1     -43.381  58.249 -59.626  1.00  0.00     0.261 C 
ENDBRANCH  18  19
ENDBRANCH  17  18
ENDBRANCH  16  17
ENDBRANCH  13  16
ENDBRANCH   6  12
BRANCH   9  26
HETATM   26  C   UNL     1     -42.098  55.078 -50.588  1.00  0.00     0.409 C 
HETATM   27  F   UNL     1     -43.230  54.746 -51.243  1.00  0.00    -0.169 F 
HETATM   28  F   UNL     1     -41.888  54.126 -49.647  1.00  0.00    -0.169 F 
HETATM   29  F   UNL     1     -42.332  56.233 -49.926  1.00  0.00    -0.169 F 
ENDBRANCH   9  26
BRANCH   1  30
HETATM   30  C   UNL     1     -40.413  51.687 -53.108  1.00  0.00     0.005 A 
HETATM   31  S   UNL     1     -39.688  50.793 -51.836  1.00  0.00    -0.104 SA
HETATM   32  C   UNL     1     -39.169  49.565 -52.904  1.00  0.00     0.050 A 
HETATM   33  C   UNL     1     -39.536  49.822 -54.206  1.00  0.00     0.008 A 
HETATM   34  C   UNL     1     -40.253  51.047 -54.324  1.00  0.00     0.017 A 
ENDBRANCH   1  30
TORSDOF 7
ENDMDL
MODEL 8
REMARK VINA RESULT:      -7.0      2.888      3.405
REMARK  7 active torsions:
REMARK  status: ('A' for Active; 'I' for Inactive)
REMARK    1  A    between atoms: C_4  and  C_5 
REMARK    2  A    between atoms: C_10  and  C_11 
REMARK       I    between atoms: C_11  and  N_12 
REMARK    3  A    between atoms: N_12  and  C_13 
REMARK    4  A    between atoms: C_13  and  C_14 
REMARK    5  A    between atoms: C_14  and  C_15 
REMARK    6  A    between atoms: C_15  and  N_16 
REMARK    7  A    between atoms: C_26  and  C_27 
ROOT
HETATM    1  C   UNL     1     -41.734  54.594 -52.777  1.00  0.00     0.125 C 
HETATM    2  N   UNL     1     -41.952  54.783 -54.216  1.00  0.00    -0.365 N 
HETATM    3  C   UNL     1     -42.304  55.992 -54.717  1.00  0.00     0.141 A 
HETATM    4  N   UNL     1     -42.234  57.122 -53.949  1.00  0.00    -0.238 N 
HETATM    5  N   UNL     1     -42.535  58.256 -54.611  1.00  0.00    -0.163 NA
HETATM    6  C   UNL     1     -42.899  57.822 -55.843  1.00  0.00     0.165 A 
HETATM    7  C   UNL     1     -42.749  56.417 -55.942  1.00  0.00     0.092 A 
HETATM    8 BR   UNL     1     -43.071  55.354 -57.450  1.00  0.00    -0.044 Br
HETATM    9  C   UNL     1     -41.856  57.131 -52.546  1.00  0.00     0.221 C 
HETATM   10  C   UNL     1     -41.059  55.859 -52.205  1.00  0.00     0.067 C 
HETATM   11  H   UNL     1     -42.200  53.929 -54.718  1.00  0.00     0.162 HD
ENDROOT
BRANCH   6  12
HETATM   12  C   UNL     1     -43.356  58.783 -56.853  1.00  0.00     0.273 C 
HETATM   13  N   UNL     1     -42.426  59.034 -57.843  1.00  0.00    -0.355 N 
HETATM   14  H   UNL     1     -41.516  58.594 -57.688  1.00  0.00     0.162 HD
HETATM   15  O   UNL     1     -44.465  59.320 -56.876  1.00  0.00    -0.266 OA
BRANCH  13  16
HETATM   16  C   UNL     1     -42.562  60.100 -58.805  1.00  0.00     0.124 C 
BRANCH  16  17
HETATM   17  C   UNL     1     -43.024  59.632 -60.186  1.00  0.00     0.047 C 
BRANCH  17  18
HETATM   18  C   UNL     1     -44.531  59.575 -60.437  1.00  0.00     0.236 C 
BRANCH  18  19
HETATM   19  N   UNL     1     -45.064  58.190 -60.683  1.00  0.00    -0.067 N 
HETATM   20  H   UNL     1     -45.417  58.173 -61.664  1.00  0.00     0.280 HD
HETATM   21  C   UNL     1     -44.060  57.066 -60.505  1.00  0.00     0.261 C 
HETATM   22  C   UNL     1     -44.728  55.719 -60.797  1.00  0.00     0.195 C 
HETATM   23  O   UNL     1     -45.871  55.516 -59.959  1.00  0.00    -0.388 OA
HETATM   24  C   UNL     1     -46.864  56.526 -60.180  1.00  0.00     0.195 C 
HETATM   25  C   UNL     1     -46.310  57.914 -59.841  1.00  0.00     0.261 C 
ENDBRANCH  18  19
ENDBRANCH  17  18
ENDBRANCH  16  17
ENDBRANCH  13  16
ENDBRANCH   6  12
BRANCH   9  26
HETATM   26  C   UNL     1     -43.094  57.283 -51.688  1.00  0.00     0.409 C 
HETATM   27  F   UNL     1     -44.208  56.812 -52.288  1.00  0.00    -0.169 F 
HETATM   28  F   UNL     1     -42.946  56.598 -50.528  1.00  0.00    -0.169 F 
HETATM   29  F   UNL     1     -43.324  58.571 -51.351  1.00  0.00    -0.169 F 
ENDBRANCH   9  26
BRANCH   1  30
HETATM   30  C   UNL     1     -40.892  53.380 -52.467  1.00  0.00     0.005 A 
HETATM   31  S   UNL     1     -40.308  52.395 -53.746  1.00  0.00    -0.104 SA
HETATM   32  C   UNL     1     -39.531  51.329 -52.660  1.00  0.00     0.050 A 
HETATM   33  C   UNL     1     -39.709  51.707 -51.348  1.00  0.00     0.008 A 
HETATM   34  C   UNL     1     -40.495  52.890 -51.237  1.00  0.00     0.017 A 
ENDBRANCH   1  30
TORSDOF 7
ENDMDL
MODEL 9
REMARK VINA RESULT:      -7.0      3.958      8.315
REMARK  7 active torsions:
REMARK  status: ('A' for Active; 'I' for Inactive)
REMARK    1  A    between atoms: C_4  and  C_5 
REMARK    2  A    between atoms: C_10  and  C_11 
REMARK       I    between atoms: C_11  and  N_12 
REMARK    3  A    between atoms: N_12  and  C_13 
REMARK    4  A    between atoms: C_13  and  C_14 
REMARK    5  A    between atoms: C_14  and  C_15 
REMARK    6  A    between atoms: C_15  and  N_16 
REMARK    7  A    between atoms: C_26  and  C_27 
ROOT
HETATM    1  C   UNL     1     -43.536  58.255 -59.890  1.00  0.00     0.125 C 
HETATM    2  N   UNL     1     -43.344  58.423 -58.445  1.00  0.00    -0.365 N 
HETATM    3  C   UNL     1     -43.247  57.351 -57.622  1.00  0.00     0.141 A 
HETATM    4  N   UNL     1     -43.081  56.089 -58.124  1.00  0.00    -0.238 N 
HETATM    5  N   UNL     1     -42.916  55.141 -57.182  1.00  0.00    -0.163 NA
HETATM    6  C   UNL     1     -43.069  55.815 -56.016  1.00  0.00     0.165 A 
HETATM    7  C   UNL     1     -43.260  57.197 -56.260  1.00  0.00     0.092 A 
HETATM    8 BR   UNL     1     -43.467  58.548 -54.979  1.00  0.00    -0.044 Br
HETATM    9  C   UNL     1     -43.064  55.773 -59.543  1.00  0.00     0.221 C 
HETATM   10  C   UNL     1     -42.722  57.031 -60.360  1.00  0.00     0.067 C 
HETATM   11  H   UNL     1     -43.671  59.320 -58.080  1.00  0.00     0.162 HD
ENDROOT
BRANCH   6  12
HETATM   12  C   UNL     1     -43.010  55.094 -54.740  1.00  0.00     0.273 C 
HETATM   13  N   UNL     1     -41.740  54.673 -54.396  1.00  0.00    -0.355 N 
HETATM   14  H   UNL     1     -41.033  54.835 -55.117  1.00  0.00     0.162 HD
HETATM   15  O   UNL     1     -43.969  54.884 -53.994  1.00  0.00    -0.266 OA
BRANCH  13  16
HETATM   16  C   UNL     1     -41.474  53.760 -53.311  1.00  0.00     0.124 C 
BRANCH  16  17
HETATM   17  C   UNL     1     -40.988  54.444 -52.033  1.00  0.00     0.047 C 
BRANCH  17  18
HETATM   18  C   UNL     1     -42.054  54.929 -51.050  1.00  0.00     0.236 C 
BRANCH  18  19
HETATM   19  N   UNL     1     -42.684  56.243 -51.421  1.00  0.00    -0.067 N 
HETATM   20  H   UNL     1     -42.693  56.289 -52.463  1.00  0.00     0.280 HD
HETATM   21  C   UNL     1     -44.096  56.455 -50.908  1.00  0.00     0.261 C 
HETATM   22  C   UNL     1     -44.618  57.821 -51.367  1.00  0.00     0.195 C 
HETATM   23  O   UNL     1     -43.755  58.877 -50.931  1.00  0.00    -0.388 OA
HETATM   24  C   UNL     1     -42.439  58.733 -51.478  1.00  0.00     0.195 C 
HETATM   25  C   UNL     1     -41.799  57.421 -51.013  1.00  0.00     0.261 C 
ENDBRANCH  18  19
ENDBRANCH  17  18
ENDBRANCH  16  17
ENDBRANCH  13  16
ENDBRANCH   6  12
BRANCH   9  26
HETATM   26  C   UNL     1     -44.392  55.168 -59.943  1.00  0.00     0.409 C 
HETATM   27  F   UNL     1     -45.444  55.787 -59.367  1.00  0.00    -0.169 F 
HETATM   28  F   UNL     1     -44.562  55.259 -61.285  1.00  0.00    -0.169 F 
HETATM   29  F   UNL     1     -44.469  53.855 -59.631  1.00  0.00    -0.169 F 
ENDBRANCH   9  26
BRANCH   1  30
HETATM   30  C   UNL     1     -43.129  59.475 -60.680  1.00  0.00     0.005 A 
HETATM   31  S   UNL     1     -44.317  60.392 -61.513  1.00  0.00    -0.104 SA
HETATM   32  C   UNL     1     -43.151  61.487 -62.110  1.00  0.00     0.050 A 
HETATM   33  C   UNL     1     -41.879  61.169 -61.690  1.00  0.00     0.008 A 
HETATM   34  C   UNL     1     -41.866  60.007 -60.865  1.00  0.00     0.017 A 
ENDBRANCH   1  30
TORSDOF 7
ENDMDL
MODEL 10
REMARK VINA RESULT:      -7.0      3.456      7.660
REMARK  7 active torsions:
REMARK  status: ('A' for Active; 'I' for Inactive)
REMARK    1  A    between atoms: C_4  and  C_5 
REMARK    2  A    between atoms: C_10  and  C_11 
REMARK       I    between atoms: C_11  and  N_12 
REMARK    3  A    between atoms: N_12  and  C_13 
REMARK    4  A    between atoms: C_13  and  C_14 
REMARK    5  A    between atoms: C_14  and  C_15 
REMARK    6  A    between atoms: C_15  and  N_16 
REMARK    7  A    between atoms: C_26  and  C_27 
ROOT
HETATM    1  C   UNL     1     -45.027  57.708 -56.191  1.00  0.00     0.125 C 
HETATM    2  N   UNL     1     -44.961  58.047 -54.764  1.00  0.00    -0.365 N 
HETATM    3  C   UNL     1     -43.911  57.660 -54.001  1.00  0.00     0.141 A 
HETATM    4  N   UNL     1     -42.771  57.160 -54.570  1.00  0.00    -0.238 N 
HETATM    5  N   UNL     1     -41.786  56.901 -53.689  1.00  0.00    -0.163 NA
HETATM    6  C   UNL     1     -42.351  57.168 -52.486  1.00  0.00     0.165 A 
HETATM    7  C   UNL     1     -43.669  57.659 -52.651  1.00  0.00     0.092 A 
HETATM    8 BR   UNL     1     -44.841  58.215 -51.300  1.00  0.00    -0.044 Br
HETATM    9  C   UNL     1     -42.605  56.933 -55.995  1.00  0.00     0.221 C 
HETATM   10  C   UNL     1     -43.606  57.793 -56.788  1.00  0.00     0.067 C 
HETATM   11  H   UNL     1     -45.871  58.220 -54.333  1.00  0.00     0.162 HD
ENDROOT
BRANCH   6  12
HETATM   12  C   UNL     1     -41.587  56.948 -51.252  1.00  0.00     0.273 C 
HETATM   13  N   UNL     1     -41.267  55.624 -51.024  1.00  0.00    -0.355 N 
HETATM   14  H   UNL     1     -41.683  54.969 -51.691  1.00  0.00     0.162 HD
HETATM   15  O   UNL     1     -41.219  57.831 -50.475  1.00  0.00    -0.266 OA
BRANCH  13  16
HETATM   16  C   UNL     1     -40.724  55.144 -49.777  1.00  0.00     0.124 C 
BRANCH  16  17
HETATM   17  C   UNL     1     -39.712  54.009 -49.939  1.00  0.00     0.047 C 
BRANCH  17  18
HETATM   18  C   UNL     1     -40.251  52.653 -50.397  1.00  0.00     0.236 C 
BRANCH  18  19
HETATM   19  N   UNL     1     -39.900  52.297 -51.816  1.00  0.00    -0.067 N 
HETATM   20  H   UNL     1     -39.004  52.783 -52.035  1.00  0.00     0.280 HD
HETATM   21  C   UNL     1     -39.734  50.814 -52.091  1.00  0.00     0.261 C 
HETATM   22  C   UNL     1     -39.367  50.595 -53.563  1.00  0.00     0.195 C 
HETATM   23  O   UNL     1     -40.352  51.166 -54.431  1.00  0.00    -0.388 OA
HETATM   24  C   UNL     1     -40.457  52.582 -54.238  1.00  0.00     0.195 C 
HETATM   25  C   UNL     1     -40.895  52.903 -52.805  1.00  0.00     0.261 C 
ENDBRANCH  18  19
ENDBRANCH  17  18
ENDBRANCH  16  17
ENDBRANCH  13  16
ENDBRANCH   6  12
BRANCH   9  26
HETATM   26  C   UNL     1     -42.749  55.457 -56.294  1.00  0.00     0.409 C 
HETATM   27  F   UNL     1     -43.574  54.826 -55.431  1.00  0.00    -0.169 F 
HETATM   28  F   UNL     1     -43.261  55.279 -57.536  1.00  0.00    -0.169 F 
HETATM   29  F   UNL     1     -41.561  54.813 -56.269  1.00  0.00    -0.169 F 
ENDBRANCH   9  26
BRANCH   1  30
HETATM   30  C   UNL     1     -45.961  58.608 -56.963  1.00  0.00     0.005 A 
HETATM   31  S   UNL     1     -45.938  60.302 -56.691  1.00  0.00    -0.104 SA
HETATM   32  C   UNL     1     -47.178  60.570 -57.835  1.00  0.00     0.050 A 
HETATM   33  C   UNL     1     -47.609  59.398 -58.416  1.00  0.00     0.008 A 
HETATM   34  C   UNL     1     -46.907  58.266 -57.913  1.00  0.00     0.017 A 
ENDBRANCH   1  30
TORSDOF 7
ENDMDL
