MODEL 1
REMARK VINA RESULT:      -9.9      0.000      0.000
REMARK  6 active torsions:
REMARK  status: ('A' for Active; 'I' for Inactive)
REMARK    1  A    between atoms: C_2  and  C_3 
REMARK    2  A    between atoms: N_6  and  C_8 
REMARK    3  A    between atoms: C_8  and  C_9 
REMARK    4  A    between atoms: C_12  and  C_13 
REMARK    5  A    between atoms: C_13  and  O_14 
REMARK    6  A    between atoms: N_24  and  C_25 
ROOT
HETATM    1  C   UNL     1     -44.223  54.783 -50.526  1.00  0.00     0.049 C 
HETATM    2  C   UNL     1     -43.502  55.621 -51.589  1.00  0.00     0.116 C 
HETATM    3  N   UNL     1     -43.755  55.078 -52.901  1.00  0.00    -0.324 N 
HETATM    4  C   UNL     1     -42.678  54.355 -53.377  1.00  0.00     0.326 C 
HETATM    5  O   UNL     1     -42.751  53.744 -54.426  1.00  0.00    -0.247 OA
HETATM    6  N   UNL     1     -41.638  54.483 -52.512  1.00  0.00    -0.263 N 
HETATM    7  C   UNL     1     -41.994  55.314 -51.484  1.00  0.00     0.256 C 
HETATM    8  O   UNL     1     -41.260  55.750 -50.608  1.00  0.00    -0.270 OA
HETATM    9  H   UNL     1     -44.654  54.737 -53.225  1.00  0.00     0.165 HD
ENDROOT
BRANCH   2  10
HETATM   10  C   UNL     1     -43.791  57.148 -51.467  1.00  0.00     0.026 C 
HETATM   11  C   UNL     1     -44.829  57.683 -52.466  1.00  0.00     0.035 C 
HETATM   12  C   UNL     1     -44.297  57.882 -53.880  1.00  0.00     0.235 C 
HETATM   13  N   UNL     1     -43.064  58.752 -53.873  1.00  0.00    -0.067 N 
HETATM   14  H   UNL     1     -43.361  59.685 -53.560  1.00  0.00     0.280 HD
HETATM   15  C   UNL     1     -41.990  58.268 -52.928  1.00  0.00     0.235 C 
HETATM   16  C   UNL     1     -42.552  58.065 -51.530  1.00  0.00     0.035 C 
BRANCH  13  17
HETATM   17  C   UNL     1     -42.465  58.946 -55.261  1.00  0.00     0.273 C 
BRANCH  17  18
HETATM   18  C   UNL     1     -42.915  57.934 -56.280  1.00  0.00    -0.033 A 
HETATM   19  C   UNL     1     -42.403  56.629 -56.280  1.00  0.00     0.010 A 
HETATM   20  C   UNL     1     -42.797  55.718 -57.265  1.00  0.00     0.018 A 
HETATM   21  C   UNL     1     -43.703  56.094 -58.266  1.00  0.00     0.039 A 
HETATM   22  C   UNL     1     -44.225  57.393 -58.260  1.00  0.00     0.018 A 
HETATM   23  C   UNL     1     -43.836  58.304 -57.275  1.00  0.00     0.010 A 
BRANCH  21  24
HETATM   24  C   UNL     1     -44.070  55.091 -59.302  1.00  0.00     0.292 C 
HETATM   25  O   UNL     1     -44.301  53.922 -59.045  1.00  0.00    -0.259 OA
BRANCH  24  26
HETATM   26  O   UNL     1     -44.079  55.660 -60.532  1.00  0.00    -0.323 OA
HETATM   27  C   UNL     1     -45.052  55.107 -61.423  1.00  0.00     0.213 C 
ENDBRANCH  24  26
ENDBRANCH  21  24
ENDBRANCH  17  18
ENDBRANCH  13  17
ENDBRANCH   2  10
BRANCH   6  28
HETATM   28  C   UNL     1     -40.268  53.987 -52.696  1.00  0.00     0.106 C 
HETATM   29  C   UNL     1     -39.773  53.043 -51.574  1.00  0.00     0.065 C 
HETATM   30  C   UNL     1     -39.783  51.702 -52.237  1.00  0.00    -0.050 A 
HETATM   31  C   UNL     1     -39.962  51.811 -53.617  1.00  0.00    -0.050 A 
HETATM   32  C   UNL     1     -39.584  50.468 -51.638  1.00  0.00     0.007 A 
HETATM   33  C   UNL     1     -40.099  53.238 -54.040  1.00  0.00     0.065 C 
HETATM   34  C   UNL     1     -39.934  50.688 -54.430  1.00  0.00     0.007 A 
HETATM   35  C   UNL     1     -39.738  49.440 -53.835  1.00  0.00     0.001 A 
HETATM   36  C   UNL     1     -39.565  49.330 -52.447  1.00  0.00     0.001 A 
ENDBRANCH   6  28
TORSDOF 6
ENDMDL
MODEL 2
REMARK VINA RESULT:      -9.4      2.234      7.481
REMARK  6 active torsions:
REMARK  status: ('A' for Active; 'I' for Inactive)
REMARK    1  A    between atoms: C_2  and  C_3 
REMARK    2  A    between atoms: N_6  and  C_8 
REMARK    3  A    between atoms: C_8  and  C_9 
REMARK    4  A    between atoms: C_12  and  C_13 
REMARK    5  A    between atoms: C_13  and  O_14 
REMARK    6  A    between atoms: N_24  and  C_25 
ROOT
HETATM    1  C   UNL     1     -40.638  57.168 -53.901  1.00  0.00     0.049 C 
HETATM    2  C   UNL     1     -42.146  57.274 -54.159  1.00  0.00     0.116 C 
HETATM    3  N   UNL     1     -42.644  56.030 -54.691  1.00  0.00    -0.324 N 
HETATM    4  C   UNL     1     -42.855  56.099 -56.055  1.00  0.00     0.326 C 
HETATM    5  O   UNL     1     -43.181  55.113 -56.687  1.00  0.00    -0.247 OA
HETATM    6  N   UNL     1     -42.653  57.376 -56.473  1.00  0.00    -0.263 N 
HETATM    7  C   UNL     1     -42.348  58.168 -55.398  1.00  0.00     0.256 C 
HETATM    8  O   UNL     1     -42.238  59.386 -55.396  1.00  0.00    -0.270 OA
HETATM    9  H   UNL     1     -42.374  55.108 -54.364  1.00  0.00     0.165 HD
ENDROOT
BRANCH   2  10
HETATM   10  C   UNL     1     -42.943  57.803 -52.928  1.00  0.00     0.026 C 
HETATM   11  C   UNL     1     -42.088  58.533 -51.879  1.00  0.00     0.035 C 
HETATM   12  C   UNL     1     -41.277  57.611 -50.977  1.00  0.00     0.235 C 
HETATM   13  N   UNL     1     -42.165  56.584 -50.321  1.00  0.00    -0.067 N 
HETATM   14  H   UNL     1     -42.796  57.095 -49.690  1.00  0.00     0.280 HD
HETATM   15  C   UNL     1     -43.017  55.810 -51.298  1.00  0.00     0.235 C 
HETATM   16  C   UNL     1     -43.804  56.754 -52.194  1.00  0.00     0.035 C 
BRANCH  13  17
HETATM   17  C   UNL     1     -41.395  55.607 -49.440  1.00  0.00     0.273 C 
BRANCH  17  18
HETATM   18  C   UNL     1     -40.891  54.384 -50.158  1.00  0.00    -0.033 A 
HETATM   19  C   UNL     1     -40.676  54.396 -51.543  1.00  0.00     0.010 A 
HETATM   20  C   UNL     1     -40.254  53.235 -52.200  1.00  0.00     0.018 A 
HETATM   21  C   UNL     1     -40.045  52.046 -51.488  1.00  0.00     0.039 A 
HETATM   22  C   UNL     1     -40.248  52.036 -50.103  1.00  0.00     0.018 A 
HETATM   23  C   UNL     1     -40.665  53.195 -49.444  1.00  0.00     0.010 A 
BRANCH  21  24
HETATM   24  C   UNL     1     -39.619  50.835 -52.241  1.00  0.00     0.292 C 
HETATM   25  O   UNL     1     -39.447  49.749 -51.713  1.00  0.00    -0.259 OA
BRANCH  24  26
HETATM   26  O   UNL     1     -39.436  51.130 -53.550  1.00  0.00    -0.323 OA
HETATM   27  C   UNL     1     -39.830  50.085 -54.444  1.00  0.00     0.213 C 
ENDBRANCH  24  26
ENDBRANCH  21  24
ENDBRANCH  17  18
ENDBRANCH  13  17
ENDBRANCH   2  10
BRANCH   6  28
HETATM   28  C   UNL     1     -42.895  57.916 -57.817  1.00  0.00     0.106 C 
HETATM   29  C   UNL     1     -42.553  56.942 -58.970  1.00  0.00     0.065 C 
HETATM   30  C   UNL     1     -43.901  56.528 -59.468  1.00  0.00    -0.050 A 
HETATM   31  C   UNL     1     -44.916  57.323 -58.932  1.00  0.00    -0.050 A 
HETATM   32  C   UNL     1     -44.186  55.535 -60.392  1.00  0.00     0.007 A 
HETATM   33  C   UNL     1     -44.366  58.359 -58.006  1.00  0.00     0.065 C 
HETATM   34  C   UNL     1     -46.236  57.150 -59.317  1.00  0.00     0.007 A 
HETATM   35  C   UNL     1     -46.532  56.149 -60.246  1.00  0.00     0.001 A 
HETATM   36  C   UNL     1     -45.514  55.345 -60.778  1.00  0.00     0.001 A 
ENDBRANCH   6  28
TORSDOF 6
ENDMDL
MODEL 3
REMARK VINA RESULT:      -9.3      2.481      6.254
REMARK  6 active torsions:
REMARK  status: ('A' for Active; 'I' for Inactive)
REMARK    1  A    between atoms: C_2  and  C_3 
REMARK    2  A    between atoms: N_6  and  C_8 
REMARK    3  A    between atoms: C_8  and  C_9 
REMARK    4  A    between atoms: C_12  and  C_13 
REMARK    5  A    between atoms: C_13  and  O_14 
REMARK    6  A    between atoms: N_24  and  C_25 
ROOT
HETATM    1  C   UNL     1     -41.800  58.406 -58.448  1.00  0.00     0.049 C 
HETATM    2  C   UNL     1     -42.851  58.168 -57.356  1.00  0.00     0.116 C 
HETATM    3  N   UNL     1     -42.279  58.426 -56.057  1.00  0.00    -0.324 N 
HETATM    4  C   UNL     1     -41.965  57.258 -55.389  1.00  0.00     0.326 C 
HETATM    5  O   UNL     1     -41.385  57.287 -54.321  1.00  0.00    -0.247 OA
HETATM    6  N   UNL     1     -42.415  56.198 -56.110  1.00  0.00    -0.263 N 
HETATM    7  C   UNL     1     -43.061  56.645 -57.232  1.00  0.00     0.256 C 
HETATM    8  O   UNL     1     -43.699  55.970 -58.027  1.00  0.00    -0.270 OA
HETATM    9  H   UNL     1     -41.665  59.204 -55.837  1.00  0.00     0.165 HD
ENDROOT
BRANCH   2  10
HETATM   10  C   UNL     1     -44.191  58.917 -57.621  1.00  0.00     0.026 C 
HETATM   11  C   UNL     1     -44.180  60.404 -57.231  1.00  0.00     0.035 C 
HETATM   12  C   UNL     1     -44.314  60.663 -55.735  1.00  0.00     0.235 C 
HETATM   13  N   UNL     1     -45.535  59.972 -55.178  1.00  0.00    -0.067 N 
HETATM   14  H   UNL     1     -46.353  60.424 -55.606  1.00  0.00     0.280 HD
HETATM   15  C   UNL     1     -45.597  58.500 -55.504  1.00  0.00     0.235 C 
HETATM   16  C   UNL     1     -45.447  58.271 -57.000  1.00  0.00     0.035 C 
BRANCH  13  17
HETATM   17  C   UNL     1     -45.691  60.163 -53.673  1.00  0.00     0.273 C 
BRANCH  17  18
HETATM   18  C   UNL     1     -44.512  59.700 -52.861  1.00  0.00    -0.033 A 
HETATM   19  C   UNL     1     -43.434  60.557 -52.597  1.00  0.00     0.010 A 
HETATM   20  C   UNL     1     -42.325  60.093 -51.881  1.00  0.00     0.018 A 
HETATM   21  C   UNL     1     -42.272  58.769 -51.423  1.00  0.00     0.039 A 
HETATM   22  C   UNL     1     -43.352  57.917 -51.675  1.00  0.00     0.018 A 
HETATM   23  C   UNL     1     -44.463  58.378 -52.386  1.00  0.00     0.010 A 
BRANCH  21  24
HETATM   24  C   UNL     1     -41.058  58.323 -50.687  1.00  0.00     0.292 C 
HETATM   25  O   UNL     1     -40.788  57.149 -50.497  1.00  0.00    -0.259 OA
BRANCH  24  26
HETATM   26  O   UNL     1     -40.344  59.390 -50.257  1.00  0.00    -0.323 OA
HETATM   27  C   UNL     1     -38.984  59.400 -50.701  1.00  0.00     0.213 C 
ENDBRANCH  24  26
ENDBRANCH  21  24
ENDBRANCH  17  18
ENDBRANCH  13  17
ENDBRANCH   2  10
BRANCH   6  28
HETATM   28  C   UNL     1     -42.408  54.786 -55.707  1.00  0.00     0.106 C 
HETATM   29  C   UNL     1     -41.059  54.293 -55.129  1.00  0.00     0.065 C 
HETATM   30  C   UNL     1     -41.350  54.162 -53.667  1.00  0.00    -0.050 A 
HETATM   31  C   UNL     1     -42.717  54.262 -53.402  1.00  0.00    -0.050 A 
HETATM   32  C   UNL     1     -40.443  53.909 -52.650  1.00  0.00     0.007 A 
HETATM   33  C   UNL     1     -43.502  54.479 -54.656  1.00  0.00     0.065 C 
HETATM   34  C   UNL     1     -43.208  54.101 -52.116  1.00  0.00     0.007 A 
HETATM   35  C   UNL     1     -42.300  53.849 -51.085  1.00  0.00     0.001 A 
HETATM   36  C   UNL     1     -40.926  53.756 -51.350  1.00  0.00     0.001 A 
ENDBRANCH   6  28
TORSDOF 6
ENDMDL
MODEL 4
REMARK VINA RESULT:      -8.8      1.917      2.814
REMARK  6 active torsions:
REMARK  status: ('A' for Active; 'I' for Inactive)
REMARK    1  A    between atoms: C_2  and  C_3 
REMARK    2  A    between atoms: N_6  and  C_8 
REMARK    3  A    between atoms: C_8  and  C_9 
REMARK    4  A    between atoms: C_12  and  C_13 
REMARK    5  A    between atoms: C_13  and  O_14 
REMARK    6  A    between atoms: N_24  and  C_25 
ROOT
HETATM    1  C   UNL     1     -45.502  58.556 -51.069  1.00  0.00     0.049 C 
HETATM    2  C   UNL     1     -44.595  58.869 -52.265  1.00  0.00     0.116 C 
HETATM    3  N   UNL     1     -44.769  57.870 -53.291  1.00  0.00    -0.324 N 
HETATM    4  C   UNL     1     -43.731  56.958 -53.307  1.00  0.00     0.326 C 
HETATM    5  O   UNL     1     -43.761  55.991 -54.042  1.00  0.00    -0.247 OA
HETATM    6  N   UNL     1     -42.776  57.356 -52.426  1.00  0.00    -0.263 N 
HETATM    7  C   UNL     1     -43.146  58.542 -51.851  1.00  0.00     0.256 C 
HETATM    8  O   UNL     1     -42.462  59.244 -51.118  1.00  0.00    -0.270 OA
HETATM    9  H   UNL     1     -45.662  57.481 -53.577  1.00  0.00     0.165 HD
ENDROOT
BRANCH   2  10
HETATM   10  C   UNL     1     -44.735  60.335 -52.774  1.00  0.00     0.026 C 
HETATM   11  C   UNL     1     -45.480  60.478 -54.112  1.00  0.00     0.035 C 
HETATM   12  C   UNL     1     -44.649  60.116 -55.337  1.00  0.00     0.235 C 
HETATM   13  N   UNL     1     -43.357  60.894 -55.359  1.00  0.00    -0.067 N 
HETATM   14  H   UNL     1     -43.608  61.883 -55.483  1.00  0.00     0.280 HD
HETATM   15  C   UNL     1     -42.560  60.777 -54.082  1.00  0.00     0.235 C 
HETATM   16  C   UNL     1     -43.417  61.131 -52.876  1.00  0.00     0.035 C 
BRANCH  13  17
HETATM   17  C   UNL     1     -42.467  60.535 -56.543  1.00  0.00     0.273 C 
BRANCH  17  18
HETATM   18  C   UNL     1     -42.858  59.268 -57.254  1.00  0.00    -0.033 A 
HETATM   19  C   UNL     1     -42.610  58.011 -56.683  1.00  0.00     0.010 A 
HETATM   20  C   UNL     1     -42.936  56.844 -57.381  1.00  0.00     0.018 A 
HETATM   21  C   UNL     1     -43.510  56.911 -58.658  1.00  0.00     0.039 A 
HETATM   22  C   UNL     1     -43.770  58.163 -59.224  1.00  0.00     0.018 A 
HETATM   23  C   UNL     1     -43.449  59.331 -58.528  1.00  0.00     0.010 A 
BRANCH  21  24
HETATM   24  C   UNL     1     -43.815  55.637 -59.364  1.00  0.00     0.292 C 
HETATM   25  O   UNL     1     -43.879  54.559 -58.796  1.00  0.00    -0.259 OA
BRANCH  24  26
HETATM   26  O   UNL     1     -43.980  55.856 -60.690  1.00  0.00    -0.323 OA
HETATM   27  C   UNL     1     -45.056  55.118 -61.275  1.00  0.00     0.213 C 
ENDBRANCH  24  26
ENDBRANCH  21  24
ENDBRANCH  17  18
ENDBRANCH  13  17
ENDBRANCH   2  10
BRANCH   6  28
HETATM   28  C   UNL     1     -41.453  56.752 -52.222  1.00  0.00     0.106 C 
HETATM   29  C   UNL     1     -41.486  55.325 -51.624  1.00  0.00     0.065 C 
HETATM   30  C   UNL     1     -41.116  54.464 -52.791  1.00  0.00    -0.050 A 
HETATM   31  C   UNL     1     -40.638  55.224 -53.860  1.00  0.00    -0.050 A 
HETATM   32  C   UNL     1     -41.153  53.080 -52.858  1.00  0.00     0.007 A 
HETATM   33  C   UNL     1     -40.639  56.683 -53.538  1.00  0.00     0.065 C 
HETATM   34  C   UNL     1     -40.177  54.615 -55.017  1.00  0.00     0.007 A 
HETATM   35  C   UNL     1     -40.213  53.221 -55.094  1.00  0.00     0.001 A 
HETATM   36  C   UNL     1     -40.700  52.459 -54.022  1.00  0.00     0.001 A 
ENDBRANCH   6  28
TORSDOF 6
ENDMDL
MODEL 5
REMARK VINA RESULT:      -8.8      3.326      6.834
REMARK  6 active torsions:
REMARK  status: ('A' for Active; 'I' for Inactive)
REMARK    1  A    between atoms: C_2  and  C_3 
REMARK    2  A    between atoms: N_6  and  C_8 
REMARK    3  A    between atoms: C_8  and  C_9 
REMARK    4  A    between atoms: C_12  and  C_13 
REMARK    5  A    between atoms: C_13  and  O_14 
REMARK    6  A    between atoms: N_24  and  C_25 
ROOT
HETATM    1  C   UNL     1     -40.402  58.442 -52.896  1.00  0.00     0.049 C 
HETATM    2  C   UNL     1     -41.848  58.207 -53.347  1.00  0.00     0.116 C 
HETATM    3  N   UNL     1     -42.734  58.257 -52.210  1.00  0.00    -0.324 N 
HETATM    4  C   UNL     1     -43.124  56.996 -51.803  1.00  0.00     0.326 C 
HETATM    5  O   UNL     1     -43.793  56.843 -50.798  1.00  0.00    -0.247 OA
HETATM    6  N   UNL     1     -42.656  56.077 -52.688  1.00  0.00    -0.263 N 
HETATM    7  C   UNL     1     -41.991  56.713 -53.702  1.00  0.00     0.256 C 
HETATM    8  O   UNL     1     -41.564  56.203 -54.728  1.00  0.00    -0.270 OA
HETATM    9  H   UNL     1     -42.672  58.932 -51.455  1.00  0.00     0.165 HD
ENDROOT
BRANCH   2  10
HETATM   10  C   UNL     1     -42.279  59.126 -54.530  1.00  0.00     0.026 C 
HETATM   11  C   UNL     1     -42.305  60.626 -54.196  1.00  0.00     0.035 C 
HETATM   12  C   UNL     1     -43.519  61.071 -53.388  1.00  0.00     0.235 C 
HETATM   13  N   UNL     1     -44.799  60.653 -54.069  1.00  0.00    -0.067 N 
HETATM   14  H   UNL     1     -44.851  61.178 -54.951  1.00  0.00     0.280 HD
HETATM   15  C   UNL     1     -44.851  59.182 -54.404  1.00  0.00     0.235 C 
HETATM   16  C   UNL     1     -43.623  58.764 -55.197  1.00  0.00     0.035 C 
BRANCH  13  17
HETATM   17  C   UNL     1     -46.044  61.035 -53.278  1.00  0.00     0.273 C 
BRANCH  17  18
HETATM   18  C   UNL     1     -45.871  60.993 -51.784  1.00  0.00    -0.033 A 
HETATM   19  C   UNL     1     -45.727  59.775 -51.106  1.00  0.00     0.010 A 
HETATM   20  C   UNL     1     -45.616  59.753 -49.712  1.00  0.00     0.018 A 
HETATM   21  C   UNL     1     -45.650  60.944 -48.973  1.00  0.00     0.039 A 
HETATM   22  C   UNL     1     -45.781  62.162 -49.649  1.00  0.00     0.018 A 
HETATM   23  C   UNL     1     -45.888  62.187 -51.042  1.00  0.00     0.010 A 
BRANCH  21  24
HETATM   24  C   UNL     1     -45.550  60.861 -47.491  1.00  0.00     0.292 C 
HETATM   25  O   UNL     1     -44.523  61.101 -46.878  1.00  0.00    -0.259 OA
BRANCH  24  26
HETATM   26  O   UNL     1     -46.731  60.467 -46.957  1.00  0.00    -0.323 OA
HETATM   27  C   UNL     1     -46.610  59.443 -45.965  1.00  0.00     0.213 C 
ENDBRANCH  24  26
ENDBRANCH  21  24
ENDBRANCH  17  18
ENDBRANCH  13  17
ENDBRANCH   2  10
BRANCH   6  28
HETATM   28  C   UNL     1     -42.947  54.638 -52.707  1.00  0.00     0.106 C 
HETATM   29  C   UNL     1     -42.471  53.905 -53.984  1.00  0.00     0.065 C 
HETATM   30  C   UNL     1     -41.291  53.123 -53.501  1.00  0.00    -0.050 A 
HETATM   31  C   UNL     1     -41.210  53.120 -52.108  1.00  0.00    -0.050 A 
HETATM   32  C   UNL     1     -40.383  52.412 -54.271  1.00  0.00     0.007 A 
HETATM   33  C   UNL     1     -42.324  53.905 -51.494  1.00  0.00     0.065 C 
HETATM   34  C   UNL     1     -40.226  52.396 -51.453  1.00  0.00     0.007 A 
HETATM   35  C   UNL     1     -39.306  51.679 -52.220  1.00  0.00     0.001 A 
HETATM   36  C   UNL     1     -39.383  51.688 -53.620  1.00  0.00     0.001 A 
ENDBRANCH   6  28
TORSDOF 6
ENDMDL
MODEL 6
REMARK VINA RESULT:      -8.7      4.806      8.347
REMARK  6 active torsions:
REMARK  status: ('A' for Active; 'I' for Inactive)
REMARK    1  A    between atoms: C_2  and  C_3 
REMARK    2  A    between atoms: N_6  and  C_8 
REMARK    3  A    between atoms: C_8  and  C_9 
REMARK    4  A    between atoms: C_12  and  C_13 
REMARK    5  A    between atoms: C_13  and  O_14 
REMARK    6  A    between atoms: N_24  and  C_25 
ROOT
HETATM    1  C   UNL     1     -42.356  58.816 -55.628  1.00  0.00     0.049 C 
HETATM    2  C   UNL     1     -43.100  58.567 -54.311  1.00  0.00     0.116 C 
HETATM    3  N   UNL     1     -42.154  58.370 -53.240  1.00  0.00    -0.324 N 
HETATM    4  C   UNL     1     -42.023  57.036 -52.904  1.00  0.00     0.326 C 
HETATM    5  O   UNL     1     -41.196  56.675 -52.089  1.00  0.00    -0.247 OA
HETATM    6  N   UNL     1     -42.935  56.310 -53.603  1.00  0.00    -0.263 N 
HETATM    7  C   UNL     1     -43.698  57.147 -54.372  1.00  0.00     0.256 C 
HETATM    8  O   UNL     1     -44.692  56.843 -55.017  1.00  0.00    -0.270 OA
HETATM    9  H   UNL     1     -41.306  58.912 -53.106  1.00  0.00     0.165 HD
ENDROOT
BRANCH   2  10
HETATM   10  C   UNL     1     -44.188  59.640 -54.008  1.00  0.00     0.026 C 
HETATM   11  C   UNL     1     -43.639  61.055 -53.764  1.00  0.00     0.035 C 
HETATM   12  C   UNL     1     -43.028  61.263 -52.383  1.00  0.00     0.235 C 
HETATM   13  N   UNL     1     -44.004  60.874 -51.300  1.00  0.00    -0.067 N 
HETATM   14  H   UNL     1     -44.787  61.538 -51.354  1.00  0.00     0.280 HD
HETATM   15  C   UNL     1     -44.565  59.483 -51.465  1.00  0.00     0.235 C 
HETATM   16  C   UNL     1     -45.155  59.299 -52.855  1.00  0.00     0.035 C 
BRANCH  13  17
HETATM   17  C   UNL     1     -43.425  61.022 -49.897  1.00  0.00     0.273 C 
BRANCH  17  18
HETATM   18  C   UNL     1     -44.291  61.803 -48.946  1.00  0.00    -0.033 A 
HETATM   19  C   UNL     1     -44.368  63.201 -49.019  1.00  0.00     0.010 A 
HETATM   20  C   UNL     1     -45.140  63.913 -48.094  1.00  0.00     0.018 A 
HETATM   21  C   UNL     1     -45.842  63.243 -47.083  1.00  0.00     0.039 A 
HETATM   22  C   UNL     1     -45.777  61.847 -47.016  1.00  0.00     0.018 A 
HETATM   23  C   UNL     1     -45.010  61.133 -47.940  1.00  0.00     0.010 A 
BRANCH  21  24
HETATM   24  C   UNL     1     -46.629  64.052 -46.113  1.00  0.00     0.292 C 
HETATM   25  O   UNL     1     -47.848  64.050 -46.078  1.00  0.00    -0.259 OA
BRANCH  24  26
HETATM   26  O   UNL     1     -45.805  64.782 -45.324  1.00  0.00    -0.323 OA
HETATM   27  C   UNL     1     -45.834  64.409 -43.944  1.00  0.00     0.213 C 
ENDBRANCH  24  26
ENDBRANCH  21  24
ENDBRANCH  17  18
ENDBRANCH  13  17
ENDBRANCH   2  10
BRANCH   6  28
HETATM   28  C   UNL     1     -43.226  54.878 -53.456  1.00  0.00     0.106 C 
HETATM   29  C   UNL     1     -42.494  53.967 -54.470  1.00  0.00     0.065 C 
HETATM   30  C   UNL     1     -41.450  53.301 -53.630  1.00  0.00    -0.050 A 
HETATM   31  C   UNL     1     -41.670  53.518 -52.269  1.00  0.00    -0.050 A 
HETATM   32  C   UNL     1     -40.405  52.503 -54.067  1.00  0.00     0.007 A 
HETATM   33  C   UNL     1     -42.883  54.360 -52.038  1.00  0.00     0.065 C 
HETATM   34  C   UNL     1     -40.854  52.931 -51.313  1.00  0.00     0.007 A 
HETATM   35  C   UNL     1     -39.797  52.128 -51.745  1.00  0.00     0.001 A 
HETATM   36  C   UNL     1     -39.572  51.916 -53.113  1.00  0.00     0.001 A 
ENDBRANCH   6  28
TORSDOF 6
ENDMDL
MODEL 7
REMARK VINA RESULT:      -8.5      2.375      7.425
REMARK  6 active torsions:
REMARK  status: ('A' for Active; 'I' for Inactive)
REMARK    1  A    between atoms: C_2  and  C_3 
REMARK    2  A    between atoms: N_6  and  C_8 
REMARK    3  A    between atoms: C_8  and  C_9 
REMARK    4  A    between atoms: C_12  and  C_13 
REMARK    5  A    between atoms: C_13  and  O_14 
REMARK    6  A    between atoms: N_24  and  C_25 
ROOT
HETATM    1  C   UNL     1     -45.578  61.007 -54.870  1.00  0.00     0.049 C 
HETATM    2  C   UNL     1     -44.744  59.733 -55.047  1.00  0.00     0.116 C 
HETATM    3  N   UNL     1     -43.340  60.062 -55.078  1.00  0.00    -0.324 N 
HETATM    4  C   UNL     1     -42.832  60.042 -56.363  1.00  0.00     0.326 C 
HETATM    5  O   UNL     1     -41.689  60.390 -56.588  1.00  0.00    -0.247 OA
HETATM    6  N   UNL     1     -43.789  59.583 -57.212  1.00  0.00    -0.263 N 
HETATM    7  C   UNL     1     -44.916  59.260 -56.505  1.00  0.00     0.256 C 
HETATM    8  O   UNL     1     -45.912  58.696 -56.935  1.00  0.00    -0.270 OA
HETATM    9  H   UNL     1     -42.888  60.736 -54.468  1.00  0.00     0.165 HD
ENDROOT
BRANCH   2  10
HETATM   10  C   UNL     1     -45.112  58.613 -54.028  1.00  0.00     0.026 C 
HETATM   11  C   UNL     1     -44.633  58.873 -52.591  1.00  0.00     0.035 C 
HETATM   12  C   UNL     1     -43.148  58.611 -52.366  1.00  0.00     0.235 C 
HETATM   13  N   UNL     1     -42.775  57.218 -52.809  1.00  0.00    -0.067 N 
HETATM   14  H   UNL     1     -43.265  56.566 -52.183  1.00  0.00     0.280 HD
HETATM   15  C   UNL     1     -43.195  56.903 -54.224  1.00  0.00     0.235 C 
HETATM   16  C   UNL     1     -44.676  57.186 -54.424  1.00  0.00     0.035 C 
BRANCH  13  17
HETATM   17  C   UNL     1     -41.289  56.921 -52.646  1.00  0.00     0.273 C 
BRANCH  17  18
HETATM   18  C   UNL     1     -40.914  55.481 -52.874  1.00  0.00    -0.033 A 
HETATM   19  C   UNL     1     -40.585  55.013 -54.154  1.00  0.00     0.010 A 
HETATM   20  C   UNL     1     -40.287  53.661 -54.354  1.00  0.00     0.018 A 
HETATM   21  C   UNL     1     -40.314  52.757 -53.283  1.00  0.00     0.039 A 
HETATM   22  C   UNL     1     -40.629  53.225 -52.003  1.00  0.00     0.018 A 
HETATM   23  C   UNL     1     -40.924  54.575 -51.800  1.00  0.00     0.010 A 
BRANCH  21  24
HETATM   24  C   UNL     1     -40.010  51.326 -53.557  1.00  0.00     0.292 C 
HETATM   25  O   UNL     1     -40.123  50.821 -54.662  1.00  0.00    -0.259 OA
BRANCH  24  26
HETATM   26  O   UNL     1     -39.627  50.695 -52.422  1.00  0.00    -0.323 OA
HETATM   27  C   UNL     1     -39.564  49.271 -52.538  1.00  0.00     0.213 C 
ENDBRANCH  24  26
ENDBRANCH  21  24
ENDBRANCH  17  18
ENDBRANCH  13  17
ENDBRANCH   2  10
BRANCH   6  28
HETATM   28  C   UNL     1     -43.632  59.281 -58.641  1.00  0.00     0.106 C 
HETATM   29  C   UNL     1     -42.664  58.113 -58.946  1.00  0.00     0.065 C 
HETATM   30  C   UNL     1     -43.589  57.010 -59.355  1.00  0.00    -0.050 A 
HETATM   31  C   UNL     1     -44.887  57.478 -59.564  1.00  0.00    -0.050 A 
HETATM   32  C   UNL     1     -43.263  55.682 -59.580  1.00  0.00     0.007 A 
HETATM   33  C   UNL     1     -44.986  58.948 -59.313  1.00  0.00     0.065 C 
HETATM   34  C   UNL     1     -45.886  56.628 -60.014  1.00  0.00     0.007 A 
HETATM   35  C   UNL     1     -45.568  55.288 -60.241  1.00  0.00     0.001 A 
HETATM   36  C   UNL     1     -44.265  54.817 -60.023  1.00  0.00     0.001 A 
ENDBRANCH   6  28
TORSDOF 6
ENDMDL
MODEL 8
REMARK VINA RESULT:      -8.4      3.442      7.030
REMARK  6 active torsions:
REMARK  status: ('A' for Active; 'I' for Inactive)
REMARK    1  A    between atoms: C_2  and  C_3 
REMARK    2  A    between atoms: N_6  and  C_8 
REMARK    3  A    between atoms: C_8  and  C_9 
REMARK    4  A    between atoms: C_12  and  C_13 
REMARK    5  A    between atoms: C_13  and  O_14 
REMARK    6  A    between atoms: N_24  and  C_25 
ROOT
HETATM    1  C   UNL     1     -42.518  56.383 -56.990  1.00  0.00     0.049 C 
HETATM    2  C   UNL     1     -43.068  56.693 -55.593  1.00  0.00     0.116 C 
HETATM    3  N   UNL     1     -42.017  57.211 -54.753  1.00  0.00    -0.324 N 
HETATM    4  C   UNL     1     -41.543  56.258 -53.871  1.00  0.00     0.326 C 
HETATM    5  O   UNL     1     -40.589  56.491 -53.154  1.00  0.00    -0.247 OA
HETATM    6  N   UNL     1     -42.310  55.141 -53.969  1.00  0.00    -0.263 N 
HETATM    7  C   UNL     1     -43.313  55.349 -54.877  1.00  0.00     0.256 C 
HETATM    8  O   UNL     1     -44.255  54.605 -55.109  1.00  0.00    -0.270 OA
HETATM    9  H   UNL     1     -41.315  57.883 -55.047  1.00  0.00     0.165 HD
ENDROOT
BRANCH   2  10
HETATM   10  C   UNL     1     -44.352  57.576 -55.621  1.00  0.00     0.026 C 
HETATM   11  C   UNL     1     -44.179  58.933 -56.322  1.00  0.00     0.035 C 
HETATM   12  C   UNL     1     -43.457  59.984 -55.488  1.00  0.00     0.235 C 
HETATM   13  N   UNL     1     -44.124  60.157 -54.145  1.00  0.00    -0.067 N 
HETATM   14  H   UNL     1     -45.057  60.548 -54.326  1.00  0.00     0.280 HD
HETATM   15  C   UNL     1     -44.303  58.863 -53.390  1.00  0.00     0.235 C 
HETATM   16  C   UNL     1     -45.013  57.829 -54.250  1.00  0.00     0.035 C 
BRANCH  13  17
HETATM   17  C   UNL     1     -43.412  61.168 -53.254  1.00  0.00     0.273 C 
BRANCH  17  18
HETATM   18  C   UNL     1     -44.031  61.342 -51.893  1.00  0.00    -0.033 A 
HETATM   19  C   UNL     1     -43.280  61.144 -50.726  1.00  0.00     0.010 A 
HETATM   20  C   UNL     1     -43.885  61.264 -49.470  1.00  0.00     0.018 A 
HETATM   21  C   UNL     1     -45.247  61.578 -49.360  1.00  0.00     0.039 A 
HETATM   22  C   UNL     1     -45.995  61.788 -50.523  1.00  0.00     0.018 A 
HETATM   23  C   UNL     1     -45.392  61.673 -51.778  1.00  0.00     0.010 A 
BRANCH  21  24
HETATM   24  C   UNL     1     -45.844  61.670 -48.000  1.00  0.00     0.292 C 
HETATM   25  O   UNL     1     -47.036  61.835 -47.806  1.00  0.00    -0.259 OA
BRANCH  24  26
HETATM   26  O   UNL     1     -44.883  61.569 -47.051  1.00  0.00    -0.323 OA
HETATM   27  C   UNL     1     -45.268  60.799 -45.909  1.00  0.00     0.213 C 
ENDBRANCH  24  26
ENDBRANCH  21  24
ENDBRANCH  17  18
ENDBRANCH  13  17
ENDBRANCH   2  10
BRANCH   6  28
HETATM   28  C   UNL     1     -42.237  53.941 -53.125  1.00  0.00     0.106 C 
HETATM   29  C   UNL     1     -40.799  53.478 -52.791  1.00  0.00     0.065 C 
HETATM   30  C   UNL     1     -40.651  53.857 -51.351  1.00  0.00    -0.050 A 
HETATM   31  C   UNL     1     -41.875  54.219 -50.786  1.00  0.00    -0.050 A 
HETATM   32  C   UNL     1     -39.495  53.818 -50.588  1.00  0.00     0.007 A 
HETATM   33  C   UNL     1     -42.985  54.132 -51.783  1.00  0.00     0.065 C 
HETATM   34  C   UNL     1     -41.971  54.540 -49.440  1.00  0.00     0.007 A 
HETATM   35  C   UNL     1     -40.810  54.507 -48.664  1.00  0.00     0.001 A 
HETATM   36  C   UNL     1     -39.580  54.150 -49.235  1.00  0.00     0.001 A 
ENDBRANCH   6  28
TORSDOF 6
ENDMDL
MODEL 9
REMARK VINA RESULT:      -8.4      2.580      8.170
REMARK  6 active torsions:
REMARK  status: ('A' for Active; 'I' for Inactive)
REMARK    1  A    between atoms: C_2  and  C_3 
REMARK    2  A    between atoms: N_6  and  C_8 
REMARK    3  A    between atoms: C_8  and  C_9 
REMARK    4  A    between atoms: C_12  and  C_13 
REMARK    5  A    between atoms: C_13  and  O_14 
REMARK    6  A    between atoms: N_24  and  C_25 
ROOT
HETATM    1  C   UNL     1     -44.230  56.229 -54.501  1.00  0.00     0.049 C 
HETATM    2  C   UNL     1     -44.172  57.646 -55.086  1.00  0.00     0.116 C 
HETATM    3  N   UNL     1     -45.501  58.095 -55.423  1.00  0.00    -0.324 N 
HETATM    4  C   UNL     1     -45.741  58.021 -56.782  1.00  0.00     0.326 C 
HETATM    5  O   UNL     1     -46.842  58.267 -57.236  1.00  0.00    -0.247 OA
HETATM    6  N   UNL     1     -44.594  57.668 -57.419  1.00  0.00    -0.263 N 
HETATM    7  C   UNL     1     -43.581  57.543 -56.506  1.00  0.00     0.256 C 
HETATM    8  O   UNL     1     -42.395  57.369 -56.749  1.00  0.00    -0.270 OA
HETATM    9  H   UNL     1     -46.327  57.948 -54.852  1.00  0.00     0.165 HD
ENDROOT
BRANCH   2  10
HETATM   10  C   UNL     1     -43.371  58.644 -54.197  1.00  0.00     0.026 C 
HETATM   11  C   UNL     1     -41.897  58.265 -53.980  1.00  0.00     0.035 C 
HETATM   12  C   UNL     1     -41.676  57.155 -52.959  1.00  0.00     0.235 C 
HETATM   13  N   UNL     1     -42.340  57.492 -51.647  1.00  0.00    -0.067 N 
HETATM   14  H   UNL     1     -41.849  58.312 -51.268  1.00  0.00     0.280 HD
HETATM   15  C   UNL     1     -43.800  57.851 -51.783  1.00  0.00     0.235 C 
HETATM   16  C   UNL     1     -43.992  58.950 -52.817  1.00  0.00     0.035 C 
BRANCH  13  17
HETATM   17  C   UNL     1     -42.187  56.392 -50.603  1.00  0.00     0.273 C 
BRANCH  17  18
HETATM   18  C   UNL     1     -41.497  55.152 -51.102  1.00  0.00    -0.033 A 
HETATM   19  C   UNL     1     -42.013  54.422 -52.183  1.00  0.00     0.010 A 
HETATM   20  C   UNL     1     -41.384  53.244 -52.601  1.00  0.00     0.018 A 
HETATM   21  C   UNL     1     -40.236  52.776 -51.948  1.00  0.00     0.039 A 
HETATM   22  C   UNL     1     -39.712  53.509 -50.878  1.00  0.00     0.018 A 
HETATM   23  C   UNL     1     -40.336  54.688 -50.460  1.00  0.00     0.010 A 
BRANCH  21  24
HETATM   24  C   UNL     1     -39.622  51.505 -52.421  1.00  0.00     0.292 C 
HETATM   25  O   UNL     1     -39.181  50.656 -51.664  1.00  0.00    -0.259 OA
BRANCH  24  26
HETATM   26  O   UNL     1     -39.610  51.458 -53.775  1.00  0.00    -0.323 OA
HETATM   27  C   UNL     1     -39.841  50.155 -54.316  1.00  0.00     0.213 C 
ENDBRANCH  24  26
ENDBRANCH  21  24
ENDBRANCH  17  18
ENDBRANCH  13  17
ENDBRANCH   2  10
BRANCH   6  28
HETATM   28  C   UNL     1     -44.370  57.603 -58.869  1.00  0.00     0.106 C 
HETATM   29  C   UNL     1     -44.959  56.345 -59.552  1.00  0.00     0.065 C 
HETATM   30  C   UNL     1     -46.141  56.889 -60.291  1.00  0.00    -0.050 A 
HETATM   31  C   UNL     1     -46.133  58.284 -60.321  1.00  0.00    -0.050 A 
HETATM   32  C   UNL     1     -47.127  56.166 -60.944  1.00  0.00     0.007 A 
HETATM   33  C   UNL     1     -44.948  58.840 -59.599  1.00  0.00     0.065 C 
HETATM   34  C   UNL     1     -47.106  58.988 -61.015  1.00  0.00     0.007 A 
HETATM   35  C   UNL     1     -48.105  58.267 -61.673  1.00  0.00     0.001 A 
HETATM   36  C   UNL     1     -48.117  56.866 -61.637  1.00  0.00     0.001 A 
ENDBRANCH   6  28
TORSDOF 6
ENDMDL
MODEL 10
REMARK VINA RESULT:      -8.3      2.846      6.575
REMARK  6 active torsions:
REMARK  status: ('A' for Active; 'I' for Inactive)
REMARK    1  A    between atoms: C_2  and  C_3 
REMARK    2  A    between atoms: N_6  and  C_8 
REMARK    3  A    between atoms: C_8  and  C_9 
REMARK    4  A    between atoms: C_12  and  C_13 
REMARK    5  A    between atoms: C_13  and  O_14 
REMARK    6  A    between atoms: N_24  and  C_25 
ROOT
HETATM    1  C   UNL     1     -41.775  57.984 -58.912  1.00  0.00     0.049 C 
HETATM    2  C   UNL     1     -42.930  57.831 -57.915  1.00  0.00     0.116 C 
HETATM    3  N   UNL     1     -42.501  58.231 -56.598  1.00  0.00    -0.324 N 
HETATM    4  C   UNL     1     -42.242  57.142 -55.786  1.00  0.00     0.326 C 
HETATM    5  O   UNL     1     -41.777  57.291 -54.673  1.00  0.00    -0.247 OA
HETATM    6  N   UNL     1     -42.600  56.005 -56.438  1.00  0.00    -0.263 N 
HETATM    7  C   UNL     1     -43.131  56.323 -57.660  1.00  0.00     0.256 C 
HETATM    8  O   UNL     1     -43.674  55.557 -58.443  1.00  0.00    -0.270 OA
HETATM    9  H   UNL     1     -41.924  59.040 -56.395  1.00  0.00     0.165 HD
ENDROOT
BRANCH   2  10
HETATM   10  C   UNL     1     -44.246  58.517 -58.391  1.00  0.00     0.026 C 
HETATM   11  C   UNL     1     -44.071  59.965 -58.878  1.00  0.00     0.035 C 
HETATM   12  C   UNL     1     -43.922  60.991 -57.761  1.00  0.00     0.235 C 
HETATM   13  N   UNL     1     -45.066  60.891 -56.783  1.00  0.00    -0.067 N 
HETATM   14  H   UNL     1     -45.917  61.164 -57.292  1.00  0.00     0.280 HD
HETATM   15  C   UNL     1     -45.279  59.497 -56.244  1.00  0.00     0.235 C 
HETATM   16  C   UNL     1     -45.411  58.493 -57.379  1.00  0.00     0.035 C 
BRANCH  13  17
HETATM   17  C   UNL     1     -44.941  61.868 -55.620  1.00  0.00     0.273 C 
BRANCH  17  18
HETATM   18  C   UNL     1     -45.119  61.246 -54.262  1.00  0.00    -0.033 A 
HETATM   19  C   UNL     1     -44.133  60.414 -53.712  1.00  0.00     0.010 A 
HETATM   20  C   UNL     1     -44.338  59.806 -52.469  1.00  0.00     0.018 A 
HETATM   21  C   UNL     1     -45.529  60.014 -51.758  1.00  0.00     0.039 A 
HETATM   22  C   UNL     1     -46.508  60.853 -52.300  1.00  0.00     0.018 A 
HETATM   23  C   UNL     1     -46.305  61.465 -53.539  1.00  0.00     0.010 A 
BRANCH  21  24
HETATM   24  C   UNL     1     -45.703  59.323 -50.452  1.00  0.00     0.292 C 
HETATM   25  O   UNL     1     -45.522  58.127 -50.302  1.00  0.00    -0.259 OA
BRANCH  24  26
HETATM   26  O   UNL     1     -46.103  60.200 -49.500  1.00  0.00    -0.323 OA
HETATM   27  C   UNL     1     -45.045  60.989 -48.950  1.00  0.00     0.213 C 
ENDBRANCH  24  26
ENDBRANCH  21  24
ENDBRANCH  17  18
ENDBRANCH  13  17
ENDBRANCH   2  10
BRANCH   6  28
HETATM   28  C   UNL     1     -42.616  54.641 -55.895  1.00  0.00     0.106 C 
HETATM   29  C   UNL     1     -41.253  54.157 -55.342  1.00  0.00     0.065 C 
HETATM   30  C   UNL     1     -41.465  54.183 -53.861  1.00  0.00    -0.050 A 
HETATM   31  C   UNL     1     -42.811  54.360 -53.536  1.00  0.00    -0.050 A 
HETATM   32  C   UNL     1     -40.511  53.998 -52.874  1.00  0.00     0.007 A 
HETATM   33  C   UNL     1     -43.658  54.481 -54.762  1.00  0.00     0.065 C 
HETATM   34  C   UNL     1     -43.233  54.346 -52.216  1.00  0.00     0.007 A 
HETATM   35  C   UNL     1     -42.277  54.164 -51.214  1.00  0.00     0.001 A 
HETATM   36  C   UNL     1     -40.925  53.993 -51.541  1.00  0.00     0.001 A 
ENDBRANCH   6  28
TORSDOF 6
ENDMDL
