MODEL 1
REMARK VINA RESULT:      -8.7      0.000      0.000
REMARK  7 active torsions:
REMARK  status: ('A' for Active; 'I' for Inactive)
REMARK    1  A    between atoms: C_3  and  N_4 
REMARK       I    between atoms: N_4  and  C_5 
REMARK    2  A    between atoms: C_5  and  C_6 
REMARK    3  A    between atoms: C_7  and  C_8 
REMARK    4  A    between atoms: C_19  and  C_20 
REMARK    5  A    between atoms: C_20  and  C_21 
REMARK    6  A    between atoms: C_21  and  C_22 
REMARK    7  A    between atoms: C_22  and  O_23 
ROOT
HETATM    1  C   UNL     1     -42.134  55.904 -54.604  1.00  0.00     0.062 A 
HETATM    2  C   UNL     1     -42.217  56.935 -53.485  1.00  0.00     0.202 A 
HETATM    3  N   UNL     1     -43.397  57.796 -53.639  1.00  0.00    -0.083 N 
HETATM    4  C   UNL     1     -44.259  57.730 -54.700  1.00  0.00     0.726 A 
HETATM    5  N   UNL     1     -44.052  56.814 -55.665  1.00  0.00    -0.192 N 
HETATM    6  N   UNL     1     -43.711  58.821 -52.817  1.00  0.00    -0.140 NA
HETATM    7  C   UNL     1     -44.835  59.270 -53.396  1.00  0.00     0.166 A 
HETATM    8  N   UNL     1     -45.189  58.638 -54.564  1.00  0.00    -0.046 NA
HETATM    9  C   UNL     1     -43.029  55.877 -55.622  1.00  0.00     0.037 A 
HETATM   10  C   UNL     1     -43.003  54.881 -56.754  1.00  0.00     0.070 C 
HETATM   11  H   UNL     1     -44.732  56.738 -56.417  1.00  0.00     0.184 HD
ENDROOT
BRANCH   1  12
HETATM   12  C   UNL     1     -41.110  54.836 -54.477  1.00  0.00     0.256 C 
HETATM   13  N   UNL     1     -41.614  53.664 -53.957  1.00  0.00    -0.323 N 
HETATM   14  H   UNL     1     -42.577  53.672 -53.652  1.00  0.00     0.169 HD
HETATM   15  O   UNL     1     -39.957  55.080 -54.809  1.00  0.00    -0.267 OA
BRANCH  13  16
HETATM   16  C   UNL     1     -40.917  52.446 -53.759  1.00  0.00     0.041 A 
HETATM   17  C   UNL     1     -40.132  52.288 -52.594  1.00  0.00    -0.035 A 
HETATM   18  C   UNL     1     -40.013  53.362 -51.546  1.00  0.00     0.050 C 
HETATM   19  C   UNL     1     -39.443  51.079 -52.383  1.00  0.00     0.009 A 
HETATM   20  C   UNL     1     -39.519  50.040 -53.307  1.00  0.00     0.001 A 
HETATM   21  C   UNL     1     -40.292  50.194 -54.450  1.00  0.00     0.002 A 
HETATM   22  C   UNL     1     -40.985  51.386 -54.672  1.00  0.00     0.030 A 
ENDBRANCH  13  16
ENDBRANCH   1  12
BRANCH   2  23
HETATM   23  C   UNL     1     -42.167  56.337 -52.085  1.00  0.00    -0.025 A 
HETATM   24  C   UNL     1     -43.175  55.452 -51.668  1.00  0.00     0.052 A 
HETATM   25  C   UNL     1     -43.145  54.912 -50.387  1.00  0.00     0.117 A 
HETATM   26  F   UNL     1     -44.117  54.071 -50.006  1.00  0.00    -0.206 F 
HETATM   27  C   UNL     1     -42.128  55.230 -49.499  1.00  0.00     0.042 A 
HETATM   28  C   UNL     1     -41.116  56.101 -49.899  1.00  0.00     0.004 A 
HETATM   29  C   UNL     1     -41.133  56.650 -51.184  1.00  0.00     0.010 A 
ENDBRANCH   2  23
BRANCH   7  30
HETATM   30  C   UNL     1     -45.656  60.361 -52.811  1.00  0.00     0.085 C 
BRANCH  30  31
HETATM   31  C   UNL     1     -46.357  59.954 -51.517  1.00  0.00     0.034 C 
BRANCH  31  32
HETATM   32  C   UNL     1     -45.511  60.209 -50.274  1.00  0.00     0.164 C 
BRANCH  32  33
HETATM   33  O   UNL     1     -45.872  59.284 -49.255  1.00  0.00    -0.401 OA
HETATM   34  H   UNL     1     -46.817  59.079 -49.364  1.00  0.00     0.209 HD
ENDBRANCH  32  33
ENDBRANCH  31  32
ENDBRANCH  30  31
ENDBRANCH   7  30
TORSDOF 7
ENDMDL
MODEL 2
REMARK VINA RESULT:      -8.4      2.404      4.197
REMARK  7 active torsions:
REMARK  status: ('A' for Active; 'I' for Inactive)
REMARK    1  A    between atoms: C_3  and  N_4 
REMARK       I    between atoms: N_4  and  C_5 
REMARK    2  A    between atoms: C_5  and  C_6 
REMARK    3  A    between atoms: C_7  and  C_8 
REMARK    4  A    between atoms: C_19  and  C_20 
REMARK    5  A    between atoms: C_20  and  C_21 
REMARK    6  A    between atoms: C_21  and  C_22 
REMARK    7  A    between atoms: C_22  and  O_23 
ROOT
HETATM    1  C   UNL     1     -42.554  55.750 -51.424  1.00  0.00     0.062 A 
HETATM    2  C   UNL     1     -43.433  56.409 -52.480  1.00  0.00     0.202 A 
HETATM    3  N   UNL     1     -43.397  57.873 -52.366  1.00  0.00    -0.083 N 
HETATM    4  C   UNL     1     -42.727  58.548 -51.381  1.00  0.00     0.726 A 
HETATM    5  N   UNL     1     -42.030  57.856 -50.462  1.00  0.00    -0.192 N 
HETATM    6  N   UNL     1     -44.105  58.721 -53.145  1.00  0.00    -0.140 NA
HETATM    7  C   UNL     1     -43.734  59.902 -52.629  1.00  0.00     0.166 A 
HETATM    8  N   UNL     1     -42.907  59.833 -51.533  1.00  0.00    -0.046 NA
HETATM    9  C   UNL     1     -41.900  56.473 -50.482  1.00  0.00     0.037 A 
HETATM   10  C   UNL     1     -41.014  55.881 -49.415  1.00  0.00     0.070 C 
HETATM   11  H   UNL     1     -41.490  58.371 -49.771  1.00  0.00     0.184 HD
ENDROOT
BRANCH   1  12
HETATM   12  C   UNL     1     -42.329  54.287 -51.536  1.00  0.00     0.256 C 
HETATM   13  N   UNL     1     -41.033  53.965 -51.876  1.00  0.00    -0.323 N 
HETATM   14  H   UNL     1     -40.408  54.730 -52.084  1.00  0.00     0.169 HD
HETATM   15  O   UNL     1     -43.271  53.527 -51.347  1.00  0.00    -0.267 OA
BRANCH  13  16
HETATM   16  C   UNL     1     -40.481  52.666 -52.010  1.00  0.00     0.041 A 
HETATM   17  C   UNL     1     -40.148  52.194 -53.300  1.00  0.00    -0.035 A 
HETATM   18  C   UNL     1     -40.347  53.021 -54.542  1.00  0.00     0.050 C 
HETATM   19  C   UNL     1     -39.591  50.910 -53.444  1.00  0.00     0.009 A 
HETATM   20  C   UNL     1     -39.368  50.097 -52.335  1.00  0.00     0.001 A 
HETATM   21  C   UNL     1     -39.693  50.561 -51.068  1.00  0.00     0.002 A 
HETATM   22  C   UNL     1     -40.243  51.835 -50.908  1.00  0.00     0.030 A 
ENDBRANCH  13  16
ENDBRANCH   1  12
BRANCH   2  23
HETATM   23  C   UNL     1     -43.122  55.973 -53.906  1.00  0.00    -0.025 A 
HETATM   24  C   UNL     1     -43.684  54.789 -54.411  1.00  0.00     0.052 A 
HETATM   25  C   UNL     1     -43.395  54.376 -55.707  1.00  0.00     0.117 A 
HETATM   26  F   UNL     1     -43.939  53.242 -56.172  1.00  0.00    -0.206 F 
HETATM   27  C   UNL     1     -42.552  55.116 -56.525  1.00  0.00     0.042 A 
HETATM   28  C   UNL     1     -41.991  56.296 -56.040  1.00  0.00     0.004 A 
HETATM   29  C   UNL     1     -42.275  56.725 -54.741  1.00  0.00     0.010 A 
ENDBRANCH   2  23
BRANCH   7  30
HETATM   30  C   UNL     1     -44.168  61.200 -53.207  1.00  0.00     0.085 C 
BRANCH  30  31
HETATM   31  C   UNL     1     -43.128  61.815 -54.141  1.00  0.00     0.034 C 
BRANCH  31  32
HETATM   32  C   UNL     1     -42.990  61.062 -55.459  1.00  0.00     0.164 C 
BRANCH  32  33
HETATM   33  O   UNL     1     -41.727  60.405 -55.502  1.00  0.00    -0.401 OA
HETATM   34  H   UNL     1     -41.886  59.477 -55.741  1.00  0.00     0.209 HD
ENDBRANCH  32  33
ENDBRANCH  31  32
ENDBRANCH  30  31
ENDBRANCH   7  30
TORSDOF 7
ENDMDL
MODEL 3
REMARK VINA RESULT:      -7.9      3.418      5.129
REMARK  7 active torsions:
REMARK  status: ('A' for Active; 'I' for Inactive)
REMARK    1  A    between atoms: C_3  and  N_4 
REMARK       I    between atoms: N_4  and  C_5 
REMARK    2  A    between atoms: C_5  and  C_6 
REMARK    3  A    between atoms: C_7  and  C_8 
REMARK    4  A    between atoms: C_19  and  C_20 
REMARK    5  A    between atoms: C_20  and  C_21 
REMARK    6  A    between atoms: C_21  and  C_22 
REMARK    7  A    between atoms: C_22  and  O_23 
ROOT
HETATM    1  C   UNL     1     -42.235  56.625 -54.589  1.00  0.00     0.062 A 
HETATM    2  C   UNL     1     -41.950  58.111 -54.410  1.00  0.00     0.202 A 
HETATM    3  N   UNL     1     -42.049  58.831 -55.686  1.00  0.00    -0.083 N 
HETATM    4  C   UNL     1     -42.283  58.224 -56.890  1.00  0.00     0.726 A 
HETATM    5  N   UNL     1     -42.461  56.891 -56.936  1.00  0.00    -0.192 N 
HETATM    6  N   UNL     1     -41.813  60.152 -55.842  1.00  0.00    -0.140 NA
HETATM    7  C   UNL     1     -42.019  60.289 -57.160  1.00  0.00     0.166 A 
HETATM    8  N   UNL     1     -42.288  59.124 -57.839  1.00  0.00    -0.046 NA
HETATM    9  C   UNL     1     -42.478  56.083 -55.807  1.00  0.00     0.037 A 
HETATM   10  C   UNL     1     -42.770  54.624 -56.049  1.00  0.00     0.070 C 
HETATM   11  H   UNL     1     -42.692  56.461 -57.829  1.00  0.00     0.184 HD
ENDROOT
BRANCH   1  12
HETATM   12  C   UNL     1     -42.370  55.801 -53.361  1.00  0.00     0.256 C 
HETATM   13  N   UNL     1     -41.160  55.526 -52.761  1.00  0.00    -0.323 N 
HETATM   14  H   UNL     1     -40.327  55.834 -53.241  1.00  0.00     0.169 HD
HETATM   15  O   UNL     1     -43.486  55.436 -53.012  1.00  0.00    -0.267 OA
BRANCH  13  16
HETATM   16  C   UNL     1     -40.947  54.814 -51.553  1.00  0.00     0.041 A 
HETATM   17  C   UNL     1     -40.539  53.462 -51.619  1.00  0.00    -0.035 A 
HETATM   18  C   UNL     1     -40.313  52.746 -52.924  1.00  0.00     0.050 C 
HETATM   19  C   UNL     1     -40.315  52.749 -50.427  1.00  0.00     0.009 A 
HETATM   20  C   UNL     1     -40.494  53.353 -49.185  1.00  0.00     0.001 A 
HETATM   21  C   UNL     1     -40.892  54.682 -49.120  1.00  0.00     0.002 A 
HETATM   22  C   UNL     1     -41.114  55.405 -50.294  1.00  0.00     0.030 A 
ENDBRANCH  13  16
ENDBRANCH   1  12
BRANCH   2  23
HETATM   23  C   UNL     1     -42.807  58.784 -53.345  1.00  0.00    -0.025 A 
HETATM   24  C   UNL     1     -42.201  59.307 -52.191  1.00  0.00     0.052 A 
HETATM   25  C   UNL     1     -42.976  59.911 -51.206  1.00  0.00     0.117 A 
HETATM   26  F   UNL     1     -42.381  60.403 -50.111  1.00  0.00    -0.206 F 
HETATM   27  C   UNL     1     -44.354  60.010 -51.340  1.00  0.00     0.042 A 
HETATM   28  C   UNL     1     -44.970  59.501 -52.482  1.00  0.00     0.004 A 
HETATM   29  C   UNL     1     -44.203  58.894 -53.480  1.00  0.00     0.010 A 
ENDBRANCH   2  23
BRANCH   7  30
HETATM   30  C   UNL     1     -41.979  61.607 -57.844  1.00  0.00     0.085 C 
BRANCH  30  31
HETATM   31  C   UNL     1     -40.885  61.696 -58.906  1.00  0.00     0.034 C 
BRANCH  31  32
HETATM   32  C   UNL     1     -41.428  61.629 -60.329  1.00  0.00     0.164 C 
BRANCH  32  33
HETATM   33  O   UNL     1     -41.664  60.271 -60.686  1.00  0.00    -0.401 OA
HETATM   34  H   UNL     1     -42.614  60.175 -60.868  1.00  0.00     0.209 HD
ENDBRANCH  32  33
ENDBRANCH  31  32
ENDBRANCH  30  31
ENDBRANCH   7  30
TORSDOF 7
ENDMDL
MODEL 4
REMARK VINA RESULT:      -7.8      2.242      3.993
REMARK  7 active torsions:
REMARK  status: ('A' for Active; 'I' for Inactive)
REMARK    1  A    between atoms: C_3  and  N_4 
REMARK       I    between atoms: N_4  and  C_5 
REMARK    2  A    between atoms: C_5  and  C_6 
REMARK    3  A    between atoms: C_7  and  C_8 
REMARK    4  A    between atoms: C_19  and  C_20 
REMARK    5  A    between atoms: C_20  and  C_21 
REMARK    6  A    between atoms: C_21  and  C_22 
REMARK    7  A    between atoms: C_22  and  O_23 
ROOT
HETATM    1  C   UNL     1     -42.644  55.802 -51.523  1.00  0.00     0.062 A 
HETATM    2  C   UNL     1     -43.601  56.397 -52.549  1.00  0.00     0.202 A 
HETATM    3  N   UNL     1     -43.635  57.863 -52.461  1.00  0.00    -0.083 N 
HETATM    4  C   UNL     1     -42.957  58.588 -51.519  1.00  0.00     0.726 A 
HETATM    5  N   UNL     1     -42.185  57.950 -50.621  1.00  0.00    -0.192 N 
HETATM    6  N   UNL     1     -44.418  58.659 -53.221  1.00  0.00    -0.140 NA
HETATM    7  C   UNL     1     -44.086  59.866 -52.742  1.00  0.00     0.166 A 
HETATM    8  N   UNL     1     -43.209  59.860 -51.684  1.00  0.00    -0.046 NA
HETATM    9  C   UNL     1     -41.986  56.575 -50.624  1.00  0.00     0.037 A 
HETATM   10  C   UNL     1     -41.025  56.049 -49.588  1.00  0.00     0.070 C 
HETATM   11  H   UNL     1     -41.642  58.504 -49.964  1.00  0.00     0.184 HD
ENDROOT
BRANCH   1  12
HETATM   12  C   UNL     1     -42.350  54.350 -51.621  1.00  0.00     0.256 C 
HETATM   13  N   UNL     1     -41.068  54.088 -52.056  1.00  0.00    -0.323 N 
HETATM   14  H   UNL     1     -40.504  54.879 -52.329  1.00  0.00     0.169 HD
HETATM   15  O   UNL     1     -43.231  53.548 -51.341  1.00  0.00    -0.267 OA
BRANCH  13  16
HETATM   16  C   UNL     1     -40.459  52.817 -52.205  1.00  0.00     0.041 A 
HETATM   17  C   UNL     1     -40.100  52.378 -53.500  1.00  0.00    -0.035 A 
HETATM   18  C   UNL     1     -40.329  53.213 -54.731  1.00  0.00     0.050 C 
HETATM   19  C   UNL     1     -39.486  51.122 -53.658  1.00  0.00     0.009 A 
HETATM   20  C   UNL     1     -39.233  50.303 -52.560  1.00  0.00     0.001 A 
HETATM   21  C   UNL     1     -39.584  50.735 -51.288  1.00  0.00     0.002 A 
HETATM   22  C   UNL     1     -40.190  51.981 -51.114  1.00  0.00     0.030 A 
ENDBRANCH  13  16
ENDBRANCH   1  12
BRANCH   2  23
HETATM   23  C   UNL     1     -43.331  55.950 -53.980  1.00  0.00    -0.025 A 
HETATM   24  C   UNL     1     -42.662  56.812 -54.865  1.00  0.00     0.052 A 
HETATM   25  C   UNL     1     -42.423  56.418 -56.178  1.00  0.00     0.117 A 
HETATM   26  F   UNL     1     -41.785  57.254 -57.008  1.00  0.00    -0.206 F 
HETATM   27  C   UNL     1     -42.838  55.177 -56.640  1.00  0.00     0.042 A 
HETATM   28  C   UNL     1     -43.498  54.309 -55.773  1.00  0.00     0.004 A 
HETATM   29  C   UNL     1     -43.742  54.690 -54.451  1.00  0.00     0.010 A 
ENDBRANCH   2  23
BRANCH   7  30
HETATM   30  C   UNL     1     -44.611  61.130 -53.322  1.00  0.00     0.085 C 
BRANCH  30  31
HETATM   31  C   UNL     1     -46.137  61.190 -53.339  1.00  0.00     0.034 C 
BRANCH  31  32
HETATM   32  C   UNL     1     -46.755  61.089 -51.949  1.00  0.00     0.164 C 
BRANCH  32  33
HETATM   33  O   UNL     1     -46.289  62.166 -51.142  1.00  0.00    -0.401 OA
HETATM   34  H   UNL     1     -47.004  62.822 -51.086  1.00  0.00     0.209 HD
ENDBRANCH  32  33
ENDBRANCH  31  32
ENDBRANCH  30  31
ENDBRANCH   7  30
TORSDOF 7
ENDMDL
MODEL 5
REMARK VINA RESULT:      -7.7      2.404      2.853
REMARK  7 active torsions:
REMARK  status: ('A' for Active; 'I' for Inactive)
REMARK    1  A    between atoms: C_3  and  N_4 
REMARK       I    between atoms: N_4  and  C_5 
REMARK    2  A    between atoms: C_5  and  C_6 
REMARK    3  A    between atoms: C_7  and  C_8 
REMARK    4  A    between atoms: C_19  and  C_20 
REMARK    5  A    between atoms: C_20  and  C_21 
REMARK    6  A    between atoms: C_21  and  C_22 
REMARK    7  A    between atoms: C_22  and  O_23 
ROOT
HETATM    1  C   UNL     1     -41.997  56.326 -55.092  1.00  0.00     0.062 A 
HETATM    2  C   UNL     1     -41.826  57.798 -54.738  1.00  0.00     0.202 A 
HETATM    3  N   UNL     1     -43.008  58.581 -55.123  1.00  0.00    -0.083 N 
HETATM    4  C   UNL     1     -44.085  58.062 -55.791  1.00  0.00     0.726 A 
HETATM    5  N   UNL     1     -44.100  56.754 -56.105  1.00  0.00    -0.192 N 
HETATM    6  N   UNL     1     -43.128  59.917 -54.966  1.00  0.00    -0.140 NA
HETATM    7  C   UNL     1     -44.351  60.120 -55.478  1.00  0.00     0.166 A 
HETATM    8  N   UNL     1     -44.958  59.009 -56.013  1.00  0.00    -0.046 NA
HETATM    9  C   UNL     1     -43.096  55.868 -55.740  1.00  0.00     0.037 A 
HETATM   10  C   UNL     1     -43.326  54.424 -56.113  1.00  0.00     0.070 C 
HETATM   11  H   UNL     1     -44.931  56.370 -56.550  1.00  0.00     0.184 HD
ENDROOT
BRANCH   1  12
HETATM   12  C   UNL     1     -40.974  55.376 -54.586  1.00  0.00     0.256 C 
HETATM   13  N   UNL     1     -41.493  54.432 -53.727  1.00  0.00    -0.323 N 
HETATM   14  H   UNL     1     -42.466  54.523 -53.476  1.00  0.00     0.169 HD
HETATM   15  O   UNL     1     -39.810  55.517 -54.939  1.00  0.00    -0.267 OA
BRANCH  13  16
HETATM   16  C   UNL     1     -40.798  53.357 -53.116  1.00  0.00     0.041 A 
HETATM   17  C   UNL     1     -40.731  53.301 -51.705  1.00  0.00    -0.035 A 
HETATM   18  C   UNL     1     -41.378  54.333 -50.821  1.00  0.00     0.050 C 
HETATM   19  C   UNL     1     -40.052  52.234 -51.088  1.00  0.00     0.009 A 
HETATM   20  C   UNL     1     -39.442  51.238 -51.846  1.00  0.00     0.001 A 
HETATM   21  C   UNL     1     -39.509  51.292 -53.232  1.00  0.00     0.002 A 
HETATM   22  C   UNL     1     -40.183  52.342 -53.860  1.00  0.00     0.030 A 
ENDBRANCH  13  16
ENDBRANCH   1  12
BRANCH   2  23
HETATM   23  C   UNL     1     -41.467  58.049 -53.279  1.00  0.00    -0.025 A 
HETATM   24  C   UNL     1     -40.243  58.658 -52.957  1.00  0.00     0.052 A 
HETATM   25  C   UNL     1     -39.900  58.878 -51.627  1.00  0.00     0.117 A 
HETATM   26  F   UNL     1     -38.728  59.459 -51.339  1.00  0.00    -0.206 F 
HETATM   27  C   UNL     1     -40.751  58.505 -50.597  1.00  0.00     0.042 A 
HETATM   28  C   UNL     1     -41.972  57.904 -50.900  1.00  0.00     0.004 A 
HETATM   29  C   UNL     1     -42.330  57.679 -52.232  1.00  0.00     0.010 A 
ENDBRANCH   2  23
BRANCH   7  30
HETATM   30  C   UNL     1     -45.017  61.447 -55.457  1.00  0.00     0.085 C 
BRANCH  30  31
HETATM   31  C   UNL     1     -45.236  61.984 -54.044  1.00  0.00     0.034 C 
BRANCH  31  32
HETATM   32  C   UNL     1     -46.694  61.923 -53.601  1.00  0.00     0.164 C 
BRANCH  32  33
HETATM   33  O   UNL     1     -47.530  61.738 -54.739  1.00  0.00    -0.401 OA
HETATM   34  H   UNL     1     -47.635  62.603 -55.170  1.00  0.00     0.209 HD
ENDBRANCH  32  33
ENDBRANCH  31  32
ENDBRANCH  30  31
ENDBRANCH   7  30
TORSDOF 7
ENDMDL
MODEL 6
REMARK VINA RESULT:      -7.6     16.187     18.413
REMARK  7 active torsions:
REMARK  status: ('A' for Active; 'I' for Inactive)
REMARK    1  A    between atoms: C_3  and  N_4 
REMARK       I    between atoms: N_4  and  C_5 
REMARK    2  A    between atoms: C_5  and  C_6 
REMARK    3  A    between atoms: C_7  and  C_8 
REMARK    4  A    between atoms: C_19  and  C_20 
REMARK    5  A    between atoms: C_20  and  C_21 
REMARK    6  A    between atoms: C_21  and  C_22 
REMARK    7  A    between atoms: C_22  and  O_23 
ROOT
HETATM    1  C   UNL     1     -36.224  39.344 -53.500  1.00  0.00     0.062 A 
HETATM    2  C   UNL     1     -35.840  39.005 -54.936  1.00  0.00     0.202 A 
HETATM    3  N   UNL     1     -36.594  39.820 -55.897  1.00  0.00    -0.083 N 
HETATM    4  C   UNL     1     -37.576  40.706 -55.544  1.00  0.00     0.726 A 
HETATM    5  N   UNL     1     -37.873  40.881 -54.243  1.00  0.00    -0.192 N 
HETATM    6  N   UNL     1     -36.490  39.714 -57.240  1.00  0.00    -0.140 NA
HETATM    7  C   UNL     1     -37.376  40.642 -57.632  1.00  0.00     0.166 A 
HETATM    8  N   UNL     1     -38.075  41.255 -56.620  1.00  0.00    -0.046 NA
HETATM    9  C   UNL     1     -37.194  40.245 -53.212  1.00  0.00     0.037 A 
HETATM   10  C   UNL     1     -37.616  40.627 -51.815  1.00  0.00     0.070 C 
HETATM   11  H   UNL     1     -38.563  41.585 -53.992  1.00  0.00     0.184 HD
ENDROOT
BRANCH   1  12
HETATM   12  C   UNL     1     -35.406  38.748 -52.414  1.00  0.00     0.256 C 
HETATM   13  N   UNL     1     -34.673  39.683 -51.716  1.00  0.00    -0.323 N 
HETATM   14  H   UNL     1     -34.703  40.635 -52.051  1.00  0.00     0.169 HD
HETATM   15  O   UNL     1     -35.435  37.535 -52.249  1.00  0.00    -0.267 OA
BRANCH  13  16
HETATM   16  C   UNL     1     -33.838  39.452 -50.594  1.00  0.00     0.041 A 
HETATM   17  C   UNL     1     -32.504  39.918 -50.626  1.00  0.00    -0.035 A 
HETATM   18  C   UNL     1     -31.934  40.661 -51.804  1.00  0.00     0.050 C 
HETATM   19  C   UNL     1     -31.669  39.702 -49.514  1.00  0.00     0.009 A 
HETATM   20  C   UNL     1     -32.137  39.032 -48.386  1.00  0.00     0.001 A 
HETATM   21  C   UNL     1     -33.447  38.576 -48.353  1.00  0.00     0.002 A 
HETATM   22  C   UNL     1     -34.290  38.786 -49.447  1.00  0.00     0.030 A 
ENDBRANCH  13  16
ENDBRANCH   1  12
BRANCH   2  23
HETATM   23  C   UNL     1     -34.345  39.090 -55.215  1.00  0.00    -0.025 A 
HETATM   24  C   UNL     1     -33.617  37.917 -55.478  1.00  0.00     0.052 A 
HETATM   25  C   UNL     1     -32.249  37.983 -55.720  1.00  0.00     0.117 A 
HETATM   26  F   UNL     1     -31.571  36.854 -55.967  1.00  0.00    -0.206 F 
HETATM   27  C   UNL     1     -31.577  39.197 -55.708  1.00  0.00     0.042 A 
HETATM   28  C   UNL     1     -32.286  40.370 -55.455  1.00  0.00     0.004 A 
HETATM   29  C   UNL     1     -33.661  40.319 -55.212  1.00  0.00     0.010 A 
ENDBRANCH   2  23
BRANCH   7  30
HETATM   30  C   UNL     1     -37.580  41.001 -59.059  1.00  0.00     0.085 C 
BRANCH  30  31
HETATM   31  C   UNL     1     -37.130  42.423 -59.388  1.00  0.00     0.034 C 
BRANCH  31  32
HETATM   32  C   UNL     1     -37.552  42.876 -60.781  1.00  0.00     0.164 C 
BRANCH  32  33
HETATM   33  O   UNL     1     -36.682  43.911 -61.229  1.00  0.00    -0.401 OA
HETATM   34  H   UNL     1     -37.217  44.547 -61.733  1.00  0.00     0.209 HD
ENDBRANCH  32  33
ENDBRANCH  31  32
ENDBRANCH  30  31
ENDBRANCH   7  30
TORSDOF 7
ENDMDL
MODEL 7
REMARK VINA RESULT:      -7.6      2.583      3.727
REMARK  7 active torsions:
REMARK  status: ('A' for Active; 'I' for Inactive)
REMARK    1  A    between atoms: C_3  and  N_4 
REMARK       I    between atoms: N_4  and  C_5 
REMARK    2  A    between atoms: C_5  and  C_6 
REMARK    3  A    between atoms: C_7  and  C_8 
REMARK    4  A    between atoms: C_19  and  C_20 
REMARK    5  A    between atoms: C_20  and  C_21 
REMARK    6  A    between atoms: C_21  and  C_22 
REMARK    7  A    between atoms: C_22  and  O_23 
ROOT
HETATM    1  C   UNL     1     -42.943  56.384 -51.407  1.00  0.00     0.062 A 
HETATM    2  C   UNL     1     -42.718  57.792 -51.944  1.00  0.00     0.202 A 
HETATM    3  N   UNL     1     -43.851  58.672 -51.626  1.00  0.00    -0.083 N 
HETATM    4  C   UNL     1     -44.995  58.250 -51.004  1.00  0.00     0.726 A 
HETATM    5  N   UNL     1     -45.108  56.964 -50.626  1.00  0.00    -0.192 N 
HETATM    6  N   UNL     1     -43.949  59.965 -52.005  1.00  0.00    -0.140 NA
HETATM    7  C   UNL     1     -45.144  60.286 -51.489  1.00  0.00     0.166 A 
HETATM    8  N   UNL     1     -45.823  59.255 -50.887  1.00  0.00    -0.046 NA
HETATM    9  C   UNL     1     -44.092  56.030 -50.782  1.00  0.00     0.037 A 
HETATM   10  C   UNL     1     -44.372  54.656 -50.226  1.00  0.00     0.070 C 
HETATM   11  H   UNL     1     -45.938  56.678 -50.113  1.00  0.00     0.184 HD
ENDROOT
BRANCH   1  12
HETATM   12  C   UNL     1     -41.802  55.436 -51.473  1.00  0.00     0.256 C 
HETATM   13  N   UNL     1     -41.975  54.449 -52.420  1.00  0.00    -0.323 N 
HETATM   14  H   UNL     1     -42.862  54.424 -52.902  1.00  0.00     0.169 HD
HETATM   15  O   UNL     1     -40.859  55.590 -50.707  1.00  0.00    -0.267 OA
BRANCH  13  16
HETATM   16  C   UNL     1     -41.056  53.428 -52.769  1.00  0.00     0.041 A 
HETATM   17  C   UNL     1     -40.722  53.244 -54.130  1.00  0.00    -0.035 A 
HETATM   18  C   UNL     1     -41.297  54.098 -55.228  1.00  0.00     0.050 C 
HETATM   19  C   UNL     1     -39.803  52.239 -54.487  1.00  0.00     0.009 A 
HETATM   20  C   UNL     1     -39.224  51.421 -53.520  1.00  0.00     0.001 A 
HETATM   21  C   UNL     1     -39.550  51.603 -52.183  1.00  0.00     0.002 A 
HETATM   22  C   UNL     1     -40.457  52.599 -51.812  1.00  0.00     0.030 A 
ENDBRANCH  13  16
ENDBRANCH   1  12
BRANCH   2  23
HETATM   23  C   UNL     1     -41.406  58.424 -51.498  1.00  0.00    -0.025 A 
HETATM   24  C   UNL     1     -40.349  58.555 -52.415  1.00  0.00     0.052 A 
HETATM   25  C   UNL     1     -39.142  59.119 -52.014  1.00  0.00     0.117 A 
HETATM   26  F   UNL     1     -38.145  59.234 -52.901  1.00  0.00    -0.206 F 
HETATM   27  C   UNL     1     -38.955  59.560 -50.711  1.00  0.00     0.042 A 
HETATM   28  C   UNL     1     -39.996  59.443 -49.792  1.00  0.00     0.004 A 
HETATM   29  C   UNL     1     -41.215  58.881 -50.182  1.00  0.00     0.010 A 
ENDBRANCH   2  23
BRANCH   7  30
HETATM   30  C   UNL     1     -45.695  61.665 -51.545  1.00  0.00     0.085 C 
BRANCH  30  31
HETATM   31  C   UNL     1     -45.915  62.276 -50.163  1.00  0.00     0.034 C 
BRANCH  31  32
HETATM   32  C   UNL     1     -44.636  62.363 -49.337  1.00  0.00     0.164 C 
BRANCH  32  33
HETATM   33  O   UNL     1     -44.296  61.069 -48.850  1.00  0.00    -0.401 OA
HETATM   34  H   UNL     1     -44.956  60.443 -49.191  1.00  0.00     0.209 HD
ENDBRANCH  32  33
ENDBRANCH  31  32
ENDBRANCH  30  31
ENDBRANCH   7  30
TORSDOF 7
ENDMDL
MODEL 8
REMARK VINA RESULT:      -7.5      2.608      7.743
REMARK  7 active torsions:
REMARK  status: ('A' for Active; 'I' for Inactive)
REMARK    1  A    between atoms: C_3  and  N_4 
REMARK       I    between atoms: N_4  and  C_5 
REMARK    2  A    between atoms: C_5  and  C_6 
REMARK    3  A    between atoms: C_7  and  C_8 
REMARK    4  A    between atoms: C_19  and  C_20 
REMARK    5  A    between atoms: C_20  and  C_21 
REMARK    6  A    between atoms: C_21  and  C_22 
REMARK    7  A    between atoms: C_22  and  O_23 
ROOT
HETATM    1  C   UNL     1     -43.454  57.625 -54.158  1.00  0.00     0.062 A 
HETATM    2  C   UNL     1     -42.788  56.915 -52.986  1.00  0.00     0.202 A 
HETATM    3  N   UNL     1     -42.224  55.622 -53.395  1.00  0.00    -0.083 N 
HETATM    4  C   UNL     1     -42.360  55.091 -54.649  1.00  0.00     0.726 A 
HETATM    5  N   UNL     1     -43.023  55.784 -55.593  1.00  0.00    -0.192 N 
HETATM    6  N   UNL     1     -41.606  54.757 -52.562  1.00  0.00    -0.140 NA
HETATM    7  C   UNL     1     -41.309  53.762 -53.411  1.00  0.00     0.166 A 
HETATM    8  N   UNL     1     -41.775  53.923 -54.694  1.00  0.00    -0.046 NA
HETATM    9  C   UNL     1     -43.543  57.054 -55.384  1.00  0.00     0.037 A 
HETATM   10  C   UNL     1     -44.185  57.706 -56.584  1.00  0.00     0.070 C 
HETATM   11  H   UNL     1     -43.066  55.404 -56.535  1.00  0.00     0.184 HD
ENDROOT
BRANCH   1  12
HETATM   12  C   UNL     1     -43.893  59.028 -53.949  1.00  0.00     0.256 C 
HETATM   13  N   UNL     1     -45.086  59.123 -53.266  1.00  0.00    -0.323 N 
HETATM   14  H   UNL     1     -45.564  58.261 -53.051  1.00  0.00     0.169 HD
HETATM   15  O   UNL     1     -43.205  59.936 -54.397  1.00  0.00    -0.267 OA
BRANCH  13  16
HETATM   16  C   UNL     1     -45.747  60.311 -52.861  1.00  0.00     0.041 A 
HETATM   17  C   UNL     1     -45.920  60.561 -51.481  1.00  0.00    -0.035 A 
HETATM   18  C   UNL     1     -45.420  59.619 -50.417  1.00  0.00     0.050 C 
HETATM   19  C   UNL     1     -46.567  61.740 -51.067  1.00  0.00     0.009 A 
HETATM   20  C   UNL     1     -47.042  62.661 -51.998  1.00  0.00     0.001 A 
HETATM   21  C   UNL     1     -46.871  62.417 -53.354  1.00  0.00     0.002 A 
HETATM   22  C   UNL     1     -46.227  61.252 -53.780  1.00  0.00     0.030 A 
ENDBRANCH  13  16
ENDBRANCH   1  12
BRANCH   2  23
HETATM   23  C   UNL     1     -41.740  57.755 -52.266  1.00  0.00    -0.025 A 
HETATM   24  C   UNL     1     -40.547  58.096 -52.925  1.00  0.00     0.052 A 
HETATM   25  C   UNL     1     -39.579  58.850 -52.272  1.00  0.00     0.117 A 
HETATM   26  F   UNL     1     -38.446  59.165 -52.916  1.00  0.00    -0.206 F 
HETATM   27  C   UNL     1     -39.766  59.280 -50.966  1.00  0.00     0.042 A 
HETATM   28  C   UNL     1     -40.947  58.955 -50.300  1.00  0.00     0.004 A 
HETATM   29  C   UNL     1     -41.929  58.200 -50.945  1.00  0.00     0.010 A 
ENDBRANCH   2  23
BRANCH   7  30
HETATM   30  C   UNL     1     -40.516  52.573 -53.005  1.00  0.00     0.085 C 
BRANCH  30  31
HETATM   31  C   UNL     1     -40.051  51.732 -54.192  1.00  0.00     0.034 C 
BRANCH  31  32
HETATM   32  C   UNL     1     -39.673  50.307 -53.802  1.00  0.00     0.164 C 
BRANCH  32  33
HETATM   33  O   UNL     1     -39.986  49.421 -54.872  1.00  0.00    -0.401 OA
HETATM   34  H   UNL     1     -39.729  49.859 -55.701  1.00  0.00     0.209 HD
ENDBRANCH  32  33
ENDBRANCH  31  32
ENDBRANCH  30  31
ENDBRANCH   7  30
TORSDOF 7
ENDMDL
MODEL 9
REMARK VINA RESULT:      -7.5      3.119      7.649
REMARK  7 active torsions:
REMARK  status: ('A' for Active; 'I' for Inactive)
REMARK    1  A    between atoms: C_3  and  N_4 
REMARK       I    between atoms: N_4  and  C_5 
REMARK    2  A    between atoms: C_5  and  C_6 
REMARK    3  A    between atoms: C_7  and  C_8 
REMARK    4  A    between atoms: C_19  and  C_20 
REMARK    5  A    between atoms: C_20  and  C_21 
REMARK    6  A    between atoms: C_21  and  C_22 
REMARK    7  A    between atoms: C_22  and  O_23 
ROOT
HETATM    1  C   UNL     1     -43.116  56.825 -55.252  1.00  0.00     0.062 A 
HETATM    2  C   UNL     1     -42.750  56.309 -53.866  1.00  0.00     0.202 A 
HETATM    3  N   UNL     1     -41.945  55.083 -53.947  1.00  0.00    -0.083 N 
HETATM    4  C   UNL     1     -41.639  54.445 -55.119  1.00  0.00     0.726 A 
HETATM    5  N   UNL     1     -42.068  54.962 -56.285  1.00  0.00    -0.192 N 
HETATM    6  N   UNL     1     -41.505  54.381 -52.880  1.00  0.00    -0.140 NA
HETATM    7  C   UNL     1     -40.857  53.378 -53.490  1.00  0.00     0.166 A 
HETATM    8  N   UNL     1     -40.936  53.374 -54.862  1.00  0.00    -0.046 NA
HETATM    9  C   UNL     1     -42.769  56.157 -56.380  1.00  0.00     0.037 A 
HETATM   10  C   UNL     1     -43.097  56.617 -57.778  1.00  0.00     0.070 C 
HETATM   11  H   UNL     1     -41.785  54.510 -57.151  1.00  0.00     0.184 HD
ENDROOT
BRANCH   1  12
HETATM   12  C   UNL     1     -43.756  58.162 -55.339  1.00  0.00     0.256 C 
HETATM   13  N   UNL     1     -42.945  59.111 -55.922  1.00  0.00    -0.323 N 
HETATM   14  H   UNL     1     -42.002  58.833 -56.153  1.00  0.00     0.169 HD
HETATM   15  O   UNL     1     -44.886  58.307 -54.890  1.00  0.00    -0.267 OA
BRANCH  13  16
HETATM   16  C   UNL     1     -43.273  60.462 -56.200  1.00  0.00     0.041 A 
HETATM   17  C   UNL     1     -43.132  61.425 -55.175  1.00  0.00    -0.035 A 
HETATM   18  C   UNL     1     -42.637  61.076 -53.797  1.00  0.00     0.050 C 
HETATM   19  C   UNL     1     -43.446  62.771 -55.443  1.00  0.00     0.009 A 
HETATM   20  C   UNL     1     -43.897  63.165 -56.700  1.00  0.00     0.001 A 
HETATM   21  C   UNL     1     -44.033  62.220 -57.708  1.00  0.00     0.002 A 
HETATM   22  C   UNL     1     -43.722  60.881 -57.459  1.00  0.00     0.030 A 
ENDBRANCH  13  16
ENDBRANCH   1  12
BRANCH   2  23
HETATM   23  C   UNL     1     -42.068  57.342 -52.979  1.00  0.00    -0.025 A 
HETATM   24  C   UNL     1     -40.782  57.804 -53.309  1.00  0.00     0.052 A 
HETATM   25  C   UNL     1     -40.146  58.737 -52.498  1.00  0.00     0.117 A 
HETATM   26  F   UNL     1     -38.919  59.165 -52.827  1.00  0.00    -0.206 F 
HETATM   27  C   UNL     1     -40.759  59.230 -51.354  1.00  0.00     0.042 A 
HETATM   28  C   UNL     1     -42.037  58.787 -51.017  1.00  0.00     0.004 A 
HETATM   29  C   UNL     1     -42.689  57.851 -51.824  1.00  0.00     0.010 A 
ENDBRANCH   2  23
BRANCH   7  30
HETATM   30  C   UNL     1     -40.089  52.350 -52.743  1.00  0.00     0.085 C 
BRANCH  30  31
HETATM   31  C   UNL     1     -39.328  51.391 -53.656  1.00  0.00     0.034 C 
BRANCH  31  32
HETATM   32  C   UNL     1     -39.815  49.951 -53.548  1.00  0.00     0.164 C 
BRANCH  32  33
HETATM   33  O   UNL     1     -39.953  49.396 -54.852  1.00  0.00    -0.401 OA
HETATM   34  H   UNL     1     -39.509  48.531 -54.853  1.00  0.00     0.209 HD
ENDBRANCH  32  33
ENDBRANCH  31  32
ENDBRANCH  30  31
ENDBRANCH   7  30
TORSDOF 7
ENDMDL
MODEL 10
REMARK VINA RESULT:      -7.5     15.370     19.095
REMARK  7 active torsions:
REMARK  status: ('A' for Active; 'I' for Inactive)
REMARK    1  A    between atoms: C_3  and  N_4 
REMARK       I    between atoms: N_4  and  C_5 
REMARK    2  A    between atoms: C_5  and  C_6 
REMARK    3  A    between atoms: C_7  and  C_8 
REMARK    4  A    between atoms: C_19  and  C_20 
REMARK    5  A    between atoms: C_20  and  C_21 
REMARK    6  A    between atoms: C_21  and  C_22 
REMARK    7  A    between atoms: C_22  and  O_23 
ROOT
HETATM    1  C   UNL     1     -34.228  40.907 -53.945  1.00  0.00     0.062 A 
HETATM    2  C   UNL     1     -33.605  41.031 -55.331  1.00  0.00     0.202 A 
HETATM    3  N   UNL     1     -32.389  40.216 -55.445  1.00  0.00    -0.083 N 
HETATM    4  C   UNL     1     -31.843  39.507 -54.409  1.00  0.00     0.726 A 
HETATM    5  N   UNL     1     -32.450  39.518 -53.208  1.00  0.00    -0.192 N 
HETATM    6  N   UNL     1     -31.606  40.156 -56.544  1.00  0.00    -0.140 NA
HETATM    7  C   UNL     1     -30.652  39.311 -56.126  1.00  0.00     0.166 A 
HETATM    8  N   UNL     1     -30.754  38.909 -54.816  1.00  0.00    -0.046 NA
HETATM    9  C   UNL     1     -33.649  40.174 -52.963  1.00  0.00     0.037 A 
HETATM   10  C   UNL     1     -34.216  40.008 -51.576  1.00  0.00     0.070 C 
HETATM   11  H   UNL     1     -32.066  38.940 -52.464  1.00  0.00     0.184 HD
ENDROOT
BRANCH   1  12
HETATM   12  C   UNL     1     -35.568  41.512 -53.740  1.00  0.00     0.256 C 
HETATM   13  N   UNL     1     -36.600  40.635 -53.997  1.00  0.00    -0.323 N 
HETATM   14  H   UNL     1     -36.353  39.727 -54.361  1.00  0.00     0.169 HD
HETATM   15  O   UNL     1     -35.641  42.685 -53.396  1.00  0.00    -0.267 OA
BRANCH  13  16
HETATM   16  C   UNL     1     -37.988  40.881 -53.846  1.00  0.00     0.041 A 
HETATM   17  C   UNL     1     -38.581  40.701 -52.576  1.00  0.00    -0.035 A 
HETATM   18  C   UNL     1     -37.794  40.266 -51.368  1.00  0.00     0.050 C 
HETATM   19  C   UNL     1     -39.956  40.951 -52.412  1.00  0.00     0.009 A 
HETATM   20  C   UNL     1     -40.741  41.368 -53.485  1.00  0.00     0.001 A 
HETATM   21  C   UNL     1     -40.159  41.547 -54.732  1.00  0.00     0.002 A 
HETATM   22  C   UNL     1     -38.794  41.307 -54.909  1.00  0.00     0.030 A 
ENDBRANCH  13  16
ENDBRANCH   1  12
BRANCH   2  23
HETATM   23  C   UNL     1     -34.566  40.726 -56.473  1.00  0.00    -0.025 A 
HETATM   24  C   UNL     1     -35.223  41.779 -57.131  1.00  0.00     0.052 A 
HETATM   25  C   UNL     1     -36.113  41.510 -58.165  1.00  0.00     0.117 A 
HETATM   26  F   UNL     1     -36.732  42.526 -58.781  1.00  0.00    -0.206 F 
HETATM   27  C   UNL     1     -36.370  40.207 -58.568  1.00  0.00     0.042 A 
HETATM   28  C   UNL     1     -35.721  39.152 -57.930  1.00  0.00     0.004 A 
HETATM   29  C   UNL     1     -34.823  39.408 -56.890  1.00  0.00     0.010 A 
ENDBRANCH   2  23
BRANCH   7  30
HETATM   30  C   UNL     1     -29.568  38.823 -57.017  1.00  0.00     0.085 C 
BRANCH  30  31
HETATM   31  C   UNL     1     -28.524  37.985 -56.283  1.00  0.00     0.034 C 
BRANCH  31  32
HETATM   32  C   UNL     1     -27.270  37.731 -57.113  1.00  0.00     0.164 C 
BRANCH  32  33
HETATM   33  O   UNL     1     -27.264  38.599 -58.242  1.00  0.00    -0.401 OA
HETATM   34  H   UNL     1     -27.375  39.508 -57.915  1.00  0.00     0.209 HD
ENDBRANCH  32  33
ENDBRANCH  31  32
ENDBRANCH  30  31
ENDBRANCH   7  30
TORSDOF 7
ENDMDL
