MODEL 1
REMARK VINA RESULT:      -7.3      0.000      0.000
REMARK  9 active torsions:
REMARK  status: ('A' for Active; 'I' for Inactive)
REMARK    1  A    between atoms: C_4  and  C_5 
REMARK    2  A    between atoms: C_7  and  N_8 
REMARK       I    between atoms: N_8  and  C_9 
REMARK    3  A    between atoms: C_9  and  C_10 
REMARK    4  A    between atoms: C_10  and  O_11 
REMARK    5  A    between atoms: C_18  and  C_19 
REMARK    6  A    between atoms: C_19  and  N_20 
REMARK       I    between atoms: N_20  and  C_21 
REMARK    7  A    between atoms: C_21  and  C_22 
REMARK    8  A    between atoms: C_24  and  C_25 
REMARK    9  A    between atoms: C_25  and  O_26 
ROOT
HETATM    1  C   UNL     1     -44.598  58.655 -52.241  1.00  0.00     0.079 C 
HETATM    2  C   UNL     1     -43.397  57.814 -52.378  1.00  0.00     0.078 A 
HETATM    3  O   UNL     1     -43.155  56.901 -51.392  1.00  0.00    -0.294 OA
HETATM    4  C   UNL     1     -41.992  56.285 -51.773  1.00  0.00     0.180 A 
HETATM    5  N   UNL     1     -41.506  56.717 -52.923  1.00  0.00    -0.224 NA
HETATM    6  C   UNL     1     -42.377  57.721 -53.302  1.00  0.00     0.084 A 
ENDROOT
BRANCH   4   7
HETATM    7  C   UNL     1     -41.447  55.283 -50.861  1.00  0.00     0.019 A 
HETATM    8  C   UNL     1     -41.144  53.979 -51.292  1.00  0.00     0.045 A 
HETATM    9  C   UNL     1     -40.685  53.011 -50.393  1.00  0.00     0.035 A 
HETATM   10  C   UNL     1     -40.502  53.363 -49.051  1.00  0.00     0.029 A 
HETATM   11  C   UNL     1     -40.785  54.656 -48.609  1.00  0.00     0.003 A 
HETATM   12  C   UNL     1     -41.263  55.608 -49.509  1.00  0.00     0.016 A 
BRANCH   9  13
HETATM   13  N   UNL     1     -40.416  51.676 -50.745  1.00  0.00    -0.325 N 
HETATM   14  C   UNL     1     -39.518  51.201 -51.686  1.00  0.00     0.245 C 
HETATM   15  O   UNL     1     -38.724  51.859 -52.350  1.00  0.00    -0.271 OA
HETATM   16  H   UNL     1     -40.980  50.955 -50.303  1.00  0.00     0.169 HD
BRANCH  14  17
HETATM   17  C   UNL     1     -39.577  49.673 -51.802  1.00  0.00     0.270 C 
BRANCH  17  18
HETATM   18  O   UNL     1     -39.327  49.200 -53.127  1.00  0.00    -0.387 OA
HETATM   19  C   UNL     1     -40.146  49.860 -54.088  1.00  0.00     0.202 C 
ENDBRANCH  17  18
ENDBRANCH  14  17
ENDBRANCH   9  13
ENDBRANCH   4   7
BRANCH   6  20
HETATM   20  C   UNL     1     -42.129  58.543 -54.512  1.00  0.00     0.185 C 
BRANCH  20  21
HETATM   21  N   UNL     1     -42.499  57.800 -55.690  1.00  0.00    -0.351 N 
HETATM   22  C   UNL     1     -43.695  57.993 -56.342  1.00  0.00     0.258 C 
HETATM   23  O   UNL     1     -44.530  58.791 -55.921  1.00  0.00    -0.267 OA
HETATM   24  H   UNL     1     -41.883  57.061 -56.005  1.00  0.00     0.163 HD
BRANCH  22  25
HETATM   25  C   UNL     1     -43.894  57.214 -57.557  1.00  0.00     0.073 A 
HETATM   26  S   UNL     1     -45.263  57.413 -58.569  1.00  0.00    -0.087 SA
HETATM   27  C   UNL     1     -44.775  56.154 -59.620  1.00  0.00     0.007 A 
HETATM   28  C   UNL     1     -43.569  55.610 -59.225  1.00  0.00     0.018 A 
HETATM   29  C   UNL     1     -43.063  56.220 -58.042  1.00  0.00     0.026 A 
BRANCH  27  30
HETATM   30  C   UNL     1     -45.621  55.768 -60.791  1.00  0.00     0.213 C 
BRANCH  30  31
HETATM   31  O   UNL     1     -46.973  56.025 -60.419  1.00  0.00    -0.391 OA
HETATM   32  C   UNL     1     -47.709  56.606 -61.485  1.00  0.00     0.201 C 
ENDBRANCH  30  31
ENDBRANCH  27  30
ENDBRANCH  22  25
ENDBRANCH  20  21
ENDBRANCH   6  20
TORSDOF 9
ENDMDL
MODEL 2
REMARK VINA RESULT:      -7.3      1.853      2.074
REMARK  9 active torsions:
REMARK  status: ('A' for Active; 'I' for Inactive)
REMARK    1  A    between atoms: C_4  and  C_5 
REMARK    2  A    between atoms: C_7  and  N_8 
REMARK       I    between atoms: N_8  and  C_9 
REMARK    3  A    between atoms: C_9  and  C_10 
REMARK    4  A    between atoms: C_10  and  O_11 
REMARK    5  A    between atoms: C_18  and  C_19 
REMARK    6  A    between atoms: C_19  and  N_20 
REMARK       I    between atoms: N_20  and  C_21 
REMARK    7  A    between atoms: C_21  and  C_22 
REMARK    8  A    between atoms: C_24  and  C_25 
REMARK    9  A    between atoms: C_25  and  O_26 
ROOT
HETATM    1  C   UNL     1     -42.420  60.840 -51.376  1.00  0.00     0.079 C 
HETATM    2  C   UNL     1     -42.139  59.570 -52.067  1.00  0.00     0.078 A 
HETATM    3  O   UNL     1     -41.828  58.490 -51.291  1.00  0.00    -0.294 OA
HETATM    4  C   UNL     1     -41.609  57.476 -52.186  1.00  0.00     0.180 A 
HETATM    5  N   UNL     1     -41.785  57.825 -53.448  1.00  0.00    -0.224 NA
HETATM    6  C   UNL     1     -42.089  59.172 -53.387  1.00  0.00     0.084 A 
ENDROOT
BRANCH   4   7
HETATM    7  C   UNL     1     -41.191  56.189 -51.636  1.00  0.00     0.019 A 
HETATM    8  C   UNL     1     -41.123  55.033 -52.434  1.00  0.00     0.045 A 
HETATM    9  C   UNL     1     -40.785  53.794 -51.879  1.00  0.00     0.035 A 
HETATM   10  C   UNL     1     -40.486  53.720 -50.513  1.00  0.00     0.029 A 
HETATM   11  C   UNL     1     -40.538  54.860 -49.711  1.00  0.00     0.003 A 
HETATM   12  C   UNL     1     -40.897  56.086 -50.269  1.00  0.00     0.016 A 
BRANCH   9  13
HETATM   13  N   UNL     1     -40.749  52.591 -52.606  1.00  0.00    -0.325 N 
HETATM   14  C   UNL     1     -40.350  52.391 -53.917  1.00  0.00     0.245 C 
HETATM   15  O   UNL     1     -39.877  53.225 -54.682  1.00  0.00    -0.271 OA
HETATM   16  H   UNL     1     -41.110  51.758 -52.146  1.00  0.00     0.169 HD
BRANCH  14  17
HETATM   17  C   UNL     1     -40.524  50.928 -54.344  1.00  0.00     0.270 C 
BRANCH  17  18
HETATM   18  O   UNL     1     -39.385  50.118 -54.051  1.00  0.00    -0.387 OA
HETATM   19  C   UNL     1     -39.537  49.418 -52.818  1.00  0.00     0.202 C 
ENDBRANCH  17  18
ENDBRANCH  14  17
ENDBRANCH   9  13
ENDBRANCH   4   7
BRANCH   6  20
HETATM   20  C   UNL     1     -42.267  59.981 -54.617  1.00  0.00     0.185 C 
BRANCH  20  21
HETATM   21  N   UNL     1     -42.520  59.113 -55.739  1.00  0.00    -0.351 N 
HETATM   22  C   UNL     1     -42.037  59.373 -57.001  1.00  0.00     0.258 C 
HETATM   23  O   UNL     1     -41.390  60.391 -57.239  1.00  0.00    -0.267 OA
HETATM   24  H   UNL     1     -43.135  58.321 -55.604  1.00  0.00     0.163 HD
BRANCH  22  25
HETATM   25  C   UNL     1     -42.321  58.366 -58.015  1.00  0.00     0.073 A 
HETATM   26  S   UNL     1     -43.458  57.107 -57.776  1.00  0.00    -0.087 SA
HETATM   27  C   UNL     1     -43.124  56.400 -59.298  1.00  0.00     0.007 A 
HETATM   28  C   UNL     1     -42.181  57.131 -59.994  1.00  0.00     0.018 A 
HETATM   29  C   UNL     1     -41.723  58.261 -59.258  1.00  0.00     0.026 A 
BRANCH  27  30
HETATM   30  C   UNL     1     -43.818  55.147 -59.726  1.00  0.00     0.213 C 
BRANCH  30  31
HETATM   31  O   UNL     1     -45.218  55.405 -59.629  1.00  0.00    -0.391 OA
HETATM   32  C   UNL     1     -45.796  55.640 -60.904  1.00  0.00     0.201 C 
ENDBRANCH  30  31
ENDBRANCH  27  30
ENDBRANCH  22  25
ENDBRANCH  20  21
ENDBRANCH   6  20
TORSDOF 9
ENDMDL
MODEL 3
REMARK VINA RESULT:      -6.8      2.138      2.344
REMARK  9 active torsions:
REMARK  status: ('A' for Active; 'I' for Inactive)
REMARK    1  A    between atoms: C_4  and  C_5 
REMARK    2  A    between atoms: C_7  and  N_8 
REMARK       I    between atoms: N_8  and  C_9 
REMARK    3  A    between atoms: C_9  and  C_10 
REMARK    4  A    between atoms: C_10  and  O_11 
REMARK    5  A    between atoms: C_18  and  C_19 
REMARK    6  A    between atoms: C_19  and  N_20 
REMARK       I    between atoms: N_20  and  C_21 
REMARK    7  A    between atoms: C_21  and  C_22 
REMARK    8  A    between atoms: C_24  and  C_25 
REMARK    9  A    between atoms: C_25  and  O_26 
ROOT
HETATM    1  C   UNL     1     -44.564  58.361 -51.694  1.00  0.00     0.079 C 
HETATM    2  C   UNL     1     -43.229  57.738 -51.705  1.00  0.00     0.078 A 
HETATM    3  O   UNL     1     -43.051  56.624 -50.935  1.00  0.00    -0.294 OA
HETATM    4  C   UNL     1     -41.740  56.278 -51.129  1.00  0.00     0.180 A 
HETATM    5  N   UNL     1     -41.096  57.064 -51.974  1.00  0.00    -0.224 NA
HETATM    6  C   UNL     1     -42.028  58.023 -52.321  1.00  0.00     0.084 A 
ENDROOT
BRANCH   4   7
HETATM    7  C   UNL     1     -41.239  55.136 -50.370  1.00  0.00     0.019 A 
HETATM    8  C   UNL     1     -41.021  53.885 -50.975  1.00  0.00     0.045 A 
HETATM    9  C   UNL     1     -40.604  52.783 -50.222  1.00  0.00     0.035 A 
HETATM   10  C   UNL     1     -40.378  52.944 -48.850  1.00  0.00     0.029 A 
HETATM   11  C   UNL     1     -40.578  54.181 -48.236  1.00  0.00     0.003 A 
HETATM   12  C   UNL     1     -41.015  55.268 -48.992  1.00  0.00     0.016 A 
BRANCH   9  13
HETATM   13  N   UNL     1     -40.418  51.494 -50.752  1.00  0.00    -0.325 N 
HETATM   14  C   UNL     1     -39.516  51.085 -51.719  1.00  0.00     0.245 C 
HETATM   15  O   UNL     1     -38.646  51.763 -52.254  1.00  0.00    -0.271 OA
HETATM   16  H   UNL     1     -41.054  50.765 -50.437  1.00  0.00     0.169 HD
BRANCH  14  17
HETATM   17  C   UNL     1     -39.683  49.598 -52.055  1.00  0.00     0.270 C 
BRANCH  17  18
HETATM   18  O   UNL     1     -39.400  49.295 -53.422  1.00  0.00    -0.387 OA
HETATM   19  C   UNL     1     -40.271  49.992 -54.310  1.00  0.00     0.202 C 
ENDBRANCH  17  18
ENDBRANCH  14  17
ENDBRANCH   9  13
ENDBRANCH   4   7
BRANCH   6  20
HETATM   20  C   UNL     1     -41.671  59.169 -53.192  1.00  0.00     0.185 C 
BRANCH  20  21
HETATM   21  N   UNL     1     -41.672  58.751 -54.572  1.00  0.00    -0.351 N 
HETATM   22  C   UNL     1     -42.751  58.944 -55.403  1.00  0.00     0.258 C 
HETATM   23  O   UNL     1     -43.792  59.453 -54.990  1.00  0.00    -0.267 OA
HETATM   24  H   UNL     1     -40.873  58.236 -54.918  1.00  0.00     0.163 HD
BRANCH  22  25
HETATM   25  C   UNL     1     -42.575  58.529 -56.788  1.00  0.00     0.073 A 
HETATM   26  S   UNL     1     -42.120  59.619 -58.030  1.00  0.00    -0.087 SA
HETATM   27  C   UNL     1     -42.222  58.415 -59.241  1.00  0.00     0.007 A 
HETATM   28  C   UNL     1     -42.567  57.191 -58.704  1.00  0.00     0.018 A 
HETATM   29  C   UNL     1     -42.767  57.256 -57.296  1.00  0.00     0.026 A 
BRANCH  27  30
HETATM   30  C   UNL     1     -41.953  58.750 -60.674  1.00  0.00     0.213 C 
BRANCH  30  31
HETATM   31  O   UNL     1     -41.730  60.157 -60.727  1.00  0.00    -0.391 OA
HETATM   32  C   UNL     1     -42.378  60.750 -61.842  1.00  0.00     0.201 C 
ENDBRANCH  30  31
ENDBRANCH  27  30
ENDBRANCH  22  25
ENDBRANCH  20  21
ENDBRANCH   6  20
TORSDOF 9
ENDMDL
MODEL 4
REMARK VINA RESULT:      -6.8      2.984      6.770
REMARK  9 active torsions:
REMARK  status: ('A' for Active; 'I' for Inactive)
REMARK    1  A    between atoms: C_4  and  C_5 
REMARK    2  A    between atoms: C_7  and  N_8 
REMARK       I    between atoms: N_8  and  C_9 
REMARK    3  A    between atoms: C_9  and  C_10 
REMARK    4  A    between atoms: C_10  and  O_11 
REMARK    5  A    between atoms: C_18  and  C_19 
REMARK    6  A    between atoms: C_19  and  N_20 
REMARK       I    between atoms: N_20  and  C_21 
REMARK    7  A    between atoms: C_21  and  C_22 
REMARK    8  A    between atoms: C_24  and  C_25 
REMARK    9  A    between atoms: C_25  and  O_26 
ROOT
HETATM    1  C   UNL     1     -40.694  53.100 -51.547  1.00  0.00     0.079 C 
HETATM    2  C   UNL     1     -40.882  54.434 -52.143  1.00  0.00     0.078 A 
HETATM    3  O   UNL     1     -41.154  55.468 -51.293  1.00  0.00    -0.294 OA
HETATM    4  C   UNL     1     -41.288  56.559 -52.110  1.00  0.00     0.180 A 
HETATM    5  N   UNL     1     -41.095  56.298 -53.391  1.00  0.00    -0.224 NA
HETATM    6  C   UNL     1     -40.871  54.935 -53.428  1.00  0.00     0.084 A 
ENDROOT
BRANCH   4   7
HETATM    7  C   UNL     1     -41.648  57.821 -51.471  1.00  0.00     0.019 A 
HETATM    8  C   UNL     1     -42.893  58.435 -51.698  1.00  0.00     0.045 A 
HETATM    9  C   UNL     1     -43.198  59.677 -51.131  1.00  0.00     0.035 A 
HETATM   10  C   UNL     1     -42.253  60.298 -50.306  1.00  0.00     0.029 A 
HETATM   11  C   UNL     1     -41.018  59.697 -50.061  1.00  0.00     0.003 A 
HETATM   12  C   UNL     1     -40.715  58.468 -50.648  1.00  0.00     0.016 A 
BRANCH   9  13
HETATM   13  N   UNL     1     -44.400  60.371 -51.359  1.00  0.00    -0.325 N 
HETATM   14  C   UNL     1     -45.666  60.072 -50.887  1.00  0.00     0.245 C 
HETATM   15  O   UNL     1     -45.975  59.174 -50.110  1.00  0.00    -0.271 OA
HETATM   16  H   UNL     1     -44.366  61.166 -51.993  1.00  0.00     0.169 HD
BRANCH  14  17
HETATM   17  C   UNL     1     -46.716  61.055 -51.422  1.00  0.00     0.270 C 
BRANCH  17  18
HETATM   18  O   UNL     1     -46.359  62.423 -51.222  1.00  0.00    -0.387 OA
HETATM   19  C   UNL     1     -46.931  62.950 -50.027  1.00  0.00     0.202 C 
ENDBRANCH  17  18
ENDBRANCH  14  17
ENDBRANCH   9  13
ENDBRANCH   4   7
BRANCH   6  20
HETATM   20  C   UNL     1     -40.703  54.214 -54.714  1.00  0.00     0.185 C 
BRANCH  20  21
HETATM   21  N   UNL     1     -41.220  55.016 -55.793  1.00  0.00    -0.351 N 
HETATM   22  C   UNL     1     -42.520  54.915 -56.233  1.00  0.00     0.258 C 
HETATM   23  O   UNL     1     -43.298  54.098 -55.744  1.00  0.00    -0.267 OA
HETATM   24  H   UNL     1     -40.582  55.624 -56.289  1.00  0.00     0.163 HD
BRANCH  22  25
HETATM   25  C   UNL     1     -42.913  55.840 -57.288  1.00  0.00     0.073 A 
HETATM   26  S   UNL     1     -42.855  57.542 -57.095  1.00  0.00    -0.087 SA
HETATM   27  C   UNL     1     -43.513  57.826 -58.648  1.00  0.00     0.007 A 
HETATM   28  C   UNL     1     -43.745  56.642 -59.319  1.00  0.00     0.018 A 
HETATM   29  C   UNL     1     -43.398  55.502 -58.539  1.00  0.00     0.026 A 
BRANCH  27  30
HETATM   30  C   UNL     1     -43.768  59.221 -59.124  1.00  0.00     0.213 C 
BRANCH  30  31
HETATM   31  O   UNL     1     -45.043  59.599 -58.609  1.00  0.00    -0.391 OA
HETATM   32  C   UNL     1     -44.952  60.741 -57.771  1.00  0.00     0.201 C 
ENDBRANCH  30  31
ENDBRANCH  27  30
ENDBRANCH  22  25
ENDBRANCH  20  21
ENDBRANCH   6  20
TORSDOF 9
ENDMDL
MODEL 5
REMARK VINA RESULT:      -6.7      3.475      7.033
REMARK  9 active torsions:
REMARK  status: ('A' for Active; 'I' for Inactive)
REMARK    1  A    between atoms: C_4  and  C_5 
REMARK    2  A    between atoms: C_7  and  N_8 
REMARK       I    between atoms: N_8  and  C_9 
REMARK    3  A    between atoms: C_9  and  C_10 
REMARK    4  A    between atoms: C_10  and  O_11 
REMARK    5  A    between atoms: C_18  and  C_19 
REMARK    6  A    between atoms: C_19  and  N_20 
REMARK       I    between atoms: N_20  and  C_21 
REMARK    7  A    between atoms: C_21  and  C_22 
REMARK    8  A    between atoms: C_24  and  C_25 
REMARK    9  A    between atoms: C_25  and  O_26 
ROOT
HETATM    1  C   UNL     1     -41.250  54.360 -51.450  1.00  0.00     0.079 C 
HETATM    2  C   UNL     1     -41.376  55.573 -52.275  1.00  0.00     0.078 A 
HETATM    3  O   UNL     1     -41.770  56.720 -51.647  1.00  0.00    -0.294 OA
HETATM    4  C   UNL     1     -41.811  57.660 -52.643  1.00  0.00     0.180 A 
HETATM    5  N   UNL     1     -41.450  57.203 -53.829  1.00  0.00    -0.224 NA
HETATM    6  C   UNL     1     -41.205  55.861 -53.613  1.00  0.00     0.084 A 
ENDROOT
BRANCH   4   7
HETATM    7  C   UNL     1     -42.267  58.996 -52.271  1.00  0.00     0.019 A 
HETATM    8  C   UNL     1     -42.813  59.264 -51.002  1.00  0.00     0.045 A 
HETATM    9  C   UNL     1     -43.306  60.533 -50.683  1.00  0.00     0.035 A 
HETATM   10  C   UNL     1     -43.227  61.552 -51.639  1.00  0.00     0.029 A 
HETATM   11  C   UNL     1     -42.678  61.307 -52.897  1.00  0.00     0.003 A 
HETATM   12  C   UNL     1     -42.208  60.033 -53.213  1.00  0.00     0.016 A 
BRANCH   9  13
HETATM   13  N   UNL     1     -43.913  60.854 -49.455  1.00  0.00    -0.325 N 
HETATM   14  C   UNL     1     -45.262  60.919 -49.156  1.00  0.00     0.245 C 
HETATM   15  O   UNL     1     -46.200  60.635 -49.894  1.00  0.00    -0.271 OA
HETATM   16  H   UNL     1     -43.300  61.129 -48.692  1.00  0.00     0.169 HD
BRANCH  14  17
HETATM   17  C   UNL     1     -45.499  61.367 -47.707  1.00  0.00     0.270 C 
BRANCH  17  18
HETATM   18  O   UNL     1     -46.647  60.760 -47.112  1.00  0.00    -0.387 OA
HETATM   19  C   UNL     1     -46.287  59.729 -46.196  1.00  0.00     0.202 C 
ENDBRANCH  17  18
ENDBRANCH  14  17
ENDBRANCH   9  13
ENDBRANCH   4   7
BRANCH   6  20
HETATM   20  C   UNL     1     -40.861  54.948 -54.732  1.00  0.00     0.185 C 
BRANCH  20  21
HETATM   21  N   UNL     1     -41.344  55.496 -55.974  1.00  0.00    -0.351 N 
HETATM   22  C   UNL     1     -42.561  55.148 -56.513  1.00  0.00     0.258 C 
HETATM   23  O   UNL     1     -43.284  54.314 -55.972  1.00  0.00    -0.267 OA
HETATM   24  H   UNL     1     -40.732  56.107 -56.500  1.00  0.00     0.163 HD
BRANCH  22  25
HETATM   25  C   UNL     1     -42.939  55.839 -57.740  1.00  0.00     0.073 A 
HETATM   26  S   UNL     1     -42.561  57.485 -58.028  1.00  0.00    -0.087 SA
HETATM   27  C   UNL     1     -43.381  57.499 -59.530  1.00  0.00     0.007 A 
HETATM   28  C   UNL     1     -43.909  56.257 -59.824  1.00  0.00     0.018 A 
HETATM   29  C   UNL     1     -43.653  55.304 -58.797  1.00  0.00     0.026 A 
BRANCH  27  30
HETATM   30  C   UNL     1     -43.459  58.750 -60.344  1.00  0.00     0.213 C 
BRANCH  30  31
HETATM   31  O   UNL     1     -42.140  59.008 -60.822  1.00  0.00    -0.391 OA
HETATM   32  C   UNL     1     -42.039  60.294 -61.414  1.00  0.00     0.201 C 
ENDBRANCH  30  31
ENDBRANCH  27  30
ENDBRANCH  22  25
ENDBRANCH  20  21
ENDBRANCH   6  20
TORSDOF 9
ENDMDL
MODEL 6
REMARK VINA RESULT:      -6.7      3.052      8.682
REMARK  9 active torsions:
REMARK  status: ('A' for Active; 'I' for Inactive)
REMARK    1  A    between atoms: C_4  and  C_5 
REMARK    2  A    between atoms: C_7  and  N_8 
REMARK       I    between atoms: N_8  and  C_9 
REMARK    3  A    between atoms: C_9  and  C_10 
REMARK    4  A    between atoms: C_10  and  O_11 
REMARK    5  A    between atoms: C_18  and  C_19 
REMARK    6  A    between atoms: C_19  and  N_20 
REMARK       I    between atoms: N_20  and  C_21 
REMARK    7  A    between atoms: C_21  and  C_22 
REMARK    8  A    between atoms: C_24  and  C_25 
REMARK    9  A    between atoms: C_25  and  O_26 
ROOT
HETATM    1  C   UNL     1     -43.354  61.755 -52.754  1.00  0.00     0.079 C 
HETATM    2  C   UNL     1     -42.689  60.942 -53.787  1.00  0.00     0.078 A 
HETATM    3  O   UNL     1     -43.021  61.189 -55.089  1.00  0.00    -0.294 OA
HETATM    4  C   UNL     1     -42.273  60.296 -55.809  1.00  0.00     0.180 A 
HETATM    5  N   UNL     1     -41.484  59.536 -55.070  1.00  0.00    -0.224 NA
HETATM    6  C   UNL     1     -41.769  59.915 -53.773  1.00  0.00     0.084 A 
ENDROOT
BRANCH   4   7
HETATM    7  C   UNL     1     -42.469  60.286 -57.256  1.00  0.00     0.019 A 
HETATM    8  C   UNL     1     -43.422  59.452 -57.867  1.00  0.00     0.045 A 
HETATM    9  C   UNL     1     -43.553  59.405 -59.259  1.00  0.00     0.035 A 
HETATM   10  C   UNL     1     -42.736  60.226 -60.046  1.00  0.00     0.029 A 
HETATM   11  C   UNL     1     -41.795  61.069 -59.455  1.00  0.00     0.003 A 
HETATM   12  C   UNL     1     -41.657  61.092 -58.068  1.00  0.00     0.016 A 
BRANCH   9  13
HETATM   13  N   UNL     1     -44.446  58.556 -59.936  1.00  0.00    -0.325 N 
HETATM   14  C   UNL     1     -45.481  57.803 -59.409  1.00  0.00     0.245 C 
HETATM   15  O   UNL     1     -45.869  57.789 -58.246  1.00  0.00    -0.271 OA
HETATM   16  H   UNL     1     -44.295  58.421 -60.933  1.00  0.00     0.169 HD
BRANCH  14  17
HETATM   17  C   UNL     1     -46.177  56.964 -60.489  1.00  0.00     0.270 C 
BRANCH  17  18
HETATM   18  O   UNL     1     -46.166  55.564 -60.206  1.00  0.00    -0.387 OA
HETATM   19  C   UNL     1     -44.853  55.017 -60.289  1.00  0.00     0.202 C 
ENDBRANCH  17  18
ENDBRANCH  14  17
ENDBRANCH   9  13
ENDBRANCH   4   7
BRANCH   6  20
HETATM   20  C   UNL     1     -41.155  59.223 -52.613  1.00  0.00     0.185 C 
BRANCH  20  21
HETATM   21  N   UNL     1     -40.791  57.879 -52.984  1.00  0.00    -0.351 N 
HETATM   22  C   UNL     1     -41.615  56.800 -52.759  1.00  0.00     0.258 C 
HETATM   23  O   UNL     1     -42.697  56.930 -52.189  1.00  0.00    -0.267 OA
HETATM   24  H   UNL     1     -39.866  57.718 -53.360  1.00  0.00     0.163 HD
BRANCH  22  25
HETATM   25  C   UNL     1     -41.136  55.515 -53.252  1.00  0.00     0.073 A 
HETATM   26  S   UNL     1     -40.972  54.140 -52.243  1.00  0.00    -0.087 SA
HETATM   27  C   UNL     1     -40.324  53.184 -53.506  1.00  0.00     0.007 A 
HETATM   28  C   UNL     1     -40.262  53.893 -54.689  1.00  0.00     0.018 A 
HETATM   29  C   UNL     1     -40.731  55.230 -54.544  1.00  0.00     0.026 A 
BRANCH  27  30
HETATM   30  C   UNL     1     -39.906  51.771 -53.255  1.00  0.00     0.213 C 
BRANCH  30  31
HETATM   31  O   UNL     1     -40.433  50.994 -54.329  1.00  0.00    -0.391 OA
HETATM   32  C   UNL     1     -39.685  49.805 -54.532  1.00  0.00     0.201 C 
ENDBRANCH  30  31
ENDBRANCH  27  30
ENDBRANCH  22  25
ENDBRANCH  20  21
ENDBRANCH   6  20
TORSDOF 9
ENDMDL
MODEL 7
REMARK VINA RESULT:      -6.7      2.278      8.611
REMARK  9 active torsions:
REMARK  status: ('A' for Active; 'I' for Inactive)
REMARK    1  A    between atoms: C_4  and  C_5 
REMARK    2  A    between atoms: C_7  and  N_8 
REMARK       I    between atoms: N_8  and  C_9 
REMARK    3  A    between atoms: C_9  and  C_10 
REMARK    4  A    between atoms: C_10  and  O_11 
REMARK    5  A    between atoms: C_18  and  C_19 
REMARK    6  A    between atoms: C_19  and  N_20 
REMARK       I    between atoms: N_20  and  C_21 
REMARK    7  A    between atoms: C_21  and  C_22 
REMARK    8  A    between atoms: C_24  and  C_25 
REMARK    9  A    between atoms: C_25  and  O_26 
ROOT
HETATM    1  C   UNL     1     -44.714  60.127 -51.542  1.00  0.00     0.079 C 
HETATM    2  C   UNL     1     -44.218  59.095 -52.468  1.00  0.00     0.078 A 
HETATM    3  O   UNL     1     -44.100  59.438 -53.785  1.00  0.00    -0.294 OA
HETATM    4  C   UNL     1     -43.638  58.302 -54.396  1.00  0.00     0.180 A 
HETATM    5  N   UNL     1     -43.432  57.293 -53.569  1.00  0.00    -0.224 NA
HETATM    6  C   UNL     1     -43.834  57.776 -52.338  1.00  0.00     0.084 A 
ENDROOT
BRANCH   4   7
HETATM    7  C   UNL     1     -43.472  58.354 -55.845  1.00  0.00     0.019 A 
HETATM    8  C   UNL     1     -44.297  57.613 -56.710  1.00  0.00     0.045 A 
HETATM    9  C   UNL     1     -44.084  57.621 -58.092  1.00  0.00     0.035 A 
HETATM   10  C   UNL     1     -43.047  58.403 -58.615  1.00  0.00     0.029 A 
HETATM   11  C   UNL     1     -42.228  59.154 -57.773  1.00  0.00     0.003 A 
HETATM   12  C   UNL     1     -42.435  59.122 -56.394  1.00  0.00     0.016 A 
BRANCH   9  13
HETATM   13  N   UNL     1     -44.835  56.862 -59.008  1.00  0.00    -0.325 N 
HETATM   14  C   UNL     1     -44.376  56.049 -60.029  1.00  0.00     0.245 C 
HETATM   15  O   UNL     1     -43.209  55.774 -60.290  1.00  0.00    -0.271 OA
HETATM   16  H   UNL     1     -45.848  56.951 -58.966  1.00  0.00     0.169 HD
BRANCH  14  17
HETATM   17  C   UNL     1     -45.533  55.446 -60.836  1.00  0.00     0.270 C 
BRANCH  17  18
HETATM   18  O   UNL     1     -46.819  55.837 -60.354  1.00  0.00    -0.387 OA
HETATM   19  C   UNL     1     -47.555  56.563 -61.335  1.00  0.00     0.202 C 
ENDBRANCH  17  18
ENDBRANCH  14  17
ENDBRANCH   9  13
ENDBRANCH   4   7
BRANCH   6  20
HETATM   20  C   UNL     1     -43.853  56.908 -51.136  1.00  0.00     0.185 C 
BRANCH  20  21
HETATM   21  N   UNL     1     -43.000  55.766 -51.345  1.00  0.00    -0.351 N 
HETATM   22  C   UNL     1     -41.847  55.561 -50.622  1.00  0.00     0.258 C 
HETATM   23  O   UNL     1     -41.468  56.374 -49.781  1.00  0.00    -0.267 OA
HETATM   24  H   UNL     1     -43.224  55.130 -52.099  1.00  0.00     0.163 HD
BRANCH  22  25
HETATM   25  C   UNL     1     -41.127  54.325 -50.902  1.00  0.00     0.073 A 
HETATM   26  S   UNL     1     -40.592  53.903 -52.474  1.00  0.00    -0.087 SA
HETATM   27  C   UNL     1     -39.977  52.394 -51.951  1.00  0.00     0.007 A 
HETATM   28  C   UNL     1     -40.148  52.227 -50.591  1.00  0.00     0.018 A 
HETATM   29  C   UNL     1     -40.806  53.336 -49.989  1.00  0.00     0.026 A 
BRANCH  27  30
HETATM   30  C   UNL     1     -39.353  51.446 -52.925  1.00  0.00     0.213 C 
BRANCH  30  31
HETATM   31  O   UNL     1     -40.416  50.921 -53.719  1.00  0.00    -0.391 OA
HETATM   32  C   UNL     1     -39.980  49.837 -54.526  1.00  0.00     0.201 C 
ENDBRANCH  30  31
ENDBRANCH  27  30
ENDBRANCH  22  25
ENDBRANCH  20  21
ENDBRANCH   6  20
TORSDOF 9
ENDMDL
MODEL 8
REMARK VINA RESULT:      -6.6     16.276     18.837
REMARK  9 active torsions:
REMARK  status: ('A' for Active; 'I' for Inactive)
REMARK    1  A    between atoms: C_4  and  C_5 
REMARK    2  A    between atoms: C_7  and  N_8 
REMARK       I    between atoms: N_8  and  C_9 
REMARK    3  A    between atoms: C_9  and  C_10 
REMARK    4  A    between atoms: C_10  and  O_11 
REMARK    5  A    between atoms: C_18  and  C_19 
REMARK    6  A    between atoms: C_19  and  N_20 
REMARK       I    between atoms: N_20  and  C_21 
REMARK    7  A    between atoms: C_21  and  C_22 
REMARK    8  A    between atoms: C_24  and  C_25 
REMARK    9  A    between atoms: C_25  and  O_26 
ROOT
HETATM    1  C   UNL     1     -34.686  41.860 -51.829  1.00  0.00     0.079 C 
HETATM    2  C   UNL     1     -33.664  40.911 -51.354  1.00  0.00     0.078 A 
HETATM    3  O   UNL     1     -33.711  40.546 -50.039  1.00  0.00    -0.294 OA
HETATM    4  C   UNL     1     -32.657  39.685 -49.884  1.00  0.00     0.180 A 
HETATM    5  N   UNL     1     -31.977  39.462 -50.995  1.00  0.00    -0.224 NA
HETATM    6  C   UNL     1     -32.590  40.270 -51.934  1.00  0.00     0.084 A 
ENDROOT
BRANCH   4   7
HETATM    7  C   UNL     1     -32.418  39.170 -48.539  1.00  0.00     0.019 A 
HETATM    8  C   UNL     1     -31.269  39.523 -47.807  1.00  0.00     0.045 A 
HETATM    9  C   UNL     1     -31.021  38.970 -46.546  1.00  0.00     0.035 A 
HETATM   10  C   UNL     1     -31.949  38.074 -46.002  1.00  0.00     0.029 A 
HETATM   11  C   UNL     1     -33.099  37.724 -46.710  1.00  0.00     0.003 A 
HETATM   12  C   UNL     1     -33.327  38.264 -47.975  1.00  0.00     0.016 A 
BRANCH   9  13
HETATM   13  N   UNL     1     -29.869  39.236 -45.784  1.00  0.00    -0.325 N 
HETATM   14  C   UNL     1     -28.640  38.602 -45.838  1.00  0.00     0.245 C 
HETATM   15  O   UNL     1     -28.293  37.724 -46.620  1.00  0.00    -0.271 OA
HETATM   16  H   UNL     1     -29.944  39.945 -45.059  1.00  0.00     0.169 HD
BRANCH  14  17
HETATM   17  C   UNL     1     -27.669  39.163 -44.791  1.00  0.00     0.270 C 
BRANCH  17  18
HETATM   18  O   UNL     1     -28.211  40.255 -44.048  1.00  0.00    -0.387 OA
HETATM   19  C   UNL     1     -28.193  40.003 -42.645  1.00  0.00     0.202 C 
ENDBRANCH  17  18
ENDBRANCH  14  17
ENDBRANCH   9  13
ENDBRANCH   4   7
BRANCH   6  20
HETATM   20  C   UNL     1     -32.060  40.388 -53.315  1.00  0.00     0.185 C 
BRANCH  20  21
HETATM   21  N   UNL     1     -33.140  40.656 -54.230  1.00  0.00    -0.351 N 
HETATM   22  C   UNL     1     -32.973  40.644 -55.596  1.00  0.00     0.258 C 
HETATM   23  O   UNL     1     -31.872  40.439 -56.103  1.00  0.00    -0.267 OA
HETATM   24  H   UNL     1     -34.036  40.931 -53.849  1.00  0.00     0.163 HD
BRANCH  22  25
HETATM   25  C   UNL     1     -34.175  40.867 -56.390  1.00  0.00     0.073 A 
HETATM   26  S   UNL     1     -34.942  39.618 -57.277  1.00  0.00    -0.087 SA
HETATM   27  C   UNL     1     -36.115  40.682 -57.925  1.00  0.00     0.007 A 
HETATM   28  C   UNL     1     -35.945  41.966 -57.446  1.00  0.00     0.018 A 
HETATM   29  C   UNL     1     -34.833  42.071 -56.564  1.00  0.00     0.026 A 
BRANCH  27  30
HETATM   30  C   UNL     1     -37.151  40.184 -58.881  1.00  0.00     0.213 C 
BRANCH  30  31
HETATM   31  O   UNL     1     -36.451  39.499 -59.918  1.00  0.00    -0.391 OA
HETATM   32  C   UNL     1     -37.217  39.431 -61.111  1.00  0.00     0.201 C 
ENDBRANCH  30  31
ENDBRANCH  27  30
ENDBRANCH  22  25
ENDBRANCH  20  21
ENDBRANCH   6  20
TORSDOF 9
ENDMDL
MODEL 9
REMARK VINA RESULT:      -6.6      3.563      7.148
REMARK  9 active torsions:
REMARK  status: ('A' for Active; 'I' for Inactive)
REMARK    1  A    between atoms: C_4  and  C_5 
REMARK    2  A    between atoms: C_7  and  N_8 
REMARK       I    between atoms: N_8  and  C_9 
REMARK    3  A    between atoms: C_9  and  C_10 
REMARK    4  A    between atoms: C_10  and  O_11 
REMARK    5  A    between atoms: C_18  and  C_19 
REMARK    6  A    between atoms: C_19  and  N_20 
REMARK       I    between atoms: N_20  and  C_21 
REMARK    7  A    between atoms: C_21  and  C_22 
REMARK    8  A    between atoms: C_24  and  C_25 
REMARK    9  A    between atoms: C_25  and  O_26 
ROOT
HETATM    1  C   UNL     1     -41.201  53.427 -53.173  1.00  0.00     0.079 C 
HETATM    2  C   UNL     1     -41.521  54.846 -53.406  1.00  0.00     0.078 A 
HETATM    3  O   UNL     1     -41.421  55.694 -52.339  1.00  0.00    -0.294 OA
HETATM    4  C   UNL     1     -41.782  56.917 -52.839  1.00  0.00     0.180 A 
HETATM    5  N   UNL     1     -42.070  56.908 -54.128  1.00  0.00    -0.224 NA
HETATM    6  C   UNL     1     -41.942  55.582 -54.493  1.00  0.00     0.084 A 
ENDROOT
BRANCH   4   7
HETATM    7  C   UNL     1     -41.828  58.029 -51.893  1.00  0.00     0.019 A 
HETATM    8  C   UNL     1     -42.987  58.808 -51.724  1.00  0.00     0.045 A 
HETATM    9  C   UNL     1     -42.994  59.910 -50.863  1.00  0.00     0.035 A 
HETATM   10  C   UNL     1     -41.834  60.218 -50.142  1.00  0.00     0.029 A 
HETATM   11  C   UNL     1     -40.681  59.448 -50.289  1.00  0.00     0.003 A 
HETATM   12  C   UNL     1     -40.676  58.364 -51.166  1.00  0.00     0.016 A 
BRANCH   9  13
HETATM   13  N   UNL     1     -44.100  60.762 -50.688  1.00  0.00    -0.325 N 
HETATM   14  C   UNL     1     -45.354  60.450 -50.193  1.00  0.00     0.245 C 
HETATM   15  O   UNL     1     -45.725  59.373 -49.739  1.00  0.00    -0.271 OA
HETATM   16  H   UNL     1     -44.003  61.722 -51.010  1.00  0.00     0.169 HD
BRANCH  14  17
HETATM   17  C   UNL     1     -46.292  61.664 -50.223  1.00  0.00     0.270 C 
BRANCH  17  18
HETATM   18  O   UNL     1     -46.793  62.020 -48.934  1.00  0.00    -0.387 OA
HETATM   19  C   UNL     1     -45.781  62.597 -48.113  1.00  0.00     0.202 C 
ENDBRANCH  17  18
ENDBRANCH  14  17
ENDBRANCH   9  13
ENDBRANCH   4   7
BRANCH   6  20
HETATM   20  C   UNL     1     -42.279  55.122 -55.863  1.00  0.00     0.185 C 
BRANCH  20  21
HETATM   21  N   UNL     1     -42.070  56.194 -56.803  1.00  0.00    -0.351 N 
HETATM   22  C   UNL     1     -42.739  56.266 -58.004  1.00  0.00     0.258 C 
HETATM   23  O   UNL     1     -43.525  55.387 -58.350  1.00  0.00    -0.267 OA
HETATM   24  H   UNL     1     -41.355  56.879 -56.599  1.00  0.00     0.163 HD
BRANCH  22  25
HETATM   25  C   UNL     1     -42.470  57.446 -58.815  1.00  0.00     0.073 A 
HETATM   26  S   UNL     1     -42.586  59.041 -58.197  1.00  0.00    -0.087 SA
HETATM   27  C   UNL     1     -42.224  59.746 -59.713  1.00  0.00     0.007 A 
HETATM   28  C   UNL     1     -41.986  58.780 -60.672  1.00  0.00     0.018 A 
HETATM   29  C   UNL     1     -42.125  57.461 -60.155  1.00  0.00     0.026 A 
BRANCH  27  30
HETATM   30  C   UNL     1     -42.195  61.232 -59.875  1.00  0.00     0.213 C 
BRANCH  30  31
HETATM   31  O   UNL     1     -40.873  61.652 -59.543  1.00  0.00    -0.391 OA
HETATM   32  C   UNL     1     -40.871  62.562 -58.453  1.00  0.00     0.201 C 
ENDBRANCH  30  31
ENDBRANCH  27  30
ENDBRANCH  22  25
ENDBRANCH  20  21
ENDBRANCH   6  20
TORSDOF 9
ENDMDL
MODEL 10
REMARK VINA RESULT:      -6.5      3.704      6.419
REMARK  9 active torsions:
REMARK  status: ('A' for Active; 'I' for Inactive)
REMARK    1  A    between atoms: C_4  and  C_5 
REMARK    2  A    between atoms: C_7  and  N_8 
REMARK       I    between atoms: N_8  and  C_9 
REMARK    3  A    between atoms: C_9  and  C_10 
REMARK    4  A    between atoms: C_10  and  O_11 
REMARK    5  A    between atoms: C_18  and  C_19 
REMARK    6  A    between atoms: C_19  and  N_20 
REMARK       I    between atoms: N_20  and  C_21 
REMARK    7  A    between atoms: C_21  and  C_22 
REMARK    8  A    between atoms: C_24  and  C_25 
REMARK    9  A    between atoms: C_25  and  O_26 
ROOT
HETATM    1  C   UNL     1     -44.363  54.895 -59.833  1.00  0.00     0.079 C 
HETATM    2  C   UNL     1     -43.624  55.760 -58.897  1.00  0.00     0.078 A 
HETATM    3  O   UNL     1     -43.218  55.204 -57.717  1.00  0.00    -0.294 OA
HETATM    4  C   UNL     1     -42.582  56.223 -57.059  1.00  0.00     0.180 A 
HETATM    5  N   UNL     1     -42.532  57.354 -57.740  1.00  0.00    -0.224 NA
HETATM    6  C   UNL     1     -43.228  57.081 -58.901  1.00  0.00     0.084 A 
ENDROOT
BRANCH   4   7
HETATM    7  C   UNL     1     -42.086  55.933 -55.717  1.00  0.00     0.019 A 
HETATM    8  C   UNL     1     -42.053  56.918 -54.713  1.00  0.00     0.045 A 
HETATM    9  C   UNL     1     -41.514  56.643 -53.452  1.00  0.00     0.035 A 
HETATM   10  C   UNL     1     -41.026  55.358 -53.187  1.00  0.00     0.029 A 
HETATM   11  C   UNL     1     -41.063  54.367 -54.167  1.00  0.00     0.003 A 
HETATM   12  C   UNL     1     -41.583  54.657 -55.428  1.00  0.00     0.016 A 
BRANCH   9  13
HETATM   13  N   UNL     1     -41.401  57.594 -52.422  1.00  0.00    -0.325 N 
HETATM   14  C   UNL     1     -40.545  58.679 -52.346  1.00  0.00     0.245 C 
HETATM   15  O   UNL     1     -39.760  59.066 -53.205  1.00  0.00    -0.271 OA
HETATM   16  H   UNL     1     -41.975  57.454 -51.594  1.00  0.00     0.169 HD
BRANCH  14  17
HETATM   17  C   UNL     1     -40.704  59.433 -51.019  1.00  0.00     0.270 C 
BRANCH  17  18
HETATM   18  O   UNL     1     -42.060  59.515 -50.578  1.00  0.00    -0.387 OA
HETATM   19  C   UNL     1     -42.668  60.747 -50.959  1.00  0.00     0.202 C 
ENDBRANCH  17  18
ENDBRANCH  14  17
ENDBRANCH   9  13
ENDBRANCH   4   7
BRANCH   6  20
HETATM   20  C   UNL     1     -43.491  58.135 -59.911  1.00  0.00     0.185 C 
BRANCH  20  21
HETATM   21  N   UNL     1     -44.727  57.856 -60.598  1.00  0.00    -0.351 N 
HETATM   22  C   UNL     1     -45.942  58.328 -60.158  1.00  0.00     0.258 C 
HETATM   23  O   UNL     1     -46.034  58.986 -59.123  1.00  0.00    -0.267 OA
HETATM   24  H   UNL     1     -44.704  57.231 -61.393  1.00  0.00     0.163 HD
BRANCH  22  25
HETATM   25  C   UNL     1     -47.092  58.017 -60.997  1.00  0.00     0.073 A 
HETATM   26  S   UNL     1     -48.109  59.228 -61.658  1.00  0.00    -0.087 SA
HETATM   27  C   UNL     1     -49.158  58.078 -62.369  1.00  0.00     0.007 A 
HETATM   28  C   UNL     1     -48.723  56.789 -62.133  1.00  0.00     0.018 A 
HETATM   29  C   UNL     1     -47.536  56.755 -61.348  1.00  0.00     0.026 A 
BRANCH  27  30
HETATM   30  C   UNL     1     -50.369  58.517 -63.128  1.00  0.00     0.213 C 
BRANCH  30  31
HETATM   31  O   UNL     1     -51.398  58.732 -62.165  1.00  0.00    -0.391 OA
HETATM   32  C   UNL     1     -51.908  60.055 -62.228  1.00  0.00     0.201 C 
ENDBRANCH  30  31
ENDBRANCH  27  30
ENDBRANCH  22  25
ENDBRANCH  20  21
ENDBRANCH   6  20
TORSDOF 9
ENDMDL
