MODEL 1
REMARK VINA RESULT:      -8.3      0.000      0.000
REMARK  3 active torsions:
REMARK  status: ('A' for Active; 'I' for Inactive)
REMARK    1  A    between atoms: C_6  and  N_7 
REMARK       I    between atoms: N_7  and  C_8 
REMARK    2  A    between atoms: C_8  and  C_9 
REMARK    3  A    between atoms: C_9  and  C_10 
ROOT
HETATM    1  C   UNL     1     -43.362  55.842 -53.431  1.00  0.00     0.286 C 
HETATM    2  N   UNL     1     -42.400  56.974 -53.826  1.00  0.00    -0.056 N 
HETATM    3  H   UNL     1     -41.869  56.656 -54.661  1.00  0.00     0.278 HD
HETATM    4  H   UNL     1     -42.935  57.801 -54.118  1.00  0.00     0.278 HD
HETATM    5  C   UNL     1     -41.342  57.326 -52.814  1.00  0.00     0.209 C 
HETATM    6  C   UNL     1     -41.949  57.335 -51.399  1.00  0.00     0.115 C 
HETATM    7  N   UNL     1     -42.511  56.033 -51.093  1.00  0.00    -0.353 N 
HETATM    8  C   UNL     1     -43.216  55.287 -51.999  1.00  0.00     0.249 C 
HETATM    9  O   UNL     1     -43.749  54.241 -51.641  1.00  0.00    -0.271 OA
HETATM   10  C   UNL     1     -40.721  58.670 -53.179  1.00  0.00     0.035 C 
HETATM   11  C   UNL     1     -39.666  59.069 -52.148  1.00  0.00     0.002 C 
HETATM   12  C   UNL     1     -40.230  59.065 -50.728  1.00  0.00     0.002 C 
HETATM   13  C   UNL     1     -40.887  57.733 -50.370  1.00  0.00     0.027 C 
HETATM   14  H   UNL     1     -42.536  55.688 -50.135  1.00  0.00     0.163 HD
ENDROOT
BRANCH   1  15
HETATM   15  C   UNL     1     -43.390  54.713 -54.474  1.00  0.00     0.146 C 
BRANCH  15  16
HETATM   16  C   UNL     1     -42.124  54.701 -55.293  1.00  0.00     0.224 C 
HETATM   17  N   UNL     1     -41.074  53.874 -55.091  1.00  0.00    -0.327 N 
HETATM   18  H   UNL     1     -40.445  53.877 -55.890  1.00  0.00     0.169 HD
HETATM   19  O   UNL     1     -42.105  55.429 -56.299  1.00  0.00    -0.273 OA
BRANCH  17  20
HETATM   20  C   UNL     1     -40.661  53.035 -54.040  1.00  0.00     0.035 A 
HETATM   21  C   UNL     1     -40.544  53.408 -52.704  1.00  0.00     0.037 A 
HETATM   22  C   UNL     1     -40.103  52.495 -51.723  1.00  0.00    -0.054 A 
HETATM   23  C   UNL     1     -39.766  51.183 -52.096  1.00  0.00    -0.056 A 
HETATM   24  C   UNL     1     -40.017  52.946 -50.288  1.00  0.00     0.049 C 
HETATM   25  C   UNL     1     -39.287  50.172 -51.090  1.00  0.00     0.049 C 
HETATM   26  C   UNL     1     -39.838  50.823 -53.446  1.00  0.00     0.009 A 
HETATM   27  C   UNL     1     -40.275  51.740 -54.404  1.00  0.00     0.030 A 
ENDBRANCH  17  20
ENDBRANCH  15  16
ENDBRANCH   1  15
TORSDOF 3
ENDMDL
MODEL 2
REMARK VINA RESULT:      -8.0      0.643      1.544
REMARK  3 active torsions:
REMARK  status: ('A' for Active; 'I' for Inactive)
REMARK    1  A    between atoms: C_6  and  N_7 
REMARK       I    between atoms: N_7  and  C_8 
REMARK    2  A    between atoms: C_8  and  C_9 
REMARK    3  A    between atoms: C_9  and  C_10 
ROOT
HETATM    1  C   UNL     1     -43.379  56.314 -53.008  1.00  0.00     0.286 C 
HETATM    2  N   UNL     1     -42.284  57.274 -53.500  1.00  0.00    -0.056 N 
HETATM    3  H   UNL     1     -41.783  56.803 -54.280  1.00  0.00     0.278 HD
HETATM    4  H   UNL     1     -42.713  58.119 -53.897  1.00  0.00     0.278 HD
HETATM    5  C   UNL     1     -41.206  57.613 -52.505  1.00  0.00     0.209 C 
HETATM    6  C   UNL     1     -41.828  57.854 -51.117  1.00  0.00     0.115 C 
HETATM    7  N   UNL     1     -42.545  56.670 -50.683  1.00  0.00    -0.353 N 
HETATM    8  C   UNL     1     -43.321  55.912 -51.519  1.00  0.00     0.249 C 
HETATM    9  O   UNL     1     -43.979  54.983 -51.061  1.00  0.00    -0.271 OA
HETATM   10  C   UNL     1     -40.425  58.825 -53.000  1.00  0.00     0.035 C 
HETATM   11  C   UNL     1     -39.345  59.214 -51.992  1.00  0.00     0.002 C 
HETATM   12  C   UNL     1     -39.925  59.437 -50.596  1.00  0.00     0.002 C 
HETATM   13  C   UNL     1     -40.740  58.240 -50.110  1.00  0.00     0.027 C 
HETATM   14  H   UNL     1     -42.623  56.441 -49.694  1.00  0.00     0.163 HD
ENDROOT
BRANCH   1  15
HETATM   15  C   UNL     1     -43.527  55.084 -53.919  1.00  0.00     0.146 C 
BRANCH  15  16
HETATM   16  C   UNL     1     -42.468  55.076 -54.993  1.00  0.00     0.224 C 
HETATM   17  N   UNL     1     -41.459  54.182 -55.084  1.00  0.00    -0.327 N 
HETATM   18  H   UNL     1     -41.016  54.220 -55.998  1.00  0.00     0.169 HD
HETATM   19  O   UNL     1     -42.613  55.885 -55.924  1.00  0.00    -0.273 OA
BRANCH  17  20
HETATM   20  C   UNL     1     -40.890  53.237 -54.211  1.00  0.00     0.035 A 
HETATM   21  C   UNL     1     -40.470  51.957 -54.562  1.00  0.00     0.037 A 
HETATM   22  C   UNL     1     -39.926  51.075 -53.606  1.00  0.00    -0.054 A 
HETATM   23  C   UNL     1     -39.809  51.486 -52.267  1.00  0.00    -0.056 A 
HETATM   24  C   UNL     1     -39.466  49.709 -54.046  1.00  0.00     0.049 C 
HETATM   25  C   UNL     1     -39.239  50.582 -51.208  1.00  0.00     0.049 C 
HETATM   26  C   UNL     1     -40.276  52.754 -51.905  1.00  0.00     0.009 A 
HETATM   27  C   UNL     1     -40.814  53.615 -52.865  1.00  0.00     0.030 A 
ENDBRANCH  17  20
ENDBRANCH  15  16
ENDBRANCH   1  15
TORSDOF 3
ENDMDL
MODEL 3
REMARK VINA RESULT:      -8.0      2.432      6.248
REMARK  3 active torsions:
REMARK  status: ('A' for Active; 'I' for Inactive)
REMARK    1  A    between atoms: C_6  and  N_7 
REMARK       I    between atoms: N_7  and  C_8 
REMARK    2  A    between atoms: C_8  and  C_9 
REMARK    3  A    between atoms: C_9  and  C_10 
ROOT
HETATM    1  C   UNL     1     -40.718  54.332 -51.601  1.00  0.00     0.286 C 
HETATM    2  N   UNL     1     -40.637  53.647 -52.975  1.00  0.00    -0.056 N 
HETATM    3  H   UNL     1     -41.496  53.904 -53.502  1.00  0.00     0.278 HD
HETATM    4  H   UNL     1     -39.845  54.025 -53.508  1.00  0.00     0.278 HD
HETATM    5  C   UNL     1     -40.632  52.142 -52.964  1.00  0.00     0.209 C 
HETATM    6  C   UNL     1     -39.727  51.626 -51.831  1.00  0.00     0.115 C 
HETATM    7  N   UNL     1     -40.199  52.127 -50.554  1.00  0.00    -0.353 N 
HETATM    8  C   UNL     1     -40.653  53.406 -50.369  1.00  0.00     0.249 C 
HETATM    9  O   UNL     1     -40.941  53.791 -49.240  1.00  0.00    -0.271 OA
HETATM   10  C   UNL     1     -40.188  51.628 -54.329  1.00  0.00     0.035 C 
HETATM   11  C   UNL     1     -40.141  50.101 -54.338  1.00  0.00     0.002 C 
HETATM   12  C   UNL     1     -39.268  49.555 -53.208  1.00  0.00     0.002 C 
HETATM   13  C   UNL     1     -39.686  50.096 -51.842  1.00  0.00     0.027 C 
HETATM   14  H   UNL     1     -40.065  51.588 -49.700  1.00  0.00     0.163 HD
ENDROOT
BRANCH   1  15
HETATM   15  C   UNL     1     -41.898  55.313 -51.508  1.00  0.00     0.146 C 
BRANCH  15  16
HETATM   16  C   UNL     1     -43.200  54.626 -51.836  1.00  0.00     0.224 C 
HETATM   17  N   UNL     1     -43.758  54.563 -53.065  1.00  0.00    -0.327 N 
HETATM   18  H   UNL     1     -44.495  53.864 -53.098  1.00  0.00     0.169 HD
HETATM   19  O   UNL     1     -43.730  53.973 -50.922  1.00  0.00    -0.273 OA
BRANCH  17  20
HETATM   20  C   UNL     1     -43.559  55.242 -54.280  1.00  0.00     0.035 A 
HETATM   21  C   UNL     1     -43.854  56.581 -54.519  1.00  0.00     0.037 A 
HETATM   22  C   UNL     1     -43.632  57.168 -55.782  1.00  0.00    -0.054 A 
HETATM   23  C   UNL     1     -43.110  56.390 -56.829  1.00  0.00    -0.056 A 
HETATM   24  C   UNL     1     -43.949  58.629 -55.978  1.00  0.00     0.049 C 
HETATM   25  C   UNL     1     -42.859  56.966 -58.196  1.00  0.00     0.049 C 
HETATM   26  C   UNL     1     -42.860  55.033 -56.603  1.00  0.00     0.009 A 
HETATM   27  C   UNL     1     -43.086  54.467 -55.345  1.00  0.00     0.030 A 
ENDBRANCH  17  20
ENDBRANCH  15  16
ENDBRANCH   1  15
TORSDOF 3
ENDMDL
MODEL 4
REMARK VINA RESULT:      -7.9      2.345      3.408
REMARK  3 active torsions:
REMARK  status: ('A' for Active; 'I' for Inactive)
REMARK    1  A    between atoms: C_6  and  N_7 
REMARK       I    between atoms: N_7  and  C_8 
REMARK    2  A    between atoms: C_8  and  C_9 
REMARK    3  A    between atoms: C_9  and  C_10 
ROOT
HETATM    1  C   UNL     1     -41.336  57.334 -52.638  1.00  0.00     0.286 C 
HETATM    2  N   UNL     1     -42.789  57.059 -52.223  1.00  0.00    -0.056 N 
HETATM    3  H   UNL     1     -43.251  56.562 -53.012  1.00  0.00     0.278 HD
HETATM    4  H   UNL     1     -42.808  56.415 -51.423  1.00  0.00     0.278 HD
HETATM    5  C   UNL     1     -43.649  58.271 -51.982  1.00  0.00     0.209 C 
HETATM    6  C   UNL     1     -42.852  59.337 -51.208  1.00  0.00     0.115 C 
HETATM    7  N   UNL     1     -41.669  59.712 -51.959  1.00  0.00    -0.353 N 
HETATM    8  C   UNL     1     -40.889  58.811 -52.634  1.00  0.00     0.249 C 
HETATM    9  O   UNL     1     -39.847  59.186 -53.163  1.00  0.00    -0.271 OA
HETATM   10  C   UNL     1     -44.915  57.854 -51.241  1.00  0.00     0.035 C 
HETATM   11  C   UNL     1     -45.792  59.071 -50.952  1.00  0.00     0.002 C 
HETATM   12  C   UNL     1     -45.023  60.159 -50.204  1.00  0.00     0.002 C 
HETATM   13  C   UNL     1     -43.734  60.555 -50.924  1.00  0.00     0.027 C 
HETATM   14  H   UNL     1     -41.280  60.651 -51.885  1.00  0.00     0.163 HD
ENDROOT
BRANCH   1  15
HETATM   15  C   UNL     1     -40.965  56.637 -53.957  1.00  0.00     0.146 C 
BRANCH  15  16
HETATM   16  C   UNL     1     -42.104  55.783 -54.457  1.00  0.00     0.224 C 
HETATM   17  N   UNL     1     -42.287  54.478 -54.158  1.00  0.00    -0.327 N 
HETATM   18  H   UNL     1     -43.225  54.173 -54.402  1.00  0.00     0.169 HD
HETATM   19  O   UNL     1     -42.998  56.364 -55.094  1.00  0.00    -0.273 OA
BRANCH  17  20
HETATM   20  C   UNL     1     -41.482  53.466 -53.605  1.00  0.00     0.035 A 
HETATM   21  C   UNL     1     -40.998  52.352 -54.286  1.00  0.00     0.037 A 
HETATM   22  C   UNL     1     -40.209  51.380 -53.636  1.00  0.00    -0.054 A 
HETATM   23  C   UNL     1     -39.907  51.527 -52.272  1.00  0.00    -0.056 A 
HETATM   24  C   UNL     1     -39.692  50.206 -54.428  1.00  0.00     0.049 C 
HETATM   25  C   UNL     1     -39.073  50.517 -51.531  1.00  0.00     0.049 C 
HETATM   26  C   UNL     1     -40.434  52.621 -51.577  1.00  0.00     0.009 A 
HETATM   27  C   UNL     1     -41.215  53.573 -52.235  1.00  0.00     0.030 A 
ENDBRANCH  17  20
ENDBRANCH  15  16
ENDBRANCH   1  15
TORSDOF 3
ENDMDL
MODEL 5
REMARK VINA RESULT:      -7.9      2.762      4.517
REMARK  3 active torsions:
REMARK  status: ('A' for Active; 'I' for Inactive)
REMARK    1  A    between atoms: C_6  and  N_7 
REMARK       I    between atoms: N_7  and  C_8 
REMARK    2  A    between atoms: C_8  and  C_9 
REMARK    3  A    between atoms: C_9  and  C_10 
ROOT
HETATM    1  C   UNL     1     -43.902  55.716 -54.744  1.00  0.00     0.286 C 
HETATM    2  N   UNL     1     -43.302  55.366 -56.114  1.00  0.00    -0.056 N 
HETATM    3  H   UNL     1     -42.318  55.068 -55.957  1.00  0.00     0.278 HD
HETATM    4  H   UNL     1     -43.791  54.556 -56.513  1.00  0.00     0.278 HD
HETATM    5  C   UNL     1     -43.203  56.498 -57.102  1.00  0.00     0.209 C 
HETATM    6  C   UNL     1     -44.485  57.349 -57.057  1.00  0.00     0.115 C 
HETATM    7  N   UNL     1     -44.681  57.877 -55.720  1.00  0.00    -0.353 N 
HETATM    8  C   UNL     1     -44.453  57.149 -54.583  1.00  0.00     0.249 C 
HETATM    9  O   UNL     1     -44.737  57.627 -53.489  1.00  0.00    -0.271 OA
HETATM   10  C   UNL     1     -42.942  55.932 -58.494  1.00  0.00     0.035 C 
HETATM   11  C   UNL     1     -42.871  57.057 -59.525  1.00  0.00     0.002 C 
HETATM   12  C   UNL     1     -44.120  57.938 -59.490  1.00  0.00     0.002 C 
HETATM   13  C   UNL     1     -44.407  58.478 -58.089  1.00  0.00     0.027 C 
HETATM   14  H   UNL     1     -45.149  58.771 -55.575  1.00  0.00     0.163 HD
ENDROOT
BRANCH   1  15
HETATM   15  C   UNL     1     -42.967  55.338 -53.584  1.00  0.00     0.146 C 
BRANCH  15  16
HETATM   16  C   UNL     1     -41.544  55.740 -53.883  1.00  0.00     0.224 C 
HETATM   17  N   UNL     1     -40.483  54.904 -53.882  1.00  0.00    -0.327 N 
HETATM   18  H   UNL     1     -39.678  55.330 -54.334  1.00  0.00     0.169 HD
HETATM   19  O   UNL     1     -41.365  56.905 -54.275  1.00  0.00    -0.273 OA
BRANCH  17  20
HETATM   20  C   UNL     1     -40.244  53.607 -53.393  1.00  0.00     0.035 A 
HETATM   21  C   UNL     1     -40.127  52.457 -54.169  1.00  0.00     0.037 A 
HETATM   22  C   UNL     1     -39.904  51.194 -53.582  1.00  0.00    -0.054 A 
HETATM   23  C   UNL     1     -39.805  51.085 -52.184  1.00  0.00    -0.056 A 
HETATM   24  C   UNL     1     -39.762  49.986 -54.471  1.00  0.00     0.049 C 
HETATM   25  C   UNL     1     -39.571  49.761 -51.507  1.00  0.00     0.049 C 
HETATM   26  C   UNL     1     -39.971  52.232 -51.402  1.00  0.00     0.009 A 
HETATM   27  C   UNL     1     -40.193  53.475 -52.001  1.00  0.00     0.030 A 
ENDBRANCH  17  20
ENDBRANCH  15  16
ENDBRANCH   1  15
TORSDOF 3
ENDMDL
MODEL 6
REMARK VINA RESULT:      -7.9      3.073      5.179
REMARK  3 active torsions:
REMARK  status: ('A' for Active; 'I' for Inactive)
REMARK    1  A    between atoms: C_6  and  N_7 
REMARK       I    between atoms: N_7  and  C_8 
REMARK    2  A    between atoms: C_8  and  C_9 
REMARK    3  A    between atoms: C_9  and  C_10 
ROOT
HETATM    1  C   UNL     1     -43.145  58.200 -55.126  1.00  0.00     0.286 C 
HETATM    2  N   UNL     1     -43.480  57.017 -56.048  1.00  0.00    -0.056 N 
HETATM    3  H   UNL     1     -43.199  56.146 -55.553  1.00  0.00     0.278 HD
HETATM    4  H   UNL     1     -44.496  56.958 -56.186  1.00  0.00     0.278 HD
HETATM    5  C   UNL     1     -42.737  56.968 -57.357  1.00  0.00     0.209 C 
HETATM    6  C   UNL     1     -42.655  58.378 -57.969  1.00  0.00     0.115 C 
HETATM    7  N   UNL     1     -41.980  59.277 -57.052  1.00  0.00    -0.353 N 
HETATM    8  C   UNL     1     -42.188  59.267 -55.699  1.00  0.00     0.249 C 
HETATM    9  O   UNL     1     -41.660  60.123 -54.996  1.00  0.00    -0.271 OA
HETATM   10  C   UNL     1     -43.424  55.977 -58.290  1.00  0.00     0.035 C 
HETATM   11  C   UNL     1     -42.711  55.932 -59.641  1.00  0.00     0.002 C 
HETATM   12  C   UNL     1     -42.591  57.321 -60.266  1.00  0.00     0.002 C 
HETATM   13  C   UNL     1     -41.936  58.326 -59.320  1.00  0.00     0.027 C 
HETATM   14  H   UNL     1     -41.435  60.064 -57.400  1.00  0.00     0.163 HD
ENDROOT
BRANCH   1  15
HETATM   15  C   UNL     1     -42.705  57.741 -53.726  1.00  0.00     0.146 C 
BRANCH  15  16
HETATM   16  C   UNL     1     -43.770  56.896 -53.074  1.00  0.00     0.224 C 
HETATM   17  N   UNL     1     -43.603  55.623 -52.651  1.00  0.00    -0.327 N 
HETATM   18  H   UNL     1     -44.363  55.336 -52.040  1.00  0.00     0.169 HD
HETATM   19  O   UNL     1     -44.842  57.462 -52.803  1.00  0.00    -0.273 OA
BRANCH  17  20
HETATM   20  C   UNL     1     -42.639  54.624 -52.873  1.00  0.00     0.035 A 
HETATM   21  C   UNL     1     -41.728  54.153 -51.932  1.00  0.00     0.037 A 
HETATM   22  C   UNL     1     -40.784  53.156 -52.257  1.00  0.00    -0.054 A 
HETATM   23  C   UNL     1     -40.752  52.628 -53.560  1.00  0.00    -0.056 A 
HETATM   24  C   UNL     1     -39.837  52.667 -51.192  1.00  0.00     0.049 C 
HETATM   25  C   UNL     1     -39.763  51.567 -53.959  1.00  0.00     0.049 C 
HETATM   26  C   UNL     1     -41.634  53.136 -54.518  1.00  0.00     0.009 A 
HETATM   27  C   UNL     1     -42.561  54.125 -54.178  1.00  0.00     0.030 A 
ENDBRANCH  17  20
ENDBRANCH  15  16
ENDBRANCH   1  15
TORSDOF 3
ENDMDL
MODEL 7
REMARK VINA RESULT:      -7.9      2.176      2.759
REMARK  3 active torsions:
REMARK  status: ('A' for Active; 'I' for Inactive)
REMARK    1  A    between atoms: C_6  and  N_7 
REMARK       I    between atoms: N_7  and  C_8 
REMARK    2  A    between atoms: C_8  and  C_9 
REMARK    3  A    between atoms: C_9  and  C_10 
ROOT
HETATM    1  C   UNL     1     -44.051  55.216 -54.282  1.00  0.00     0.286 C 
HETATM    2  N   UNL     1     -44.351  56.598 -54.882  1.00  0.00    -0.056 N 
HETATM    3  H   UNL     1     -43.672  56.758 -55.653  1.00  0.00     0.278 HD
HETATM    4  H   UNL     1     -45.284  56.597 -55.312  1.00  0.00     0.278 HD
HETATM    5  C   UNL     1     -44.164  57.774 -53.961  1.00  0.00     0.209 C 
HETATM    6  C   UNL     1     -44.720  57.442 -52.564  1.00  0.00     0.115 C 
HETATM    7  N   UNL     1     -44.040  56.280 -52.025  1.00  0.00    -0.353 N 
HETATM    8  C   UNL     1     -43.720  55.180 -52.775  1.00  0.00     0.249 C 
HETATM    9  O   UNL     1     -43.236  54.192 -52.231  1.00  0.00    -0.271 OA
HETATM   10  C   UNL     1     -44.836  59.002 -54.566  1.00  0.00     0.035 C 
HETATM   11  C   UNL     1     -44.692  60.205 -53.635  1.00  0.00     0.002 C 
HETATM   12  C   UNL     1     -45.213  59.901 -52.231  1.00  0.00     0.002 C 
HETATM   13  C   UNL     1     -44.570  58.649 -51.634  1.00  0.00     0.027 C 
HETATM   14  H   UNL     1     -43.910  56.171 -51.020  1.00  0.00     0.163 HD
ENDROOT
BRANCH   1  15
HETATM   15  C   UNL     1     -43.013  54.437 -55.106  1.00  0.00     0.146 C 
BRANCH  15  16
HETATM   16  C   UNL     1     -41.660  55.101 -55.041  1.00  0.00     0.224 C 
HETATM   17  N   UNL     1     -40.527  54.517 -54.595  1.00  0.00    -0.327 N 
HETATM   18  H   UNL     1     -39.707  55.057 -54.858  1.00  0.00     0.169 HD
HETATM   19  O   UNL     1     -41.570  56.231 -55.549  1.00  0.00    -0.273 OA
BRANCH  17  20
HETATM   20  C   UNL     1     -40.236  53.358 -53.853  1.00  0.00     0.035 A 
HETATM   21  C   UNL     1     -40.059  52.081 -54.378  1.00  0.00     0.037 A 
HETATM   22  C   UNL     1     -39.786  50.976 -53.546  1.00  0.00    -0.054 A 
HETATM   23  C   UNL     1     -39.696  51.157 -52.155  1.00  0.00    -0.056 A 
HETATM   24  C   UNL     1     -39.581  49.620 -54.171  1.00  0.00     0.049 C 
HETATM   25  C   UNL     1     -39.411  50.011 -51.223  1.00  0.00     0.049 C 
HETATM   26  C   UNL     1     -39.922  52.431 -51.624  1.00  0.00     0.009 A 
HETATM   27  C   UNL     1     -40.193  53.515 -52.463  1.00  0.00     0.030 A 
ENDBRANCH  17  20
ENDBRANCH  15  16
ENDBRANCH   1  15
TORSDOF 3
ENDMDL
MODEL 8
REMARK VINA RESULT:      -7.7      3.065      6.407
REMARK  3 active torsions:
REMARK  status: ('A' for Active; 'I' for Inactive)
REMARK    1  A    between atoms: C_6  and  N_7 
REMARK       I    between atoms: N_7  and  C_8 
REMARK    2  A    between atoms: C_8  and  C_9 
REMARK    3  A    between atoms: C_9  and  C_10 
ROOT
HETATM    1  C   UNL     1     -41.400  55.851 -53.378  1.00  0.00     0.286 C 
HETATM    2  N   UNL     1     -40.873  54.627 -54.144  1.00  0.00    -0.056 N 
HETATM    3  H   UNL     1     -41.535  54.437 -54.923  1.00  0.00     0.278 HD
HETATM    4  H   UNL     1     -39.969  54.850 -54.579  1.00  0.00     0.278 HD
HETATM    5  C   UNL     1     -40.815  53.337 -53.370  1.00  0.00     0.209 C 
HETATM    6  C   UNL     1     -40.286  53.599 -51.948  1.00  0.00     0.115 C 
HETATM    7  N   UNL     1     -41.148  54.546 -51.266  1.00  0.00    -0.353 N 
HETATM    8  C   UNL     1     -41.685  55.648 -51.875  1.00  0.00     0.249 C 
HETATM    9  O   UNL     1     -42.322  56.460 -51.210  1.00  0.00    -0.271 OA
HETATM   10  C   UNL     1     -39.952  52.333 -54.126  1.00  0.00     0.035 C 
HETATM   11  C   UNL     1     -39.847  51.024 -53.346  1.00  0.00     0.002 C 
HETATM   12  C   UNL     1     -39.347  51.251 -51.920  1.00  0.00     0.002 C 
HETATM   13  C   UNL     1     -40.186  52.284 -51.171  1.00  0.00     0.027 C 
HETATM   14  H   UNL     1     -41.264  54.510 -50.255  1.00  0.00     0.163 HD
ENDROOT
BRANCH   1  15
HETATM   15  C   UNL     1     -42.586  56.518 -54.092  1.00  0.00     0.146 C 
BRANCH  15  16
HETATM   16  C   UNL     1     -43.360  55.514 -54.910  1.00  0.00     0.224 C 
HETATM   17  N   UNL     1     -43.357  55.443 -56.260  1.00  0.00    -0.327 N 
HETATM   18  H   UNL     1     -43.750  54.562 -56.582  1.00  0.00     0.169 HD
HETATM   19  O   UNL     1     -43.946  54.617 -54.282  1.00  0.00    -0.273 OA
BRANCH  17  20
HETATM   20  C   UNL     1     -42.952  56.302 -57.297  1.00  0.00     0.035 A 
HETATM   21  C   UNL     1     -42.541  57.623 -57.141  1.00  0.00     0.037 A 
HETATM   22  C   UNL     1     -42.168  58.411 -58.250  1.00  0.00    -0.054 A 
HETATM   23  C   UNL     1     -42.219  57.862 -59.543  1.00  0.00    -0.056 A 
HETATM   24  C   UNL     1     -41.709  59.828 -58.021  1.00  0.00     0.049 C 
HETATM   25  C   UNL     1     -41.836  58.661 -60.759  1.00  0.00     0.049 C 
HETATM   26  C   UNL     1     -42.679  56.551 -59.703  1.00  0.00     0.009 A 
HETATM   27  C   UNL     1     -43.045  55.785 -58.594  1.00  0.00     0.030 A 
ENDBRANCH  17  20
ENDBRANCH  15  16
ENDBRANCH   1  15
TORSDOF 3
ENDMDL
MODEL 9
REMARK VINA RESULT:      -7.7      2.607      4.002
REMARK  3 active torsions:
REMARK  status: ('A' for Active; 'I' for Inactive)
REMARK    1  A    between atoms: C_6  and  N_7 
REMARK       I    between atoms: N_7  and  C_8 
REMARK    2  A    between atoms: C_8  and  C_9 
REMARK    3  A    between atoms: C_9  and  C_10 
ROOT
HETATM    1  C   UNL     1     -42.788  56.657 -51.776  1.00  0.00     0.286 C 
HETATM    2  N   UNL     1     -43.614  57.622 -50.912  1.00  0.00    -0.056 N 
HETATM    3  H   UNL     1     -44.076  57.059 -50.169  1.00  0.00     0.278 HD
HETATM    4  H   UNL     1     -42.991  58.282 -50.432  1.00  0.00     0.278 HD
HETATM    5  C   UNL     1     -44.745  58.331 -51.609  1.00  0.00     0.209 C 
HETATM    6  C   UNL     1     -44.293  58.796 -53.006  1.00  0.00     0.115 C 
HETATM    7  N   UNL     1     -43.866  57.655 -53.793  1.00  0.00    -0.353 N 
HETATM    8  C   UNL     1     -43.126  56.623 -53.282  1.00  0.00     0.249 C 
HETATM    9  O   UNL     1     -42.715  55.741 -54.029  1.00  0.00    -0.271 OA
HETATM   10  C   UNL     1     -45.221  59.494 -50.746  1.00  0.00     0.035 C 
HETATM   11  C   UNL     1     -46.346  60.254 -51.445  1.00  0.00     0.002 C 
HETATM   12  C   UNL     1     -45.939  60.710 -52.845  1.00  0.00     0.002 C 
HETATM   13  C   UNL     1     -45.426  59.554 -53.703  1.00  0.00     0.027 C 
HETATM   14  H   UNL     1     -43.969  57.653 -54.807  1.00  0.00     0.163 HD
ENDROOT
BRANCH   1  15
HETATM   15  C   UNL     1     -42.734  55.241 -51.178  1.00  0.00     0.146 C 
BRANCH  15  16
HETATM   16  C   UNL     1     -41.508  55.063 -50.318  1.00  0.00     0.224 C 
HETATM   17  N   UNL     1     -40.484  54.224 -50.587  1.00  0.00    -0.327 N 
HETATM   18  H   UNL     1     -39.673  54.436 -50.012  1.00  0.00     0.169 HD
HETATM   19  O   UNL     1     -41.386  55.838 -49.355  1.00  0.00    -0.273 OA
BRANCH  17  20
HETATM   20  C   UNL     1     -40.298  53.136 -51.460  1.00  0.00     0.035 A 
HETATM   21  C   UNL     1     -39.989  51.834 -51.078  1.00  0.00     0.037 A 
HETATM   22  C   UNL     1     -39.804  50.813 -52.034  1.00  0.00    -0.054 A 
HETATM   23  C   UNL     1     -39.924  51.111 -53.402  1.00  0.00    -0.056 A 
HETATM   24  C   UNL     1     -39.494  49.415 -51.563  1.00  0.00     0.049 C 
HETATM   25  C   UNL     1     -39.733  50.059 -54.461  1.00  0.00     0.049 C 
HETATM   26  C   UNL     1     -40.187  52.429 -53.787  1.00  0.00     0.009 A 
HETATM   27  C   UNL     1     -40.365  53.429 -52.827  1.00  0.00     0.030 A 
ENDBRANCH  17  20
ENDBRANCH  15  16
ENDBRANCH   1  15
TORSDOF 3
ENDMDL
MODEL 10
REMARK VINA RESULT:      -7.7      2.717      4.643
REMARK  3 active torsions:
REMARK  status: ('A' for Active; 'I' for Inactive)
REMARK    1  A    between atoms: C_6  and  N_7 
REMARK       I    between atoms: N_7  and  C_8 
REMARK    2  A    between atoms: C_8  and  C_9 
REMARK    3  A    between atoms: C_9  and  C_10 
ROOT
HETATM    1  C   UNL     1     -43.093  58.846 -52.551  1.00  0.00     0.286 C 
HETATM    2  N   UNL     1     -44.078  58.262 -53.574  1.00  0.00    -0.056 N 
HETATM    3  H   UNL     1     -44.310  57.295 -53.269  1.00  0.00     0.278 HD
HETATM    4  H   UNL     1     -44.958  58.792 -53.554  1.00  0.00     0.278 HD
HETATM    5  C   UNL     1     -43.558  58.102 -54.978  1.00  0.00     0.209 C 
HETATM    6  C   UNL     1     -42.730  59.338 -55.376  1.00  0.00     0.115 C 
HETATM    7  N   UNL     1     -41.622  59.508 -54.455  1.00  0.00    -0.353 N 
HETATM    8  C   UNL     1     -41.732  59.321 -53.103  1.00  0.00     0.249 C 
HETATM    9  O   UNL     1     -40.780  59.582 -52.374  1.00  0.00    -0.271 OA
HETATM   10  C   UNL     1     -44.728  57.868 -55.927  1.00  0.00     0.035 C 
HETATM   11  C   UNL     1     -44.232  57.737 -57.366  1.00  0.00     0.002 C 
HETATM   12  C   UNL     1     -43.385  58.937 -57.786  1.00  0.00     0.002 C 
HETATM   13  C   UNL     1     -42.232  59.199 -56.818  1.00  0.00     0.027 C 
HETATM   14  H   UNL     1     -40.747  59.929 -54.764  1.00  0.00     0.163 HD
ENDROOT
BRANCH   1  15
HETATM   15  C   UNL     1     -42.916  57.934 -51.326  1.00  0.00     0.146 C 
BRANCH  15  16
HETATM   16  C   UNL     1     -44.047  56.941 -51.223  1.00  0.00     0.224 C 
HETATM   17  N   UNL     1     -43.940  55.613 -51.453  1.00  0.00    -0.327 N 
HETATM   18  H   UNL     1     -44.752  55.113 -51.101  1.00  0.00     0.169 HD
HETATM   19  O   UNL     1     -45.125  57.369 -50.779  1.00  0.00    -0.273 OA
BRANCH  17  20
HETATM   20  C   UNL     1     -42.981  54.788 -52.067  1.00  0.00     0.035 A 
HETATM   21  C   UNL     1     -41.907  54.178 -51.427  1.00  0.00     0.037 A 
HETATM   22  C   UNL     1     -40.986  53.379 -52.137  1.00  0.00    -0.054 A 
HETATM   23  C   UNL     1     -41.146  53.197 -53.521  1.00  0.00    -0.056 A 
HETATM   24  C   UNL     1     -39.854  52.723 -51.389  1.00  0.00     0.049 C 
HETATM   25  C   UNL     1     -40.190  52.358 -54.326  1.00  0.00     0.049 C 
HETATM   26  C   UNL     1     -42.197  53.850 -54.172  1.00  0.00     0.009 A 
HETATM   27  C   UNL     1     -43.099  54.639 -53.454  1.00  0.00     0.030 A 
ENDBRANCH  17  20
ENDBRANCH  15  16
ENDBRANCH   1  15
TORSDOF 3
ENDMDL
