MODEL 1
REMARK VINA RESULT:      -8.4      0.000      0.000
REMARK  4 active torsions:
REMARK  status: ('A' for Active; 'I' for Inactive)
REMARK    1  A    between atoms: C_6  and  C_7 
REMARK    2  A    between atoms: C_7  and  C_8 
REMARK    3  A    between atoms: N_10  and  C_11 
REMARK    4  A    between atoms: C_19  and  C_20 
ROOT
HETATM    1  C   UNL     1     -41.818  56.168 -54.904  1.00  0.00     0.149 A 
HETATM    2  N   UNL     1     -41.123  55.034 -54.860  1.00  0.00    -0.150 NA
HETATM    3  N   UNL     1     -41.152  54.697 -53.543  1.00  0.00    -0.218 N 
HETATM    4  C   UNL     1     -41.748  55.743 -52.836  1.00  0.00     0.136 A 
HETATM    5  N   UNL     1     -42.225  56.638 -53.689  1.00  0.00    -0.216 NA
ENDROOT
BRANCH   1   6
HETATM    6  C   UNL     1     -42.054  56.892 -56.184  1.00  0.00     0.087 C 
BRANCH   6   7
HETATM    7  C   UNL     1     -43.365  56.501 -56.903  1.00  0.00    -0.004 C 
HETATM    8  C   UNL     1     -43.165  55.851 -58.284  1.00  0.00     0.032 C 
HETATM    9  C   UNL     1     -42.665  56.830 -59.339  1.00  0.00     0.234 C 
HETATM   10  N   UNL     1     -43.632  57.986 -59.437  1.00  0.00    -0.075 N 
HETATM   11  C   UNL     1     -43.247  58.937 -60.543  1.00  0.00     0.269 C 
HETATM   12  H   UNL     1     -44.546  57.598 -59.712  1.00  0.00     0.279 HD
HETATM   13  C   UNL     1     -43.825  58.708 -58.128  1.00  0.00     0.234 C 
HETATM   14  C   UNL     1     -44.292  57.722 -57.059  1.00  0.00     0.032 C 
ENDBRANCH   6   7
ENDBRANCH   1   6
BRANCH   3  15
HETATM   15  C   UNL     1     -40.627  53.442 -53.125  1.00  0.00     0.062 A 
HETATM   16  C   UNL     1     -40.432  52.382 -54.019  1.00  0.00     0.058 A 
HETATM   17  C   UNL     1     -39.910  51.165 -53.560  1.00  0.00     0.074 A 
HETATM   18 CL   UNL     1     -39.686  49.882 -54.685  1.00  0.00    -0.081 Cl
HETATM   19  C   UNL     1     -39.572  51.007 -52.220  1.00  0.00     0.138 A 
HETATM   20  F   UNL     1     -39.075  49.847 -51.769  1.00  0.00    -0.204 F 
HETATM   21  C   UNL     1     -39.737  52.058 -51.327  1.00  0.00     0.046 A 
HETATM   22  C   UNL     1     -40.255  53.277 -51.778  1.00  0.00     0.035 A 
ENDBRANCH   3  15
BRANCH   4  23
HETATM   23  C   UNL     1     -41.746  55.936 -51.344  1.00  0.00     0.084 C 
HETATM   24  C   UNL     1     -41.861  57.418 -50.980  1.00  0.00     0.244 C 
HETATM   25  N   UNL     1     -43.322  57.706 -51.147  1.00  0.00    -0.074 N 
HETATM   26  H   UNL     1     -43.642  58.511 -50.589  1.00  0.00     0.277 HD
HETATM   27  H   UNL     1     -43.475  57.940 -52.143  1.00  0.00     0.277 HD
HETATM   28  C   UNL     1     -44.076  56.446 -50.851  1.00  0.00     0.233 C 
HETATM   29  C   UNL     1     -43.007  55.367 -50.697  1.00  0.00     0.041 C 
ENDBRANCH   4  23
TORSDOF 4
ENDMDL
MODEL 2
REMARK VINA RESULT:      -8.1      1.365      1.899
REMARK  4 active torsions:
REMARK  status: ('A' for Active; 'I' for Inactive)
REMARK    1  A    between atoms: C_6  and  C_7 
REMARK    2  A    between atoms: C_7  and  C_8 
REMARK    3  A    between atoms: N_10  and  C_11 
REMARK    4  A    between atoms: C_19  and  C_20 
ROOT
HETATM    1  C   UNL     1     -42.416  55.558 -56.051  1.00  0.00     0.149 A 
HETATM    2  N   UNL     1     -41.821  54.416 -55.714  1.00  0.00    -0.150 NA
HETATM    3  N   UNL     1     -41.361  54.659 -54.458  1.00  0.00    -0.218 N 
HETATM    4  C   UNL     1     -41.580  56.006 -54.163  1.00  0.00     0.136 A 
HETATM    5  N   UNL     1     -42.298  56.558 -55.130  1.00  0.00    -0.216 NA
ENDROOT
BRANCH   1   6
HETATM    6  C   UNL     1     -43.085  55.732 -57.370  1.00  0.00     0.087 C 
BRANCH   6   7
HETATM    7  C   UNL     1     -42.723  57.047 -58.098  1.00  0.00    -0.004 C 
HETATM    8  C   UNL     1     -43.636  58.238 -57.756  1.00  0.00     0.032 C 
HETATM    9  C   UNL     1     -45.042  58.097 -58.325  1.00  0.00     0.234 C 
HETATM   10  N   UNL     1     -44.952  57.918 -59.822  1.00  0.00    -0.075 N 
HETATM   11  C   UNL     1     -46.320  57.880 -60.457  1.00  0.00     0.269 C 
HETATM   12  H   UNL     1     -44.493  58.757 -60.204  1.00  0.00     0.279 HD
HETATM   13  C   UNL     1     -44.122  56.727 -60.226  1.00  0.00     0.234 C 
HETATM   14  C   UNL     1     -42.721  56.847 -59.626  1.00  0.00     0.032 C 
ENDBRANCH   6   7
ENDBRANCH   1   6
BRANCH   3  15
HETATM   15  C   UNL     1     -40.785  53.600 -53.702  1.00  0.00     0.062 A 
HETATM   16  C   UNL     1     -40.354  52.409 -54.298  1.00  0.00     0.058 A 
HETATM   17  C   UNL     1     -39.791  51.394 -53.512  1.00  0.00     0.074 A 
HETATM   18 CL   UNL     1     -39.275  49.942 -54.277  1.00  0.00    -0.081 Cl
HETATM   19  C   UNL     1     -39.647  51.569 -52.139  1.00  0.00     0.138 A 
HETATM   20  F   UNL     1     -39.112  50.605 -51.377  1.00  0.00    -0.204 F 
HETATM   21  C   UNL     1     -40.048  52.755 -51.538  1.00  0.00     0.046 A 
HETATM   22  C   UNL     1     -40.607  53.773 -52.317  1.00  0.00     0.035 A 
ENDBRANCH   3  15
BRANCH   4  23
HETATM   23  C   UNL     1     -40.994  56.782 -53.016  1.00  0.00     0.084 C 
HETATM   24  C   UNL     1     -40.731  58.237 -53.413  1.00  0.00     0.244 C 
HETATM   25  N   UNL     1     -42.086  58.874 -53.323  1.00  0.00    -0.074 N 
HETATM   26  H   UNL     1     -42.044  59.892 -53.174  1.00  0.00     0.277 HD
HETATM   27  H   UNL     1     -42.558  58.713 -54.229  1.00  0.00     0.277 HD
HETATM   28  C   UNL     1     -42.863  58.152 -52.266  1.00  0.00     0.233 C 
HETATM   29  C   UNL     1     -41.998  56.956 -51.878  1.00  0.00     0.041 C 
ENDBRANCH   4  23
TORSDOF 4
ENDMDL
MODEL 3
REMARK VINA RESULT:      -8.0      2.409      5.035
REMARK  4 active torsions:
REMARK  status: ('A' for Active; 'I' for Inactive)
REMARK    1  A    between atoms: C_6  and  C_7 
REMARK    2  A    between atoms: C_7  and  C_8 
REMARK    3  A    between atoms: N_10  and  C_11 
REMARK    4  A    between atoms: C_19  and  C_20 
ROOT
HETATM    1  C   UNL     1     -41.343  56.103 -51.769  1.00  0.00     0.149 A 
HETATM    2  N   UNL     1     -40.866  54.883 -51.533  1.00  0.00    -0.150 NA
HETATM    3  N   UNL     1     -41.076  54.230 -52.707  1.00  0.00    -0.218 N 
HETATM    4  C   UNL     1     -41.813  55.065 -53.548  1.00  0.00     0.136 A 
HETATM    5  N   UNL     1     -41.928  56.262 -52.992  1.00  0.00    -0.216 NA
ENDROOT
BRANCH   1   6
HETATM    6  C   UNL     1     -41.299  57.174 -50.735  1.00  0.00     0.087 C 
BRANCH   6   7
HETATM    7  C   UNL     1     -40.417  58.386 -51.112  1.00  0.00    -0.004 C 
HETATM    8  C   UNL     1     -40.519  59.576 -50.141  1.00  0.00     0.032 C 
HETATM    9  C   UNL     1     -41.860  60.296 -50.216  1.00  0.00     0.234 C 
HETATM   10  N   UNL     1     -42.093  60.755 -51.636  1.00  0.00    -0.075 N 
HETATM   11  C   UNL     1     -43.357  61.571 -51.752  1.00  0.00     0.269 C 
HETATM   12  H   UNL     1     -41.326  61.398 -51.880  1.00  0.00     0.279 HD
HETATM   13  C   UNL     1     -42.069  59.626 -52.634  1.00  0.00     0.234 C 
HETATM   14  C   UNL     1     -40.740  58.879 -52.536  1.00  0.00     0.032 C 
ENDBRANCH   6   7
ENDBRANCH   1   6
BRANCH   3  15
HETATM   15  C   UNL     1     -40.554  52.918 -52.887  1.00  0.00     0.062 A 
HETATM   16  C   UNL     1     -40.189  52.108 -51.805  1.00  0.00     0.058 A 
HETATM   17  C   UNL     1     -39.681  50.822 -52.031  1.00  0.00     0.074 A 
HETATM   18 CL   UNL     1     -39.239  49.854 -50.678  1.00  0.00    -0.081 Cl
HETATM   19  C   UNL     1     -39.548  50.338 -53.329  1.00  0.00     0.138 A 
HETATM   20  F   UNL     1     -39.062  49.111 -53.558  1.00  0.00    -0.204 F 
HETATM   21  C   UNL     1     -39.930  51.122 -54.410  1.00  0.00     0.046 A 
HETATM   22  C   UNL     1     -40.441  52.405 -54.192  1.00  0.00     0.035 A 
ENDBRANCH   3  15
BRANCH   4  23
HETATM   23  C   UNL     1     -42.508  54.672 -54.823  1.00  0.00     0.084 C 
HETATM   24  C   UNL     1     -44.011  54.491 -54.598  1.00  0.00     0.244 C 
HETATM   25  N   UNL     1     -44.535  55.896 -54.592  1.00  0.00    -0.074 N 
HETATM   26  H   UNL     1     -45.532  55.956 -54.841  1.00  0.00     0.277 HD
HETATM   27  H   UNL     1     -44.434  56.254 -53.627  1.00  0.00     0.277 HD
HETATM   28  C   UNL     1     -43.653  56.718 -55.481  1.00  0.00     0.233 C 
HETATM   29  C   UNL     1     -42.490  55.802 -55.850  1.00  0.00     0.041 C 
ENDBRANCH   4  23
TORSDOF 4
ENDMDL
MODEL 4
REMARK VINA RESULT:      -8.0      1.966      2.608
REMARK  4 active torsions:
REMARK  status: ('A' for Active; 'I' for Inactive)
REMARK    1  A    between atoms: C_6  and  C_7 
REMARK    2  A    between atoms: C_7  and  C_8 
REMARK    3  A    between atoms: N_10  and  C_11 
REMARK    4  A    between atoms: C_19  and  C_20 
ROOT
HETATM    1  C   UNL     1     -42.882  56.609 -55.680  1.00  0.00     0.149 A 
HETATM    2  N   UNL     1     -42.378  55.389 -55.514  1.00  0.00    -0.150 NA
HETATM    3  N   UNL     1     -41.636  55.505 -54.381  1.00  0.00    -0.218 N 
HETATM    4  C   UNL     1     -41.617  56.851 -54.006  1.00  0.00     0.136 A 
HETATM    5  N   UNL     1     -42.448  57.536 -54.777  1.00  0.00    -0.216 NA
ENDROOT
BRANCH   1   6
HETATM    6  C   UNL     1     -43.789  56.934 -56.817  1.00  0.00     0.087 C 
BRANCH   6   7
HETATM    7  C   UNL     1     -43.068  57.115 -58.172  1.00  0.00    -0.004 C 
HETATM    8  C   UNL     1     -43.730  58.139 -59.114  1.00  0.00     0.032 C 
HETATM    9  C   UNL     1     -45.061  57.658 -59.678  1.00  0.00     0.234 C 
HETATM   10  N   UNL     1     -44.847  56.346 -60.395  1.00  0.00    -0.075 N 
HETATM   11  C   UNL     1     -46.111  55.873 -61.069  1.00  0.00     0.269 C 
HETATM   12  H   UNL     1     -44.175  56.519 -61.157  1.00  0.00     0.279 HD
HETATM   13  C   UNL     1     -44.259  55.278 -59.510  1.00  0.00     0.234 C 
HETATM   14  C   UNL     1     -42.942  55.770 -58.913  1.00  0.00     0.032 C 
ENDBRANCH   6   7
ENDBRANCH   1   6
BRANCH   3  15
HETATM   15  C   UNL     1     -41.050  54.346 -53.799  1.00  0.00     0.062 A 
HETATM   16  C   UNL     1     -41.049  54.128 -52.417  1.00  0.00     0.058 A 
HETATM   17  C   UNL     1     -40.462  52.970 -51.889  1.00  0.00     0.074 A 
HETATM   18 CL   UNL     1     -40.476  52.735 -50.185  1.00  0.00    -0.081 Cl
HETATM   19  C   UNL     1     -39.887  52.027 -52.735  1.00  0.00     0.138 A 
HETATM   20  F   UNL     1     -39.320  50.918 -52.243  1.00  0.00    -0.204 F 
HETATM   21  C   UNL     1     -39.902  52.220 -54.111  1.00  0.00     0.046 A 
HETATM   22  C   UNL     1     -40.490  53.371 -54.645  1.00  0.00     0.035 A 
ENDBRANCH   3  15
BRANCH   4  23
HETATM   23  C   UNL     1     -40.709  57.488 -52.991  1.00  0.00     0.084 C 
HETATM   24  C   UNL     1     -40.558  58.988 -53.252  1.00  0.00     0.244 C 
HETATM   25  N   UNL     1     -41.817  59.571 -52.684  1.00  0.00    -0.074 N 
HETATM   26  H   UNL     1     -41.721  60.562 -52.421  1.00  0.00     0.277 HD
HETATM   27  H   UNL     1     -42.538  59.515 -53.424  1.00  0.00     0.277 HD
HETATM   28  C   UNL     1     -42.255  58.697 -51.549  1.00  0.00     0.233 C 
HETATM   29  C   UNL     1     -41.328  57.486 -51.595  1.00  0.00     0.041 C 
ENDBRANCH   4  23
TORSDOF 4
ENDMDL
MODEL 5
REMARK VINA RESULT:      -7.8      3.606      7.401
REMARK  4 active torsions:
REMARK  status: ('A' for Active; 'I' for Inactive)
REMARK    1  A    between atoms: C_6  and  C_7 
REMARK    2  A    between atoms: C_7  and  C_8 
REMARK    3  A    between atoms: N_10  and  C_11 
REMARK    4  A    between atoms: C_19  and  C_20 
ROOT
HETATM    1  C   UNL     1     -42.275  54.429 -54.282  1.00  0.00     0.149 A 
HETATM    2  N   UNL     1     -42.306  54.553 -55.607  1.00  0.00    -0.150 NA
HETATM    3  N   UNL     1     -42.814  55.800 -55.796  1.00  0.00    -0.218 N 
HETATM    4  C   UNL     1     -43.205  56.306 -54.554  1.00  0.00     0.136 A 
HETATM    5  N   UNL     1     -42.810  55.480 -53.596  1.00  0.00    -0.216 NA
ENDROOT
BRANCH   1   6
HETATM    6  C   UNL     1     -41.761  53.196 -53.624  1.00  0.00     0.087 C 
BRANCH   6   7
HETATM    7  C   UNL     1     -40.243  53.217 -53.332  1.00  0.00    -0.004 C 
HETATM    8  C   UNL     1     -39.479  51.979 -53.838  1.00  0.00     0.032 C 
HETATM    9  C   UNL     1     -39.799  50.716 -53.049  1.00  0.00     0.234 C 
HETATM   10  N   UNL     1     -39.498  50.957 -51.589  1.00  0.00    -0.075 N 
HETATM   11  C   UNL     1     -39.693  49.705 -50.771  1.00  0.00     0.269 C 
HETATM   12  H   UNL     1     -38.496  51.182 -51.515  1.00  0.00     0.279 HD
HETATM   13  C   UNL     1     -40.265  52.119 -51.013  1.00  0.00     0.234 C 
HETATM   14  C   UNL     1     -39.975  53.382 -51.824  1.00  0.00     0.032 C 
ENDBRANCH   6   7
ENDBRANCH   1   6
BRANCH   3  15
HETATM   15  C   UNL     1     -42.861  56.351 -57.106  1.00  0.00     0.062 A 
HETATM   16  C   UNL     1     -43.533  55.715 -58.157  1.00  0.00     0.058 A 
HETATM   17  C   UNL     1     -43.554  56.298 -59.432  1.00  0.00     0.074 A 
HETATM   18 CL   UNL     1     -44.386  55.488 -60.701  1.00  0.00    -0.081 Cl
HETATM   19  C   UNL     1     -42.918  57.515 -59.657  1.00  0.00     0.138 A 
HETATM   20  F   UNL     1     -42.928  58.081 -60.872  1.00  0.00    -0.204 F 
HETATM   21  C   UNL     1     -42.268  58.168 -58.618  1.00  0.00     0.046 A 
HETATM   22  C   UNL     1     -42.247  57.595 -57.343  1.00  0.00     0.035 A 
ENDBRANCH   3  15
BRANCH   4  23
HETATM   23  C   UNL     1     -44.061  57.518 -54.306  1.00  0.00     0.084 C 
HETATM   24  C   UNL     1     -44.611  57.520 -52.878  1.00  0.00     0.244 C 
HETATM   25  N   UNL     1     -43.454  58.009 -52.059  1.00  0.00    -0.074 N 
HETATM   26  H   UNL     1     -43.742  58.437 -51.168  1.00  0.00     0.277 HD
HETATM   27  H   UNL     1     -42.872  57.184 -51.832  1.00  0.00     0.277 HD
HETATM   28  C   UNL     1     -42.638  58.925 -52.918  1.00  0.00     0.233 C 
HETATM   29  C   UNL     1     -43.239  58.804 -54.316  1.00  0.00     0.041 C 
ENDBRANCH   4  23
TORSDOF 4
ENDMDL
MODEL 6
REMARK VINA RESULT:      -7.7      4.390      8.601
REMARK  4 active torsions:
REMARK  status: ('A' for Active; 'I' for Inactive)
REMARK    1  A    between atoms: C_6  and  C_7 
REMARK    2  A    between atoms: C_7  and  C_8 
REMARK    3  A    between atoms: N_10  and  C_11 
REMARK    4  A    between atoms: C_19  and  C_20 
ROOT
HETATM    1  C   UNL     1     -42.662  55.710 -56.531  1.00  0.00     0.149 A 
HETATM    2  N   UNL     1     -42.329  56.985 -56.345  1.00  0.00    -0.150 NA
HETATM    3  N   UNL     1     -42.871  57.613 -57.422  1.00  0.00    -0.218 N 
HETATM    4  C   UNL     1     -43.380  56.641 -58.286  1.00  0.00     0.136 A 
HETATM    5  N   UNL     1     -43.310  55.453 -57.704  1.00  0.00    -0.216 NA
ENDROOT
BRANCH   1   6
HETATM    6  C   UNL     1     -42.276  54.650 -55.557  1.00  0.00     0.087 C 
BRANCH   6   7
HETATM    7  C   UNL     1     -40.801  54.715 -55.099  1.00  0.00    -0.004 C 
HETATM    8  C   UNL     1     -40.184  53.350 -54.745  1.00  0.00     0.032 C 
HETATM    9  C   UNL     1     -40.748  52.753 -53.461  1.00  0.00     0.234 C 
HETATM   10  N   UNL     1     -40.541  53.733 -52.330  1.00  0.00    -0.075 N 
HETATM   11  C   UNL     1     -40.983  53.153 -51.009  1.00  0.00     0.269 C 
HETATM   12  H   UNL     1     -39.526  53.887 -52.239  1.00  0.00     0.279 HD
HETATM   13  C   UNL     1     -41.178  55.074 -52.586  1.00  0.00     0.234 C 
HETATM   14  C   UNL     1     -40.642  55.659 -53.892  1.00  0.00     0.032 C 
ENDBRANCH   6   7
ENDBRANCH   1   6
BRANCH   3  15
HETATM   15  C   UNL     1     -42.845  59.034 -57.497  1.00  0.00     0.062 A 
HETATM   16  C   UNL     1     -41.728  59.733 -57.969  1.00  0.00     0.058 A 
HETATM   17  C   UNL     1     -41.751  61.134 -58.026  1.00  0.00     0.074 A 
HETATM   18 CL   UNL     1     -40.360  61.962 -58.610  1.00  0.00    -0.081 Cl
HETATM   19  C   UNL     1     -42.883  61.834 -57.624  1.00  0.00     0.138 A 
HETATM   20  F   UNL     1     -42.915  63.173 -57.672  1.00  0.00    -0.204 F 
HETATM   21  C   UNL     1     -44.006  61.152 -57.176  1.00  0.00     0.046 A 
HETATM   22  C   UNL     1     -43.993  59.754 -57.120  1.00  0.00     0.035 A 
ENDBRANCH   3  15
BRANCH   4  23
HETATM   23  C   UNL     1     -43.816  56.844 -59.711  1.00  0.00     0.084 C 
HETATM   24  C   UNL     1     -44.271  55.525 -60.341  1.00  0.00     0.244 C 
HETATM   25  N   UNL     1     -45.659  55.342 -59.805  1.00  0.00    -0.074 N 
HETATM   26  H   UNL     1     -46.247  54.744 -60.402  1.00  0.00     0.277 HD
HETATM   27  H   UNL     1     -45.571  54.872 -58.887  1.00  0.00     0.277 HD
HETATM   28  C   UNL     1     -46.244  56.701 -59.571  1.00  0.00     0.233 C 
HETATM   29  C   UNL     1     -45.093  57.677 -59.800  1.00  0.00     0.041 C 
ENDBRANCH   4  23
TORSDOF 4
ENDMDL
MODEL 7
REMARK VINA RESULT:      -7.6      2.176      5.131
REMARK  4 active torsions:
REMARK  status: ('A' for Active; 'I' for Inactive)
REMARK    1  A    between atoms: C_6  and  C_7 
REMARK    2  A    between atoms: C_7  and  C_8 
REMARK    3  A    between atoms: N_10  and  C_11 
REMARK    4  A    between atoms: C_19  and  C_20 
ROOT
HETATM    1  C   UNL     1     -41.484  56.814 -52.051  1.00  0.00     0.149 A 
HETATM    2  N   UNL     1     -41.209  55.657 -51.454  1.00  0.00    -0.150 NA
HETATM    3  N   UNL     1     -41.039  54.798 -52.494  1.00  0.00    -0.218 N 
HETATM    4  C   UNL     1     -41.372  55.467 -53.674  1.00  0.00     0.136 A 
HETATM    5  N   UNL     1     -41.589  56.747 -53.410  1.00  0.00    -0.216 NA
ENDROOT
BRANCH   1   6
HETATM    6  C   UNL     1     -41.731  58.059 -51.270  1.00  0.00     0.087 C 
BRANCH   6   7
HETATM    7  C   UNL     1     -42.432  59.181 -52.068  1.00  0.00    -0.004 C 
HETATM    8  C   UNL     1     -42.239  60.594 -51.486  1.00  0.00     0.032 C 
HETATM    9  C   UNL     1     -42.985  60.808 -50.175  1.00  0.00     0.234 C 
HETATM   10  N   UNL     1     -44.453  60.526 -50.392  1.00  0.00    -0.075 N 
HETATM   11  C   UNL     1     -45.261  60.826 -49.154  1.00  0.00     0.269 C 
HETATM   12  H   UNL     1     -44.789  61.185 -51.109  1.00  0.00     0.279 HD
HETATM   13  C   UNL     1     -44.718  59.133 -50.902  1.00  0.00     0.234 C 
HETATM   14  C   UNL     1     -43.942  58.902 -52.198  1.00  0.00     0.032 C 
ENDBRANCH   6   7
ENDBRANCH   1   6
BRANCH   3  15
HETATM   15  C   UNL     1     -40.582  53.473 -52.247  1.00  0.00     0.062 A 
HETATM   16  C   UNL     1     -40.194  52.615 -53.283  1.00  0.00     0.058 A 
HETATM   17  C   UNL     1     -39.749  51.319 -52.990  1.00  0.00     0.074 A 
HETATM   18 CL   UNL     1     -39.281  50.290 -54.288  1.00  0.00    -0.081 Cl
HETATM   19  C   UNL     1     -39.681  50.881 -51.672  1.00  0.00     0.138 A 
HETATM   20  F   UNL     1     -39.260  49.643 -51.380  1.00  0.00    -0.204 F 
HETATM   21  C   UNL     1     -40.040  51.730 -50.633  1.00  0.00     0.046 A 
HETATM   22  C   UNL     1     -40.482  53.026 -50.916  1.00  0.00     0.035 A 
ENDBRANCH   3  15
BRANCH   4  23
HETATM   23  C   UNL     1     -41.601  54.847 -55.025  1.00  0.00     0.084 C 
HETATM   24  C   UNL     1     -42.945  54.117 -55.075  1.00  0.00     0.244 C 
HETATM   25  N   UNL     1     -43.937  55.225 -55.271  1.00  0.00    -0.074 N 
HETATM   26  H   UNL     1     -44.814  54.909 -55.708  1.00  0.00     0.277 HD
HETATM   27  H   UNL     1     -44.172  55.591 -54.333  1.00  0.00     0.277 HD
HETATM   28  C   UNL     1     -43.257  56.320 -56.035  1.00  0.00     0.233 C 
HETATM   29  C   UNL     1     -41.791  55.905 -56.109  1.00  0.00     0.041 C 
ENDBRANCH   4  23
TORSDOF 4
ENDMDL
MODEL 8
REMARK VINA RESULT:      -7.6      3.932      7.534
REMARK  4 active torsions:
REMARK  status: ('A' for Active; 'I' for Inactive)
REMARK    1  A    between atoms: C_6  and  C_7 
REMARK    2  A    between atoms: C_7  and  C_8 
REMARK    3  A    between atoms: N_10  and  C_11 
REMARK    4  A    between atoms: C_19  and  C_20 
ROOT
HETATM    1  C   UNL     1     -42.663  54.836 -53.636  1.00  0.00     0.149 A 
HETATM    2  N   UNL     1     -42.823  55.201 -54.905  1.00  0.00    -0.150 NA
HETATM    3  N   UNL     1     -43.393  56.432 -54.810  1.00  0.00    -0.218 N 
HETATM    4  C   UNL     1     -43.683  56.678 -53.466  1.00  0.00     0.136 A 
HETATM    5  N   UNL     1     -43.170  55.711 -52.720  1.00  0.00    -0.216 NA
ENDROOT
BRANCH   1   6
HETATM    6  C   UNL     1     -42.043  53.531 -53.270  1.00  0.00     0.087 C 
BRANCH   6   7
HETATM    7  C   UNL     1     -40.505  53.576 -53.128  1.00  0.00    -0.004 C 
HETATM    8  C   UNL     1     -39.762  52.458 -53.883  1.00  0.00     0.032 C 
HETATM    9  C   UNL     1     -39.963  51.082 -53.261  1.00  0.00     0.234 C 
HETATM   10  N   UNL     1     -39.521  51.123 -51.818  1.00  0.00    -0.075 N 
HETATM   11  C   UNL     1     -39.594  49.759 -51.178  1.00  0.00     0.269 C 
HETATM   12  H   UNL     1     -38.523  51.379 -51.810  1.00  0.00     0.279 HD
HETATM   13  C   UNL     1     -40.257  52.156 -51.004  1.00  0.00     0.234 C 
HETATM   14  C   UNL     1     -40.088  53.533 -51.645  1.00  0.00     0.032 C 
ENDBRANCH   6   7
ENDBRANCH   1   6
BRANCH   3  15
HETATM   15  C   UNL     1     -43.584  57.214 -55.984  1.00  0.00     0.062 A 
HETATM   16  C   UNL     1     -44.847  57.677 -56.371  1.00  0.00     0.058 A 
HETATM   17  C   UNL     1     -44.985  58.446 -57.535  1.00  0.00     0.074 A 
HETATM   18 CL   UNL     1     -46.553  58.996 -57.984  1.00  0.00    -0.081 Cl
HETATM   19  C   UNL     1     -43.870  58.762 -58.304  1.00  0.00     0.138 A 
HETATM   20  F   UNL     1     -43.990  59.494 -59.419  1.00  0.00    -0.204 F 
HETATM   21  C   UNL     1     -42.608  58.330 -57.917  1.00  0.00     0.046 A 
HETATM   22  C   UNL     1     -42.461  57.565 -56.756  1.00  0.00     0.035 A 
ENDBRANCH   3  15
BRANCH   4  23
HETATM   23  C   UNL     1     -44.557  57.774 -52.920  1.00  0.00     0.084 C 
HETATM   24  C   UNL     1     -44.783  57.600 -51.417  1.00  0.00     0.244 C 
HETATM   25  N   UNL     1     -43.518  58.127 -50.810  1.00  0.00    -0.074 N 
HETATM   26  H   UNL     1     -43.639  58.448 -49.838  1.00  0.00     0.277 HD
HETATM   27  H   UNL     1     -42.839  57.348 -50.796  1.00  0.00     0.277 HD
HETATM   28  C   UNL     1     -42.980  59.189 -51.720  1.00  0.00     0.233 C 
HETATM   29  C   UNL     1     -43.859  59.130 -52.966  1.00  0.00     0.041 C 
ENDBRANCH   4  23
TORSDOF 4
ENDMDL
MODEL 9
REMARK VINA RESULT:      -7.5      4.228      7.827
REMARK  4 active torsions:
REMARK  status: ('A' for Active; 'I' for Inactive)
REMARK    1  A    between atoms: C_6  and  C_7 
REMARK    2  A    between atoms: C_7  and  C_8 
REMARK    3  A    between atoms: N_10  and  C_11 
REMARK    4  A    between atoms: C_19  and  C_20 
ROOT
HETATM    1  C   UNL     1     -42.527  55.333 -52.932  1.00  0.00     0.149 A 
HETATM    2  N   UNL     1     -42.817  56.131 -51.908  1.00  0.00    -0.150 NA
HETATM    3  N   UNL     1     -43.292  57.254 -52.508  1.00  0.00    -0.218 N 
HETATM    4  C   UNL     1     -43.120  57.121 -53.887  1.00  0.00     0.136 A 
HETATM    5  N   UNL     1     -42.701  55.895 -54.163  1.00  0.00    -0.216 NA
ENDROOT
BRANCH   1   6
HETATM    6  C   UNL     1     -41.982  53.962 -52.726  1.00  0.00     0.087 C 
BRANCH   6   7
HETATM    7  C   UNL     1     -40.454  53.849 -52.930  1.00  0.00    -0.004 C 
HETATM    8  C   UNL     1     -40.034  53.034 -54.167  1.00  0.00     0.032 C 
HETATM    9  C   UNL     1     -40.310  51.542 -54.022  1.00  0.00     0.234 C 
HETATM   10  N   UNL     1     -39.603  51.028 -52.790  1.00  0.00    -0.075 N 
HETATM   11  C   UNL     1     -39.750  49.533 -52.653  1.00  0.00     0.269 C 
HETATM   12  H   UNL     1     -38.595  51.196 -52.922  1.00  0.00     0.279 HD
HETATM   13  C   UNL     1     -40.017  51.743 -51.530  1.00  0.00     0.234 C 
HETATM   14  C   UNL     1     -39.776  53.244 -51.685  1.00  0.00     0.032 C 
ENDBRANCH   6   7
ENDBRANCH   1   6
BRANCH   3  15
HETATM   15  C   UNL     1     -43.848  58.296 -51.714  1.00  0.00     0.062 A 
HETATM   16  C   UNL     1     -43.145  59.474 -51.433  1.00  0.00     0.058 A 
HETATM   17  C   UNL     1     -43.735  60.473 -50.647  1.00  0.00     0.074 A 
HETATM   18 CL   UNL     1     -42.840  61.906 -50.319  1.00  0.00    -0.081 Cl
HETATM   19  C   UNL     1     -45.024  60.307 -50.153  1.00  0.00     0.138 A 
HETATM   20  F   UNL     1     -45.598  61.255 -49.399  1.00  0.00    -0.204 F 
HETATM   21  C   UNL     1     -45.743  59.155 -50.444  1.00  0.00     0.046 A 
HETATM   22  C   UNL     1     -45.162  58.154 -51.230  1.00  0.00     0.035 A 
ENDBRANCH   3  15
BRANCH   4  23
HETATM   23  C   UNL     1     -43.240  58.210 -54.918  1.00  0.00     0.084 C 
HETATM   24  C   UNL     1     -43.144  57.640 -56.335  1.00  0.00     0.244 C 
HETATM   25  N   UNL     1     -44.512  57.078 -56.579  1.00  0.00    -0.074 N 
HETATM   26  H   UNL     1     -44.749  57.012 -57.579  1.00  0.00     0.277 HD
HETATM   27  H   UNL     1     -44.520  56.118 -56.195  1.00  0.00     0.277 HD
HETATM   28  C   UNL     1     -45.491  57.895 -55.793  1.00  0.00     0.233 C 
HETATM   29  C   UNL     1     -44.638  58.824 -54.933  1.00  0.00     0.041 C 
ENDBRANCH   4  23
TORSDOF 4
ENDMDL
MODEL 10
REMARK VINA RESULT:      -7.5     15.258     17.556
REMARK  4 active torsions:
REMARK  status: ('A' for Active; 'I' for Inactive)
REMARK    1  A    between atoms: C_6  and  C_7 
REMARK    2  A    between atoms: C_7  and  C_8 
REMARK    3  A    between atoms: N_10  and  C_11 
REMARK    4  A    between atoms: C_19  and  C_20 
ROOT
HETATM    1  C   UNL     1     -34.358  41.132 -56.172  1.00  0.00     0.149 A 
HETATM    2  N   UNL     1     -34.525  41.185 -54.853  1.00  0.00    -0.150 NA
HETATM    3  N   UNL     1     -33.602  40.306 -54.381  1.00  0.00    -0.218 N 
HETATM    4  C   UNL     1     -33.022  39.653 -55.471  1.00  0.00     0.136 A 
HETATM    5  N   UNL     1     -33.444  40.211 -56.596  1.00  0.00    -0.216 NA
ENDROOT
BRANCH   1   6
HETATM    6  C   UNL     1     -35.172  41.967 -57.098  1.00  0.00     0.087 C 
BRANCH   6   7
HETATM    7  C   UNL     1     -36.675  41.607 -57.123  1.00  0.00    -0.004 C 
HETATM    8  C   UNL     1     -36.969  40.097 -57.169  1.00  0.00     0.032 C 
HETATM    9  C   UNL     1     -36.607  39.458 -58.504  1.00  0.00     0.234 C 
HETATM   10  N   UNL     1     -37.349  40.171 -59.609  1.00  0.00    -0.075 N 
HETATM   11  C   UNL     1     -37.115  39.513 -60.946  1.00  0.00     0.269 C 
HETATM   12  H   UNL     1     -38.357  40.064 -59.421  1.00  0.00     0.279 HD
HETATM   13  C   UNL     1     -37.056  41.649 -59.660  1.00  0.00     0.234 C 
HETATM   14  C   UNL     1     -37.384  42.286 -58.311  1.00  0.00     0.032 C 
ENDBRANCH   6   7
ENDBRANCH   1   6
BRANCH   3  15
HETATM   15  C   UNL     1     -33.381  40.199 -52.979  1.00  0.00     0.062 A 
HETATM   16  C   UNL     1     -34.396  39.818 -52.093  1.00  0.00     0.058 A 
HETATM   17  C   UNL     1     -34.130  39.725 -50.721  1.00  0.00     0.074 A 
HETATM   18 CL   UNL     1     -35.402  39.256 -49.659  1.00  0.00    -0.081 Cl
HETATM   19  C   UNL     1     -32.857  39.999 -50.232  1.00  0.00     0.138 A 
HETATM   20  F   UNL     1     -32.592  39.916 -48.921  1.00  0.00    -0.204 F 
HETATM   21  C   UNL     1     -31.835  40.355 -51.103  1.00  0.00     0.046 A 
HETATM   22  C   UNL     1     -32.091  40.447 -52.474  1.00  0.00     0.035 A 
ENDBRANCH   3  15
BRANCH   4  23
HETATM   23  C   UNL     1     -32.163  38.419 -55.427  1.00  0.00     0.084 C 
HETATM   24  C   UNL     1     -32.134  37.720 -56.788  1.00  0.00     0.244 C 
HETATM   25  N   UNL     1     -31.152  38.533 -57.577  1.00  0.00    -0.074 N 
HETATM   26  H   UNL     1     -30.720  38.007 -58.350  1.00  0.00     0.277 HD
HETATM   27  H   UNL     1     -31.676  39.321 -57.994  1.00  0.00     0.277 HD
HETATM   28  C   UNL     1     -30.152  39.104 -56.618  1.00  0.00     0.233 C 
HETATM   29  C   UNL     1     -30.688  38.762 -55.231  1.00  0.00     0.041 C 
ENDBRANCH   4  23
TORSDOF 4
ENDMDL
