MODEL 1
REMARK VINA RESULT:      -8.2      0.000      0.000
REMARK  5 active torsions:
REMARK  status: ('A' for Active; 'I' for Inactive)
REMARK    1  A    between atoms: C_3  and  N_4 
REMARK       I    between atoms: N_4  and  C_5 
REMARK       I    between atoms: C_5  and  N_6 
REMARK    2  A    between atoms: N_6  and  C_7 
REMARK    3  A    between atoms: C_7  and  C_8 
REMARK    4  A    between atoms: C_10  and  N_11 
REMARK       I    between atoms: N_11  and  C_12 
REMARK    5  A    between atoms: C_12  and  C_13 
ROOT
HETATM    1  C   UNL     1     -41.413  57.945 -51.812  1.00  0.00    -0.038 A 
HETATM    2  C   UNL     1     -41.480  57.513 -53.149  1.00  0.00     0.038 A 
HETATM    3  C   UNL     1     -41.844  58.391 -54.173  1.00  0.00     0.035 A 
HETATM    4  C   UNL     1     -42.154  59.716 -53.849  1.00  0.00     0.029 A 
HETATM    5  C   UNL     1     -42.103  60.156 -52.525  1.00  0.00     0.003 A 
HETATM    6  C   UNL     1     -41.738  59.274 -51.510  1.00  0.00     0.009 A 
ENDROOT
BRANCH   1   7
HETATM    7  C   UNL     1     -41.035  56.975 -50.722  1.00  0.00     0.163 C 
BRANCH   7   8
HETATM    8  N   UNL     1     -41.961  55.861 -50.662  1.00  0.00    -0.339 N 
HETATM    9  C   UNL     1     -41.870  54.596 -51.156  1.00  0.00     0.321 C 
HETATM   10  N   UNL     1     -40.638  54.208 -51.598  1.00  0.00    -0.307 N 
HETATM   11  O   UNL     1     -42.890  53.915 -51.167  1.00  0.00    -0.247 OA
HETATM   12  H   UNL     1     -39.866  54.778 -51.304  1.00  0.00     0.170 HD
HETATM   13  H   UNL     1     -42.903  56.080 -50.362  1.00  0.00     0.164 HD
BRANCH  10  14
HETATM   14  C   UNL     1     -40.305  52.999 -52.257  1.00  0.00     0.059 A 
HETATM   15  C   UNL     1     -40.430  52.923 -53.658  1.00  0.00    -0.032 A 
HETATM   16  C   UNL     1     -40.900  54.082 -54.494  1.00  0.00     0.050 C 
HETATM   17  C   UNL     1     -40.097  51.723 -54.303  1.00  0.00     0.028 A 
HETATM   18  C   UNL     1     -39.669  50.646 -53.546  1.00  0.00     0.117 A 
HETATM   19  N   UNL     1     -39.551  50.680 -52.206  1.00  0.00    -0.271 NA
HETATM   20  C   UNL     1     -39.869  51.851 -51.595  1.00  0.00     0.146 A 
ENDBRANCH  10  14
ENDBRANCH   7   8
ENDBRANCH   1   7
BRANCH   3  21
HETATM   21  N   UNL     1     -41.932  58.022 -55.533  1.00  0.00    -0.323 N 
HETATM   22  C   UNL     1     -42.814  57.121 -56.103  1.00  0.00     0.256 C 
HETATM   23  O   UNL     1     -43.637  56.428 -55.517  1.00  0.00    -0.267 OA
HETATM   24  H   UNL     1     -41.228  58.426 -56.136  1.00  0.00     0.169 HD
BRANCH  22  25
HETATM   25  C   UNL     1     -42.706  56.975 -57.580  1.00  0.00     0.035 A 
HETATM   26  C   UNL     1     -43.161  55.835 -58.246  1.00  0.00     0.036 A 
HETATM   27  C   UNL     1     -43.006  55.787 -59.621  1.00  0.00     0.117 A 
HETATM   28  N   UNL     1     -42.441  56.775 -60.347  1.00  0.00    -0.273 NA
HETATM   29  C   UNL     1     -41.989  57.854 -59.674  1.00  0.00     0.117 A 
HETATM   30  C   UNL     1     -42.095  57.999 -58.304  1.00  0.00     0.036 A 
ENDBRANCH  22  25
ENDBRANCH   3  21
TORSDOF 5
ENDMDL
MODEL 2
REMARK VINA RESULT:      -8.1      1.933      6.953
REMARK  5 active torsions:
REMARK  status: ('A' for Active; 'I' for Inactive)
REMARK    1  A    between atoms: C_3  and  N_4 
REMARK       I    between atoms: N_4  and  C_5 
REMARK       I    between atoms: C_5  and  N_6 
REMARK    2  A    between atoms: N_6  and  C_7 
REMARK    3  A    between atoms: C_7  and  C_8 
REMARK    4  A    between atoms: C_10  and  N_11 
REMARK       I    between atoms: N_11  and  C_12 
REMARK    5  A    between atoms: C_12  and  C_13 
ROOT
HETATM    1  C   UNL     1     -43.468  57.064 -52.506  1.00  0.00    -0.038 A 
HETATM    2  C   UNL     1     -43.041  55.747 -52.753  1.00  0.00     0.038 A 
HETATM    3  C   UNL     1     -41.934  55.212 -52.089  1.00  0.00     0.035 A 
HETATM    4  C   UNL     1     -41.242  56.013 -51.174  1.00  0.00     0.029 A 
HETATM    5  C   UNL     1     -41.648  57.326 -50.928  1.00  0.00     0.003 A 
HETATM    6  C   UNL     1     -42.753  57.851 -51.594  1.00  0.00     0.009 A 
ENDROOT
BRANCH   1   7
HETATM    7  C   UNL     1     -44.655  57.626 -53.248  1.00  0.00     0.163 C 
BRANCH   7   8
HETATM    8  N   UNL     1     -44.256  58.677 -54.163  1.00  0.00    -0.339 N 
HETATM    9  C   UNL     1     -44.003  58.650 -55.499  1.00  0.00     0.321 C 
HETATM   10  N   UNL     1     -44.381  57.518 -56.162  1.00  0.00    -0.307 N 
HETATM   11  O   UNL     1     -43.460  59.631 -55.996  1.00  0.00    -0.247 OA
HETATM   12  H   UNL     1     -45.021  56.917 -55.675  1.00  0.00     0.170 HD
HETATM   13  H   UNL     1     -43.941  59.542 -53.739  1.00  0.00     0.164 HD
BRANCH  10  14
HETATM   14  C   UNL     1     -44.129  57.193 -57.517  1.00  0.00     0.059 A 
HETATM   15  C   UNL     1     -43.274  56.114 -57.817  1.00  0.00    -0.032 A 
HETATM   16  C   UNL     1     -42.615  55.282 -56.752  1.00  0.00     0.050 C 
HETATM   17  C   UNL     1     -43.029  55.798 -59.162  1.00  0.00     0.028 A 
HETATM   18  C   UNL     1     -43.624  56.560 -60.153  1.00  0.00     0.117 A 
HETATM   19  N   UNL     1     -44.434  57.604 -59.902  1.00  0.00    -0.271 NA
HETATM   20  C   UNL     1     -44.669  57.894 -58.596  1.00  0.00     0.146 A 
ENDBRANCH  10  14
ENDBRANCH   7   8
ENDBRANCH   1   7
BRANCH   3  21
HETATM   21  N   UNL     1     -41.452  53.901 -52.291  1.00  0.00    -0.323 N 
HETATM   22  C   UNL     1     -40.605  53.462 -53.294  1.00  0.00     0.256 C 
HETATM   23  O   UNL     1     -40.172  54.124 -54.231  1.00  0.00    -0.267 OA
HETATM   24  H   UNL     1     -41.822  53.203 -51.660  1.00  0.00     0.169 HD
BRANCH  22  25
HETATM   25  C   UNL     1     -40.224  52.025 -53.221  1.00  0.00     0.035 A 
HETATM   26  C   UNL     1     -39.754  51.444 -52.041  1.00  0.00     0.036 A 
HETATM   27  C   UNL     1     -39.413  50.103 -52.076  1.00  0.00     0.117 A 
HETATM   28  N   UNL     1     -39.506  49.333 -53.181  1.00  0.00    -0.273 NA
HETATM   29  C   UNL     1     -39.942  49.928 -54.312  1.00  0.00     0.117 A 
HETATM   30  C   UNL     1     -40.306  51.259 -54.384  1.00  0.00     0.036 A 
ENDBRANCH  22  25
ENDBRANCH   3  21
TORSDOF 5
ENDMDL
MODEL 3
REMARK VINA RESULT:      -8.0      2.162      7.370
REMARK  5 active torsions:
REMARK  status: ('A' for Active; 'I' for Inactive)
REMARK    1  A    between atoms: C_3  and  N_4 
REMARK       I    between atoms: N_4  and  C_5 
REMARK       I    between atoms: C_5  and  N_6 
REMARK    2  A    between atoms: N_6  and  C_7 
REMARK    3  A    between atoms: C_7  and  C_8 
REMARK    4  A    between atoms: C_10  and  N_11 
REMARK       I    between atoms: N_11  and  C_12 
REMARK    5  A    between atoms: C_12  and  C_13 
ROOT
HETATM    1  C   UNL     1     -43.140  57.217 -53.508  1.00  0.00    -0.038 A 
HETATM    2  C   UNL     1     -42.716  55.880 -53.610  1.00  0.00     0.038 A 
HETATM    3  C   UNL     1     -41.875  55.315 -52.649  1.00  0.00     0.035 A 
HETATM    4  C   UNL     1     -41.446  56.106 -51.577  1.00  0.00     0.029 A 
HETATM    5  C   UNL     1     -41.849  57.438 -51.469  1.00  0.00     0.003 A 
HETATM    6  C   UNL     1     -42.689  57.993 -52.432  1.00  0.00     0.009 A 
ENDROOT
BRANCH   1   7
HETATM    7  C   UNL     1     -44.033  57.811 -54.568  1.00  0.00     0.163 C 
BRANCH   7   8
HETATM    8  N   UNL     1     -43.268  58.250 -55.718  1.00  0.00    -0.339 N 
HETATM    9  C   UNL     1     -43.331  57.882 -57.026  1.00  0.00     0.321 C 
HETATM   10  N   UNL     1     -44.417  57.141 -57.394  1.00  0.00    -0.307 N 
HETATM   11  O   UNL     1     -42.416  58.238 -57.762  1.00  0.00    -0.247 OA
HETATM   12  H   UNL     1     -45.185  57.138 -56.748  1.00  0.00     0.170 HD
HETATM   13  H   UNL     1     -42.433  58.788 -55.519  1.00  0.00     0.164 HD
BRANCH  10  14
HETATM   14  C   UNL     1     -44.659  56.539 -58.653  1.00  0.00     0.059 A 
HETATM   15  C   UNL     1     -45.861  56.824 -59.330  1.00  0.00    -0.032 A 
HETATM   16  C   UNL     1     -46.906  57.752 -58.773  1.00  0.00     0.050 C 
HETATM   17  C   UNL     1     -46.094  56.224 -60.576  1.00  0.00     0.028 A 
HETATM   18  C   UNL     1     -45.145  55.362 -61.098  1.00  0.00     0.117 A 
HETATM   19  N   UNL     1     -43.994  55.058 -60.472  1.00  0.00    -0.271 NA
HETATM   20  C   UNL     1     -43.777  55.652 -59.270  1.00  0.00     0.146 A 
ENDBRANCH  10  14
ENDBRANCH   7   8
ENDBRANCH   1   7
BRANCH   3  21
HETATM   21  N   UNL     1     -41.412  53.982 -52.692  1.00  0.00    -0.323 N 
HETATM   22  C   UNL     1     -40.510  53.435 -53.588  1.00  0.00     0.256 C 
HETATM   23  O   UNL     1     -40.000  53.996 -54.551  1.00  0.00    -0.267 OA
HETATM   24  H   UNL     1     -41.840  53.354 -52.024  1.00  0.00     0.169 HD
BRANCH  22  25
HETATM   25  C   UNL     1     -40.169  52.005 -53.353  1.00  0.00     0.035 A 
HETATM   26  C   UNL     1     -39.744  51.541 -52.107  1.00  0.00     0.036 A 
HETATM   27  C   UNL     1     -39.438  50.196 -51.990  1.00  0.00     0.117 A 
HETATM   28  N   UNL     1     -39.524  49.316 -53.010  1.00  0.00    -0.273 NA
HETATM   29  C   UNL     1     -39.916  49.798 -54.209  1.00  0.00     0.117 A 
HETATM   30  C   UNL     1     -40.243  51.122 -54.430  1.00  0.00     0.036 A 
ENDBRANCH  22  25
ENDBRANCH   3  21
TORSDOF 5
ENDMDL
MODEL 4
REMARK VINA RESULT:      -8.0      1.959      1.996
REMARK  5 active torsions:
REMARK  status: ('A' for Active; 'I' for Inactive)
REMARK    1  A    between atoms: C_3  and  N_4 
REMARK       I    between atoms: N_4  and  C_5 
REMARK       I    between atoms: C_5  and  N_6 
REMARK    2  A    between atoms: N_6  and  C_7 
REMARK    3  A    between atoms: C_7  and  C_8 
REMARK    4  A    between atoms: C_10  and  N_11 
REMARK       I    between atoms: N_11  and  C_12 
REMARK    5  A    between atoms: C_12  and  C_13 
ROOT
HETATM    1  C   UNL     1     -44.400  57.364 -52.105  1.00  0.00    -0.038 A 
HETATM    2  C   UNL     1     -44.255  56.924 -53.434  1.00  0.00     0.038 A 
HETATM    3  C   UNL     1     -44.583  57.755 -54.508  1.00  0.00     0.035 A 
HETATM    4  C   UNL     1     -45.072  59.039 -54.244  1.00  0.00     0.029 A 
HETATM    5  C   UNL     1     -45.231  59.484 -52.931  1.00  0.00     0.003 A 
HETATM    6  C   UNL     1     -44.901  58.649 -51.866  1.00  0.00     0.009 A 
ENDROOT
BRANCH   1   7
HETATM    7  C   UNL     1     -44.056  56.443 -50.962  1.00  0.00     0.163 C 
BRANCH   7   8
HETATM    8  N   UNL     1     -42.638  56.481 -50.661  1.00  0.00    -0.339 N 
HETATM    9  C   UNL     1     -41.632  55.627 -50.991  1.00  0.00     0.321 C 
HETATM   10  N   UNL     1     -41.923  54.686 -51.936  1.00  0.00    -0.307 N 
HETATM   11  O   UNL     1     -40.556  55.767 -50.418  1.00  0.00    -0.247 OA
HETATM   12  H   UNL     1     -42.753  54.850 -52.477  1.00  0.00     0.170 HD
HETATM   13  H   UNL     1     -42.351  57.143 -49.950  1.00  0.00     0.164 HD
BRANCH  10  14
HETATM   14  C   UNL     1     -41.099  53.618 -52.367  1.00  0.00     0.059 A 
HETATM   15  C   UNL     1     -40.993  53.345 -53.745  1.00  0.00    -0.032 A 
HETATM   16  C   UNL     1     -41.719  54.148 -54.789  1.00  0.00     0.050 C 
HETATM   17  C   UNL     1     -40.176  52.285 -54.164  1.00  0.00     0.028 A 
HETATM   18  C   UNL     1     -39.506  51.533 -53.214  1.00  0.00     0.117 A 
HETATM   19  N   UNL     1     -39.596  51.758 -51.890  1.00  0.00    -0.271 NA
HETATM   20  C   UNL     1     -40.385  52.791 -51.499  1.00  0.00     0.146 A 
ENDBRANCH  10  14
ENDBRANCH   7   8
ENDBRANCH   1   7
BRANCH   3  21
HETATM   21  N   UNL     1     -44.464  57.376 -55.863  1.00  0.00    -0.323 N 
HETATM   22  C   UNL     1     -43.333  57.442 -56.657  1.00  0.00     0.256 C 
HETATM   23  O   UNL     1     -42.242  57.906 -56.344  1.00  0.00    -0.267 OA
HETATM   24  H   UNL     1     -45.324  57.081 -56.305  1.00  0.00     0.169 HD
BRANCH  22  25
HETATM   25  C   UNL     1     -43.497  56.919 -58.041  1.00  0.00     0.035 A 
HETATM   26  C   UNL     1     -43.579  55.551 -58.310  1.00  0.00     0.036 A 
HETATM   27  C   UNL     1     -43.718  55.162 -59.630  1.00  0.00     0.117 A 
HETATM   28  N   UNL     1     -43.776  56.026 -60.666  1.00  0.00    -0.273 NA
HETATM   29  C   UNL     1     -43.670  57.341 -60.377  1.00  0.00     0.117 A 
HETATM   30  C   UNL     1     -43.527  57.833 -59.094  1.00  0.00     0.036 A 
ENDBRANCH  22  25
ENDBRANCH   3  21
TORSDOF 5
ENDMDL
MODEL 5
REMARK VINA RESULT:      -7.5      1.519      6.733
REMARK  5 active torsions:
REMARK  status: ('A' for Active; 'I' for Inactive)
REMARK    1  A    between atoms: C_3  and  N_4 
REMARK       I    between atoms: N_4  and  C_5 
REMARK       I    between atoms: C_5  and  N_6 
REMARK    2  A    between atoms: N_6  and  C_7 
REMARK    3  A    between atoms: C_7  and  C_8 
REMARK    4  A    between atoms: C_10  and  N_11 
REMARK       I    between atoms: N_11  and  C_12 
REMARK    5  A    between atoms: C_12  and  C_13 
ROOT
HETATM    1  C   UNL     1     -42.617  58.821 -52.871  1.00  0.00    -0.038 A 
HETATM    2  C   UNL     1     -42.185  57.517 -53.175  1.00  0.00     0.038 A 
HETATM    3  C   UNL     1     -41.416  56.783 -52.270  1.00  0.00     0.035 A 
HETATM    4  C   UNL     1     -41.066  57.369 -51.048  1.00  0.00     0.029 A 
HETATM    5  C   UNL     1     -41.477  58.667 -50.738  1.00  0.00     0.003 A 
HETATM    6  C   UNL     1     -42.245  59.392 -51.646  1.00  0.00     0.009 A 
ENDROOT
BRANCH   1   7
HETATM    7  C   UNL     1     -43.432  59.601 -53.871  1.00  0.00     0.163 C 
BRANCH   7   8
HETATM    8  N   UNL     1     -42.618  60.037 -54.989  1.00  0.00    -0.339 N 
HETATM    9  C   UNL     1     -42.498  59.545 -56.252  1.00  0.00     0.321 C 
HETATM   10  N   UNL     1     -43.433  58.628 -56.634  1.00  0.00    -0.307 N 
HETATM   11  O   UNL     1     -41.569  59.959 -56.937  1.00  0.00    -0.247 OA
HETATM   12  H   UNL     1     -44.256  58.575 -56.061  1.00  0.00     0.170 HD
HETATM   13  H   UNL     1     -41.887  60.705 -54.775  1.00  0.00     0.164 HD
BRANCH  10  14
HETATM   14  C   UNL     1     -43.464  57.885 -57.839  1.00  0.00     0.059 A 
HETATM   15  C   UNL     1     -43.097  56.525 -57.818  1.00  0.00    -0.032 A 
HETATM   16  C   UNL     1     -42.675  55.818 -56.559  1.00  0.00     0.050 C 
HETATM   17  C   UNL     1     -43.130  55.796 -59.016  1.00  0.00     0.028 A 
HETATM   18  C   UNL     1     -43.511  56.434 -60.184  1.00  0.00     0.117 A 
HETATM   19  N   UNL     1     -43.854  57.734 -60.242  1.00  0.00    -0.271 NA
HETATM   20  C   UNL     1     -43.825  58.426 -59.074  1.00  0.00     0.146 A 
ENDBRANCH  10  14
ENDBRANCH   7   8
ENDBRANCH   1   7
BRANCH   3  21
HETATM   21  N   UNL     1     -40.949  55.473 -52.513  1.00  0.00    -0.323 N 
HETATM   22  C   UNL     1     -41.688  54.303 -52.505  1.00  0.00     0.256 C 
HETATM   23  O   UNL     1     -42.875  54.186 -52.219  1.00  0.00    -0.267 OA
HETATM   24  H   UNL     1     -39.950  55.389 -52.647  1.00  0.00     0.169 HD
BRANCH  22  25
HETATM   25  C   UNL     1     -40.930  53.070 -52.852  1.00  0.00     0.035 A 
HETATM   26  C   UNL     1     -41.030  52.468 -54.108  1.00  0.00     0.036 A 
HETATM   27  C   UNL     1     -40.296  51.317 -54.331  1.00  0.00     0.117 A 
HETATM   28  N   UNL     1     -39.495  50.746 -53.406  1.00  0.00    -0.273 NA
HETATM   29  C   UNL     1     -39.436  51.337 -52.193  1.00  0.00     0.117 A 
HETATM   30  C   UNL     1     -40.130  52.487 -51.868  1.00  0.00     0.036 A 
ENDBRANCH  22  25
ENDBRANCH   3  21
TORSDOF 5
ENDMDL
MODEL 6
REMARK VINA RESULT:      -7.5      2.205      6.960
REMARK  5 active torsions:
REMARK  status: ('A' for Active; 'I' for Inactive)
REMARK    1  A    between atoms: C_3  and  N_4 
REMARK       I    between atoms: N_4  and  C_5 
REMARK       I    between atoms: C_5  and  N_6 
REMARK    2  A    between atoms: N_6  and  C_7 
REMARK    3  A    between atoms: C_7  and  C_8 
REMARK    4  A    between atoms: C_10  and  N_11 
REMARK       I    between atoms: N_11  and  C_12 
REMARK    5  A    between atoms: C_12  and  C_13 
ROOT
HETATM    1  C   UNL     1     -44.435  58.174 -53.066  1.00  0.00    -0.038 A 
HETATM    2  C   UNL     1     -43.607  57.080 -53.379  1.00  0.00     0.038 A 
HETATM    3  C   UNL     1     -43.338  56.087 -52.435  1.00  0.00     0.035 A 
HETATM    4  C   UNL     1     -43.899  56.198 -51.158  1.00  0.00     0.029 A 
HETATM    5  C   UNL     1     -44.712  57.284 -50.829  1.00  0.00     0.003 A 
HETATM    6  C   UNL     1     -44.975  58.270 -51.777  1.00  0.00     0.009 A 
ENDROOT
BRANCH   1   7
HETATM    7  C   UNL     1     -44.696  59.244 -54.095  1.00  0.00     0.163 C 
BRANCH   7   8
HETATM    8  N   UNL     1     -45.706  58.825 -55.047  1.00  0.00    -0.339 N 
HETATM    9  C   UNL     1     -45.593  58.312 -56.302  1.00  0.00     0.321 C 
HETATM   10  N   UNL     1     -44.344  57.912 -56.681  1.00  0.00    -0.307 N 
HETATM   11  O   UNL     1     -46.609  58.253 -56.987  1.00  0.00    -0.247 OA
HETATM   12  H   UNL     1     -43.676  57.799 -55.940  1.00  0.00     0.170 HD
HETATM   13  H   UNL     1     -46.657  59.107 -54.841  1.00  0.00     0.164 HD
BRANCH  10  14
HETATM   14  C   UNL     1     -43.939  57.458 -57.959  1.00  0.00     0.059 A 
HETATM   15  C   UNL     1     -43.224  56.249 -58.064  1.00  0.00    -0.032 A 
HETATM   16  C   UNL     1     -42.875  55.407 -56.868  1.00  0.00     0.050 C 
HETATM   17  C   UNL     1     -42.826  55.806 -59.334  1.00  0.00     0.028 A 
HETATM   18  C   UNL     1     -43.135  56.573 -60.444  1.00  0.00     0.117 A 
HETATM   19  N   UNL     1     -43.803  57.739 -60.378  1.00  0.00    -0.271 NA
HETATM   20  C   UNL     1     -44.190  58.153 -59.143  1.00  0.00     0.146 A 
ENDBRANCH  10  14
ENDBRANCH   7   8
ENDBRANCH   1   7
BRANCH   3  21
HETATM   21  N   UNL     1     -42.517  54.966 -52.683  1.00  0.00    -0.323 N 
HETATM   22  C   UNL     1     -41.346  54.622 -52.031  1.00  0.00     0.256 C 
HETATM   23  O   UNL     1     -40.773  55.267 -51.160  1.00  0.00    -0.267 OA
HETATM   24  H   UNL     1     -42.796  54.391 -53.467  1.00  0.00     0.169 HD
BRANCH  22  25
HETATM   25  C   UNL     1     -40.721  53.346 -52.476  1.00  0.00     0.035 A 
HETATM   26  C   UNL     1     -39.971  52.548 -51.611  1.00  0.00     0.036 A 
HETATM   27  C   UNL     1     -39.419  51.386 -52.122  1.00  0.00     0.117 A 
HETATM   28  N   UNL     1     -39.564  50.987 -53.403  1.00  0.00    -0.273 NA
HETATM   29  C   UNL     1     -40.275  51.791 -54.223  1.00  0.00     0.117 A 
HETATM   30  C   UNL     1     -40.865  52.971 -53.812  1.00  0.00     0.036 A 
ENDBRANCH  22  25
ENDBRANCH   3  21
TORSDOF 5
ENDMDL
MODEL 7
REMARK VINA RESULT:      -7.5      2.086      2.556
REMARK  5 active torsions:
REMARK  status: ('A' for Active; 'I' for Inactive)
REMARK    1  A    between atoms: C_3  and  N_4 
REMARK       I    between atoms: N_4  and  C_5 
REMARK       I    between atoms: C_5  and  N_6 
REMARK    2  A    between atoms: N_6  and  C_7 
REMARK    3  A    between atoms: C_7  and  C_8 
REMARK    4  A    between atoms: C_10  and  N_11 
REMARK       I    between atoms: N_11  and  C_12 
REMARK    5  A    between atoms: C_12  and  C_13 
ROOT
HETATM    1  C   UNL     1     -42.243  58.310 -53.986  1.00  0.00    -0.038 A 
HETATM    2  C   UNL     1     -42.877  57.611 -55.029  1.00  0.00     0.038 A 
HETATM    3  C   UNL     1     -43.101  58.215 -56.269  1.00  0.00     0.035 A 
HETATM    4  C   UNL     1     -42.692  59.539 -56.460  1.00  0.00     0.029 A 
HETATM    5  C   UNL     1     -42.072  60.248 -55.430  1.00  0.00     0.003 A 
HETATM    6  C   UNL     1     -41.852  59.639 -54.197  1.00  0.00     0.009 A 
ENDROOT
BRANCH   1   7
HETATM    7  C   UNL     1     -42.028  57.644 -52.651  1.00  0.00     0.163 C 
BRANCH   7   8
HETATM    8  N   UNL     1     -42.863  56.468 -52.507  1.00  0.00    -0.339 N 
HETATM    9  C   UNL     1     -42.548  55.144 -52.496  1.00  0.00     0.321 C 
HETATM   10  N   UNL     1     -41.222  54.840 -52.385  1.00  0.00    -0.307 N 
HETATM   11  O   UNL     1     -43.468  54.339 -52.589  1.00  0.00    -0.247 OA
HETATM   12  H   UNL     1     -40.625  55.586 -52.078  1.00  0.00     0.170 HD
HETATM   13  H   UNL     1     -43.861  56.615 -52.600  1.00  0.00     0.164 HD
BRANCH  10  14
HETATM   14  C   UNL     1     -40.625  53.558 -52.466  1.00  0.00     0.059 A 
HETATM   15  C   UNL     1     -40.307  53.027 -53.731  1.00  0.00    -0.032 A 
HETATM   16  C   UNL     1     -40.570  53.771 -55.012  1.00  0.00     0.050 C 
HETATM   17  C   UNL     1     -39.717  51.757 -53.803  1.00  0.00     0.028 A 
HETATM   18  C   UNL     1     -39.475  51.058 -52.633  1.00  0.00     0.117 A 
HETATM   19  N   UNL     1     -39.779  51.529 -51.410  1.00  0.00    -0.271 NA
HETATM   20  C   UNL     1     -40.343  52.764 -51.354  1.00  0.00     0.146 A 
ENDBRANCH  10  14
ENDBRANCH   7   8
ENDBRANCH   1   7
BRANCH   3  21
HETATM   21  N   UNL     1     -43.733  57.572 -57.356  1.00  0.00    -0.323 N 
HETATM   22  C   UNL     1     -45.013  57.793 -57.833  1.00  0.00     0.256 C 
HETATM   23  O   UNL     1     -45.856  58.544 -57.356  1.00  0.00    -0.267 OA
HETATM   24  H   UNL     1     -43.200  56.828 -57.786  1.00  0.00     0.169 HD
BRANCH  22  25
HETATM   25  C   UNL     1     -45.389  56.999 -59.035  1.00  0.00     0.035 A 
HETATM   26  C   UNL     1     -44.450  56.258 -59.756  1.00  0.00     0.036 A 
HETATM   27  C   UNL     1     -44.894  55.561 -60.866  1.00  0.00     0.117 A 
HETATM   28  N   UNL     1     -46.176  55.561 -61.288  1.00  0.00    -0.273 NA
HETATM   29  C   UNL     1     -47.057  56.305 -60.585  1.00  0.00     0.117 A 
HETATM   30  C   UNL     1     -46.716  57.037 -59.464  1.00  0.00     0.036 A 
ENDBRANCH  22  25
ENDBRANCH   3  21
TORSDOF 5
ENDMDL
MODEL 8
REMARK VINA RESULT:      -7.4     15.234     17.346
REMARK  5 active torsions:
REMARK  status: ('A' for Active; 'I' for Inactive)
REMARK    1  A    between atoms: C_3  and  N_4 
REMARK       I    between atoms: N_4  and  C_5 
REMARK       I    between atoms: C_5  and  N_6 
REMARK    2  A    between atoms: N_6  and  C_7 
REMARK    3  A    between atoms: C_7  and  C_8 
REMARK    4  A    between atoms: C_10  and  N_11 
REMARK       I    between atoms: N_11  and  C_12 
REMARK    5  A    between atoms: C_12  and  C_13 
ROOT
HETATM    1  C   UNL     1     -37.318  41.156 -56.095  1.00  0.00    -0.038 A 
HETATM    2  C   UNL     1     -38.158  40.422 -56.952  1.00  0.00     0.038 A 
HETATM    3  C   UNL     1     -37.992  40.468 -58.338  1.00  0.00     0.035 A 
HETATM    4  C   UNL     1     -36.976  41.270 -58.871  1.00  0.00     0.029 A 
HETATM    5  C   UNL     1     -36.143  42.013 -58.033  1.00  0.00     0.003 A 
HETATM    6  C   UNL     1     -36.315  41.960 -56.652  1.00  0.00     0.009 A 
ENDROOT
BRANCH   1   7
HETATM    7  C   UNL     1     -37.527  41.104 -54.603  1.00  0.00     0.163 C 
BRANCH   7   8
HETATM    8  N   UNL     1     -36.729  42.105 -53.922  1.00  0.00    -0.339 N 
HETATM    9  C   UNL     1     -35.690  41.979 -53.054  1.00  0.00     0.321 C 
HETATM   10  N   UNL     1     -35.140  40.735 -52.945  1.00  0.00    -0.307 N 
HETATM   11  O   UNL     1     -35.335  42.982 -52.443  1.00  0.00    -0.247 OA
HETATM   12  H   UNL     1     -35.374  40.087 -53.675  1.00  0.00     0.170 HD
HETATM   13  H   UNL     1     -37.090  43.051 -53.943  1.00  0.00     0.164 HD
BRANCH  10  14
HETATM   14  C   UNL     1     -34.137  40.316 -52.038  1.00  0.00     0.059 A 
HETATM   15  C   UNL     1     -32.831  40.086 -52.515  1.00  0.00    -0.032 A 
HETATM   16  C   UNL     1     -32.450  40.275 -53.958  1.00  0.00     0.050 C 
HETATM   17  C   UNL     1     -31.844  39.671 -51.611  1.00  0.00     0.028 A 
HETATM   18  C   UNL     1     -32.181  39.487 -50.281  1.00  0.00     0.117 A 
HETATM   19  N   UNL     1     -33.420  39.683 -49.795  1.00  0.00    -0.271 NA
HETATM   20  C   UNL     1     -34.365  40.093 -50.680  1.00  0.00     0.146 A 
ENDBRANCH  10  14
ENDBRANCH   7   8
ENDBRANCH   1   7
BRANCH   3  21
HETATM   21  N   UNL     1     -38.800  39.759 -59.253  1.00  0.00    -0.323 N 
HETATM   22  C   UNL     1     -38.553  38.513 -59.801  1.00  0.00     0.256 C 
HETATM   23  O   UNL     1     -37.551  37.825 -59.640  1.00  0.00    -0.267 OA
HETATM   24  H   UNL     1     -39.618  40.255 -59.581  1.00  0.00     0.169 HD
BRANCH  22  25
HETATM   25  C   UNL     1     -39.618  37.992 -60.701  1.00  0.00     0.035 A 
HETATM   26  C   UNL     1     -40.792  37.421 -60.205  1.00  0.00     0.036 A 
HETATM   27  C   UNL     1     -41.718  36.954 -61.122  1.00  0.00     0.117 A 
HETATM   28  N   UNL     1     -41.548  37.017 -62.459  1.00  0.00    -0.273 NA
HETATM   29  C   UNL     1     -40.393  37.554 -62.909  1.00  0.00     0.117 A 
HETATM   30  C   UNL     1     -39.405  38.047 -62.078  1.00  0.00     0.036 A 
ENDBRANCH  22  25
ENDBRANCH   3  21
TORSDOF 5
ENDMDL
MODEL 9
REMARK VINA RESULT:      -7.3      2.944      5.301
REMARK  5 active torsions:
REMARK  status: ('A' for Active; 'I' for Inactive)
REMARK    1  A    between atoms: C_3  and  N_4 
REMARK       I    between atoms: N_4  and  C_5 
REMARK       I    between atoms: C_5  and  N_6 
REMARK    2  A    between atoms: N_6  and  C_7 
REMARK    3  A    between atoms: C_7  and  C_8 
REMARK    4  A    between atoms: C_10  and  N_11 
REMARK       I    between atoms: N_11  and  C_12 
REMARK    5  A    between atoms: C_12  and  C_13 
ROOT
HETATM    1  C   UNL     1     -43.082  55.799 -57.929  1.00  0.00    -0.038 A 
HETATM    2  C   UNL     1     -42.454  57.027 -58.206  1.00  0.00     0.038 A 
HETATM    3  C   UNL     1     -42.638  57.670 -59.433  1.00  0.00     0.035 A 
HETATM    4  C   UNL     1     -43.454  57.067 -60.397  1.00  0.00     0.029 A 
HETATM    5  C   UNL     1     -44.073  55.843 -60.140  1.00  0.00     0.003 A 
HETATM    6  C   UNL     1     -43.885  55.209 -58.914  1.00  0.00     0.009 A 
ENDROOT
BRANCH   1   7
HETATM    7  C   UNL     1     -42.854  55.115 -56.606  1.00  0.00     0.163 C 
BRANCH   7   8
HETATM    8  N   UNL     1     -41.698  55.660 -55.921  1.00  0.00    -0.339 N 
HETATM    9  C   UNL     1     -41.114  55.317 -54.742  1.00  0.00     0.321 C 
HETATM   10  N   UNL     1     -41.520  54.137 -54.187  1.00  0.00    -0.307 N 
HETATM   11  O   UNL     1     -40.281  56.086 -54.274  1.00  0.00    -0.247 OA
HETATM   12  H   UNL     1     -42.018  53.514 -54.797  1.00  0.00     0.170 HD
HETATM   13  H   UNL     1     -41.354  56.548 -56.266  1.00  0.00     0.164 HD
BRANCH  10  14
HETATM   14  C   UNL     1     -41.158  53.614 -52.922  1.00  0.00     0.059 A 
HETATM   15  C   UNL     1     -40.299  52.499 -52.860  1.00  0.00    -0.032 A 
HETATM   16  C   UNL     1     -39.737  51.839 -54.090  1.00  0.00     0.050 C 
HETATM   17  C   UNL     1     -39.946  51.986 -51.604  1.00  0.00     0.028 A 
HETATM   18  C   UNL     1     -40.460  52.580 -50.464  1.00  0.00     0.117 A 
HETATM   19  N   UNL     1     -41.294  53.635 -50.487  1.00  0.00    -0.271 NA
HETATM   20  C   UNL     1     -41.621  54.127 -51.710  1.00  0.00     0.146 A 
ENDBRANCH  10  14
ENDBRANCH   7   8
ENDBRANCH   1   7
BRANCH   3  21
HETATM   21  N   UNL     1     -42.038  58.901 -59.775  1.00  0.00    -0.323 N 
HETATM   22  C   UNL     1     -42.263  60.136 -59.193  1.00  0.00     0.256 C 
HETATM   23  O   UNL     1     -43.078  60.397 -58.315  1.00  0.00    -0.267 OA
HETATM   24  H   UNL     1     -41.420  58.872 -60.576  1.00  0.00     0.169 HD
BRANCH  22  25
HETATM   25  C   UNL     1     -41.439  61.253 -59.733  1.00  0.00     0.035 A 
HETATM   26  C   UNL     1     -41.412  61.562 -61.094  1.00  0.00     0.036 A 
HETATM   27  C   UNL     1     -40.605  62.610 -61.500  1.00  0.00     0.117 A 
HETATM   28  N   UNL     1     -39.846  63.344 -60.659  1.00  0.00    -0.273 NA
HETATM   29  C   UNL     1     -39.875  63.007 -59.351  1.00  0.00     0.117 A 
HETATM   30  C   UNL     1     -40.645  61.978 -58.844  1.00  0.00     0.036 A 
ENDBRANCH  22  25
ENDBRANCH   3  21
TORSDOF 5
ENDMDL
MODEL 10
REMARK VINA RESULT:      -7.2      4.180      7.016
REMARK  5 active torsions:
REMARK  status: ('A' for Active; 'I' for Inactive)
REMARK    1  A    between atoms: C_3  and  N_4 
REMARK       I    between atoms: N_4  and  C_5 
REMARK       I    between atoms: C_5  and  N_6 
REMARK    2  A    between atoms: N_6  and  C_7 
REMARK    3  A    between atoms: C_7  and  C_8 
REMARK    4  A    between atoms: C_10  and  N_11 
REMARK       I    between atoms: N_11  and  C_12 
REMARK    5  A    between atoms: C_12  and  C_13 
ROOT
HETATM    1  C   UNL     1     -43.006  58.174 -52.299  1.00  0.00    -0.038 A 
HETATM    2  C   UNL     1     -43.905  58.987 -51.584  1.00  0.00     0.038 A 
HETATM    3  C   UNL     1     -43.450  60.053 -50.804  1.00  0.00     0.035 A 
HETATM    4  C   UNL     1     -42.074  60.299 -50.733  1.00  0.00     0.029 A 
HETATM    5  C   UNL     1     -41.170  59.494 -51.427  1.00  0.00     0.003 A 
HETATM    6  C   UNL     1     -41.633  58.433 -52.203  1.00  0.00     0.009 A 
ENDROOT
BRANCH   1   7
HETATM    7  C   UNL     1     -43.520  57.019 -53.120  1.00  0.00     0.163 C 
BRANCH   7   8
HETATM    8  N   UNL     1     -43.790  55.861 -52.290  1.00  0.00    -0.339 N 
HETATM    9  C   UNL     1     -43.158  54.660 -52.199  1.00  0.00     0.321 C 
HETATM   10  N   UNL     1     -41.943  54.569 -52.813  1.00  0.00    -0.307 N 
HETATM   11  O   UNL     1     -43.725  53.764 -51.582  1.00  0.00    -0.247 OA
HETATM   12  H   UNL     1     -41.511  55.440 -53.063  1.00  0.00     0.170 HD
HETATM   13  H   UNL     1     -44.687  55.850 -51.819  1.00  0.00     0.164 HD
BRANCH  10  14
HETATM   14  C   UNL     1     -41.142  53.411 -52.965  1.00  0.00     0.059 A 
HETATM   15  C   UNL     1     -40.267  53.040 -51.925  1.00  0.00    -0.032 A 
HETATM   16  C   UNL     1     -40.149  53.822 -50.646  1.00  0.00     0.050 C 
HETATM   17  C   UNL     1     -39.477  51.892 -52.083  1.00  0.00     0.028 A 
HETATM   18  C   UNL     1     -39.570  51.165 -53.258  1.00  0.00     0.117 A 
HETATM   19  N   UNL     1     -40.384  51.499 -54.275  1.00  0.00    -0.271 NA
HETATM   20  C   UNL     1     -41.149  52.608 -54.106  1.00  0.00     0.146 A 
ENDBRANCH  10  14
ENDBRANCH   7   8
ENDBRANCH   1   7
BRANCH   3  21
HETATM   21  N   UNL     1     -44.296  60.904 -50.061  1.00  0.00    -0.323 N 
HETATM   22  C   UNL     1     -45.434  60.551 -49.357  1.00  0.00     0.256 C 
HETATM   23  O   UNL     1     -45.951  59.441 -49.305  1.00  0.00    -0.267 OA
HETATM   24  H   UNL     1     -44.067  61.888 -50.108  1.00  0.00     0.169 HD
BRANCH  22  25
HETATM   25  C   UNL     1     -46.096  61.663 -48.622  1.00  0.00     0.035 A 
HETATM   26  C   UNL     1     -46.158  61.695 -47.227  1.00  0.00     0.036 A 
HETATM   27  C   UNL     1     -46.807  62.765 -46.635  1.00  0.00     0.117 A 
HETATM   28  N   UNL     1     -47.380  63.771 -47.328  1.00  0.00    -0.273 NA
HETATM   29  C   UNL     1     -47.325  63.702 -48.675  1.00  0.00     0.117 A 
HETATM   30  C   UNL     1     -46.703  62.677 -49.363  1.00  0.00     0.036 A 
ENDBRANCH  22  25
ENDBRANCH   3  21
TORSDOF 5
ENDMDL
