MODEL 1
REMARK VINA RESULT:      -9.2      0.000      0.000
REMARK  7 active torsions:
REMARK  status: ('A' for Active; 'I' for Inactive)
REMARK    1  A    between atoms: C_4  and  C_5 
REMARK    2  A    between atoms: C_5  and  N_6 
REMARK    3  A    between atoms: N_10  and  N_11 
REMARK       I    between atoms: N_11  and  C_12 
REMARK    4  A    between atoms: C_12  and  C_13 
REMARK    5  A    between atoms: C_13  and  N_14 
REMARK       I    between atoms: N_14  and  C_15 
REMARK    6  A    between atoms: C_15  and  C_16 
REMARK    7  A    between atoms: C_17  and  O_18 
ROOT
HETATM    1  N   UNL     1     -42.490  57.713 -58.516  1.00  0.00    -0.307 N 
HETATM    2  C   UNL     1     -42.396  57.629 -57.139  1.00  0.00     0.280 A 
HETATM    3  O   UNL     1     -42.589  56.690 -56.394  1.00  0.00    -0.265 OA
HETATM    4  C   UNL     1     -41.974  59.016 -56.669  1.00  0.00     0.157 A 
HETATM    5  N   UNL     1     -41.790  59.451 -55.463  1.00  0.00    -0.166 NA
HETATM    6  C   UNL     1     -41.824  59.822 -57.873  1.00  0.00     0.027 A 
HETATM    7  C   UNL     1     -42.150  59.005 -58.955  1.00  0.00     0.050 A 
HETATM    8  C   UNL     1     -41.463  61.149 -58.010  1.00  0.00     0.016 A 
HETATM    9  C   UNL     1     -41.428  61.666 -59.304  1.00  0.00     0.001 A 
HETATM   10  C   UNL     1     -41.753  60.856 -60.409  1.00  0.00     0.002 A 
HETATM   11  C   UNL     1     -42.119  59.512 -60.240  1.00  0.00     0.031 A 
ENDROOT
BRANCH   5  12
HETATM   12  N   UNL     1     -42.017  58.590 -54.428  1.00  0.00    -0.245 N 
HETATM   13  C   UNL     1     -41.149  58.603 -53.344  1.00  0.00     0.255 C 
HETATM   14  O   UNL     1     -40.126  59.283 -53.263  1.00  0.00    -0.270 OA
HETATM   15  H   UNL     1     -42.846  57.984 -54.430  1.00  0.00     0.192 HD
BRANCH  13  16
HETATM   16  C   UNL     1     -41.567  57.675 -52.210  1.00  0.00     0.227 C 
BRANCH  16  17
HETATM   17  N   UNL     1     -40.964  56.363 -52.357  1.00  0.00    -0.348 N 
HETATM   18  C   UNL     1     -41.640  55.325 -52.953  1.00  0.00     0.254 C 
HETATM   19  O   UNL     1     -42.760  55.449 -53.431  1.00  0.00    -0.268 OA
HETATM   20  H   UNL     1     -40.072  56.192 -51.899  1.00  0.00     0.163 HD
BRANCH  18  21
HETATM   21  C   UNL     1     -40.941  54.018 -52.968  1.00  0.00     0.065 A 
HETATM   22  C   UNL     1     -40.373  53.447 -51.822  1.00  0.00     0.081 A 
HETATM   23  C   UNL     1     -39.799  52.178 -51.881  1.00  0.00     0.037 A 
HETATM   24  C   UNL     1     -39.761  51.486 -53.092  1.00  0.00     0.003 A 
HETATM   25  C   UNL     1     -40.294  52.062 -54.246  1.00  0.00     0.001 A 
HETATM   26  C   UNL     1     -40.880  53.328 -54.185  1.00  0.00     0.020 A 
BRANCH  22  27
HETATM   27  O   UNL     1     -40.326  54.078 -50.609  1.00  0.00    -0.360 OA
HETATM   28  H   UNL     1     -40.966  54.815 -50.615  1.00  0.00     0.217 HD
ENDBRANCH  22  27
ENDBRANCH  18  21
ENDBRANCH  16  17
ENDBRANCH  13  16
ENDBRANCH   5  12
BRANCH   1  29
HETATM   29  C   UNL     1     -42.842  56.603 -59.369  1.00  0.00     0.171 C 
BRANCH  29  30
HETATM   30  C   UNL     1     -44.320  56.546 -59.679  1.00  0.00    -0.040 A 
HETATM   31  C   UNL     1     -44.801  55.703 -60.692  1.00  0.00     0.009 A 
HETATM   32  C   UNL     1     -46.165  55.649 -60.982  1.00  0.00     0.001 A 
HETATM   33  C   UNL     1     -47.064  56.436 -60.265  1.00  0.00     0.000 A 
HETATM   34  C   UNL     1     -46.600  57.274 -59.254  1.00  0.00     0.001 A 
HETATM   35  C   UNL     1     -45.236  57.327 -58.960  1.00  0.00     0.009 A 
ENDBRANCH  29  30
ENDBRANCH   1  29
TORSDOF 7
ENDMDL
MODEL 2
REMARK VINA RESULT:      -9.2      0.732      1.228
REMARK  7 active torsions:
REMARK  status: ('A' for Active; 'I' for Inactive)
REMARK    1  A    between atoms: C_4  and  C_5 
REMARK    2  A    between atoms: C_5  and  N_6 
REMARK    3  A    between atoms: N_10  and  N_11 
REMARK       I    between atoms: N_11  and  C_12 
REMARK    4  A    between atoms: C_12  and  C_13 
REMARK    5  A    between atoms: C_13  and  N_14 
REMARK       I    between atoms: N_14  and  C_15 
REMARK    6  A    between atoms: C_15  and  C_16 
REMARK    7  A    between atoms: C_17  and  O_18 
ROOT
HETATM    1  N   UNL     1     -42.463  57.646 -58.412  1.00  0.00    -0.307 N 
HETATM    2  C   UNL     1     -42.350  57.599 -57.034  1.00  0.00     0.280 A 
HETATM    3  O   UNL     1     -42.509  56.675 -56.264  1.00  0.00    -0.265 OA
HETATM    4  C   UNL     1     -41.960  59.008 -56.605  1.00  0.00     0.157 A 
HETATM    5  N   UNL     1     -41.774  59.479 -55.413  1.00  0.00    -0.166 NA
HETATM    6  C   UNL     1     -41.846  59.787 -57.831  1.00  0.00     0.027 A 
HETATM    7  C   UNL     1     -42.163  58.935 -58.888  1.00  0.00     0.050 A 
HETATM    8  C   UNL     1     -41.522  61.119 -58.006  1.00  0.00     0.016 A 
HETATM    9  C   UNL     1     -41.517  61.604 -59.313  1.00  0.00     0.001 A 
HETATM   10  C   UNL     1     -41.832  60.757 -60.393  1.00  0.00     0.002 A 
HETATM   11  C   UNL     1     -42.160  59.409 -60.186  1.00  0.00     0.031 A 
ENDROOT
BRANCH   5  12
HETATM   12  N   UNL     1     -41.965  58.639 -54.354  1.00  0.00    -0.245 N 
HETATM   13  C   UNL     1     -41.106  58.726 -53.266  1.00  0.00     0.255 C 
HETATM   14  O   UNL     1     -40.118  59.457 -53.201  1.00  0.00    -0.270 OA
HETATM   15  H   UNL     1     -42.765  57.993 -54.342  1.00  0.00     0.192 HD
BRANCH  13  16
HETATM   16  C   UNL     1     -41.486  57.813 -52.107  1.00  0.00     0.227 C 
BRANCH  16  17
HETATM   17  N   UNL     1     -40.995  56.463 -52.320  1.00  0.00    -0.348 N 
HETATM   18  C   UNL     1     -41.807  55.476 -52.826  1.00  0.00     0.254 C 
HETATM   19  O   UNL     1     -42.966  55.678 -53.165  1.00  0.00    -0.268 OA
HETATM   20  H   UNL     1     -40.068  56.231 -51.973  1.00  0.00     0.163 HD
BRANCH  18  21
HETATM   21  C   UNL     1     -41.205  54.125 -52.920  1.00  0.00     0.065 A 
HETATM   22  C   UNL     1     -41.248  53.353 -54.088  1.00  0.00     0.081 A 
HETATM   23  C   UNL     1     -40.596  52.123 -54.140  1.00  0.00     0.037 A 
HETATM   24  C   UNL     1     -39.922  51.642 -53.017  1.00  0.00     0.003 A 
HETATM   25  C   UNL     1     -39.903  52.389 -51.838  1.00  0.00     0.001 A 
HETATM   26  C   UNL     1     -40.546  53.627 -51.788  1.00  0.00     0.020 A 
BRANCH  22  27
HETATM   27  O   UNL     1     -41.926  53.729 -55.215  1.00  0.00    -0.360 OA
HETATM   28  H   UNL     1     -41.942  52.976 -55.836  1.00  0.00     0.217 HD
ENDBRANCH  22  27
ENDBRANCH  18  21
ENDBRANCH  16  17
ENDBRANCH  13  16
ENDBRANCH   5  12
BRANCH   1  29
HETATM   29  C   UNL     1     -42.795  56.505 -59.232  1.00  0.00     0.171 C 
BRANCH  29  30
HETATM   30  C   UNL     1     -44.258  56.459 -59.609  1.00  0.00    -0.040 A 
HETATM   31  C   UNL     1     -44.696  55.629 -60.652  1.00  0.00     0.009 A 
HETATM   32  C   UNL     1     -46.046  55.585 -61.005  1.00  0.00     0.001 A 
HETATM   33  C   UNL     1     -46.973  56.369 -60.320  1.00  0.00     0.000 A 
HETATM   34  C   UNL     1     -46.551  57.193 -59.280  1.00  0.00     0.001 A 
HETATM   35  C   UNL     1     -45.202  57.237 -58.924  1.00  0.00     0.009 A 
ENDBRANCH  29  30
ENDBRANCH   1  29
TORSDOF 7
ENDMDL
MODEL 3
REMARK VINA RESULT:      -8.9      2.360      4.629
REMARK  7 active torsions:
REMARK  status: ('A' for Active; 'I' for Inactive)
REMARK    1  A    between atoms: C_4  and  C_5 
REMARK    2  A    between atoms: C_5  and  N_6 
REMARK    3  A    between atoms: N_10  and  N_11 
REMARK       I    between atoms: N_11  and  C_12 
REMARK    4  A    between atoms: C_12  and  C_13 
REMARK    5  A    between atoms: C_13  and  N_14 
REMARK       I    between atoms: N_14  and  C_15 
REMARK    6  A    between atoms: C_15  and  C_16 
REMARK    7  A    between atoms: C_17  and  O_18 
ROOT
HETATM    1  N   UNL     1     -42.718  56.618 -56.655  1.00  0.00    -0.307 N 
HETATM    2  C   UNL     1     -42.420  57.536 -55.665  1.00  0.00     0.280 A 
HETATM    3  O   UNL     1     -42.410  57.414 -54.457  1.00  0.00    -0.265 OA
HETATM    4  C   UNL     1     -42.077  58.831 -56.393  1.00  0.00     0.157 A 
HETATM    5  N   UNL     1     -41.768  59.988 -55.903  1.00  0.00    -0.166 NA
HETATM    6  C   UNL     1     -42.183  58.533 -57.816  1.00  0.00     0.027 A 
HETATM    7  C   UNL     1     -42.576  57.201 -57.927  1.00  0.00     0.050 A 
HETATM    8  C   UNL     1     -41.980  59.355 -58.908  1.00  0.00     0.016 A 
HETATM    9  C   UNL     1     -42.183  58.795 -60.169  1.00  0.00     0.001 A 
HETATM   10  C   UNL     1     -42.579  57.450 -60.301  1.00  0.00     0.002 A 
HETATM   11  C   UNL     1     -42.780  56.640 -59.174  1.00  0.00     0.031 A 
ENDROOT
BRANCH   5  12
HETATM   12  N   UNL     1     -41.757  60.129 -54.545  1.00  0.00    -0.245 N 
HETATM   13  C   UNL     1     -42.843  60.734 -53.926  1.00  0.00     0.255 C 
HETATM   14  O   UNL     1     -43.802  61.237 -54.511  1.00  0.00    -0.270 OA
HETATM   15  H   UNL     1     -40.983  59.744 -53.990  1.00  0.00     0.192 HD
BRANCH  13  16
HETATM   16  C   UNL     1     -42.760  60.738 -52.405  1.00  0.00     0.227 C 
BRANCH  16  17
HETATM   17  N   UNL     1     -42.378  59.433 -51.897  1.00  0.00    -0.348 N 
HETATM   18  C   UNL     1     -43.317  58.476 -51.596  1.00  0.00     0.254 C 
HETATM   19  O   UNL     1     -44.517  58.644 -51.776  1.00  0.00    -0.268 OA
HETATM   20  H   UNL     1     -41.402  59.282 -51.653  1.00  0.00     0.163 HD
BRANCH  18  21
HETATM   21  C   UNL     1     -42.799  57.217 -51.012  1.00  0.00     0.065 A 
HETATM   22  C   UNL     1     -43.624  56.132 -50.689  1.00  0.00     0.081 A 
HETATM   23  C   UNL     1     -43.069  54.944 -50.216  1.00  0.00     0.037 A 
HETATM   24  C   UNL     1     -41.689  54.843 -50.034  1.00  0.00     0.003 A 
HETATM   25  C   UNL     1     -40.863  55.931 -50.320  1.00  0.00     0.001 A 
HETATM   26  C   UNL     1     -41.417  57.117 -50.805  1.00  0.00     0.020 A 
BRANCH  22  27
HETATM   27  O   UNL     1     -44.987  56.165 -50.793  1.00  0.00    -0.360 OA
HETATM   28  H   UNL     1     -45.372  55.737 -50.005  1.00  0.00     0.217 HD
ENDBRANCH  22  27
ENDBRANCH  18  21
ENDBRANCH  16  17
ENDBRANCH  13  16
ENDBRANCH   5  12
BRANCH   1  29
HETATM   29  C   UNL     1     -43.075  55.243 -56.397  1.00  0.00     0.171 C 
BRANCH  29  30
HETATM   30  C   UNL     1     -42.159  54.576 -55.398  1.00  0.00    -0.040 A 
HETATM   31  C   UNL     1     -42.668  54.084 -54.186  1.00  0.00     0.009 A 
HETATM   32  C   UNL     1     -41.825  53.469 -53.259  1.00  0.00     0.001 A 
HETATM   33  C   UNL     1     -40.465  53.338 -53.532  1.00  0.00     0.000 A 
HETATM   34  C   UNL     1     -39.947  53.818 -54.732  1.00  0.00     0.001 A 
HETATM   35  C   UNL     1     -40.789  54.431 -55.662  1.00  0.00     0.009 A 
ENDBRANCH  29  30
ENDBRANCH   1  29
TORSDOF 7
ENDMDL
MODEL 4
REMARK VINA RESULT:      -8.9      2.016      7.301
REMARK  7 active torsions:
REMARK  status: ('A' for Active; 'I' for Inactive)
REMARK    1  A    between atoms: C_4  and  C_5 
REMARK    2  A    between atoms: C_5  and  N_6 
REMARK    3  A    between atoms: N_10  and  N_11 
REMARK       I    between atoms: N_11  and  C_12 
REMARK    4  A    between atoms: C_12  and  C_13 
REMARK    5  A    between atoms: C_13  and  N_14 
REMARK       I    between atoms: N_14  and  C_15 
REMARK    6  A    between atoms: C_15  and  C_16 
REMARK    7  A    between atoms: C_17  and  O_18 
ROOT
HETATM    1  N   UNL     1     -42.383  56.536 -53.292  1.00  0.00    -0.307 N 
HETATM    2  C   UNL     1     -42.456  57.320 -54.429  1.00  0.00     0.280 A 
HETATM    3  O   UNL     1     -42.922  57.077 -55.522  1.00  0.00    -0.265 OA
HETATM    4  C   UNL     1     -41.808  58.648 -54.055  1.00  0.00     0.157 A 
HETATM    5  N   UNL     1     -41.601  59.694 -54.790  1.00  0.00    -0.166 NA
HETATM    6  C   UNL     1     -41.417  58.527 -52.657  1.00  0.00     0.027 A 
HETATM    7  C   UNL     1     -41.773  57.245 -52.242  1.00  0.00     0.050 A 
HETATM    8  C   UNL     1     -40.788  59.441 -51.832  1.00  0.00     0.016 A 
HETATM    9  C   UNL     1     -40.512  59.033 -50.528  1.00  0.00     0.001 A 
HETATM   10  C   UNL     1     -40.866  57.742 -50.091  1.00  0.00     0.002 A 
HETATM   11  C   UNL     1     -41.501  56.834 -50.950  1.00  0.00     0.031 A 
ENDROOT
BRANCH   5  12
HETATM   12  N   UNL     1     -41.979  59.641 -56.102  1.00  0.00    -0.245 N 
HETATM   13  C   UNL     1     -43.013  60.461 -56.534  1.00  0.00     0.255 C 
HETATM   14  O   UNL     1     -43.687  61.193 -55.809  1.00  0.00    -0.270 OA
HETATM   15  H   UNL     1     -41.468  59.045 -56.765  1.00  0.00     0.192 HD
BRANCH  13  16
HETATM   16  C   UNL     1     -43.269  60.389 -58.034  1.00  0.00     0.227 C 
BRANCH  16  17
HETATM   17  N   UNL     1     -43.777  59.084 -58.417  1.00  0.00    -0.348 N 
HETATM   18  C   UNL     1     -42.942  58.099 -58.887  1.00  0.00     0.254 C 
HETATM   19  O   UNL     1     -41.729  58.241 -58.970  1.00  0.00    -0.268 OA
HETATM   20  H   UNL     1     -44.785  58.952 -58.445  1.00  0.00     0.163 HD
BRANCH  18  21
HETATM   21  C   UNL     1     -43.598  56.842 -59.317  1.00  0.00     0.065 A 
HETATM   22  C   UNL     1     -43.370  55.611 -58.688  1.00  0.00     0.081 A 
HETATM   23  C   UNL     1     -44.077  54.478 -59.086  1.00  0.00     0.037 A 
HETATM   24  C   UNL     1     -44.993  54.560 -60.136  1.00  0.00     0.003 A 
HETATM   25  C   UNL     1     -45.201  55.775 -60.791  1.00  0.00     0.001 A 
HETATM   26  C   UNL     1     -44.502  56.913 -60.385  1.00  0.00     0.020 A 
BRANCH  22  27
HETATM   27  O   UNL     1     -42.457  55.435 -57.686  1.00  0.00    -0.360 OA
HETATM   28  H   UNL     1     -42.852  55.734 -56.845  1.00  0.00     0.217 HD
ENDBRANCH  22  27
ENDBRANCH  18  21
ENDBRANCH  16  17
ENDBRANCH  13  16
ENDBRANCH   5  12
BRANCH   1  29
HETATM   29  C   UNL     1     -42.910  55.194 -53.203  1.00  0.00     0.171 C 
BRANCH  29  30
HETATM   30  C   UNL     1     -41.841  54.134 -53.333  1.00  0.00    -0.040 A 
HETATM   31  C   UNL     1     -41.303  53.525 -52.189  1.00  0.00     0.009 A 
HETATM   32  C   UNL     1     -40.314  52.546 -52.304  1.00  0.00     0.001 A 
HETATM   33  C   UNL     1     -39.851  52.166 -53.562  1.00  0.00     0.000 A 
HETATM   34  C   UNL     1     -40.380  52.759 -54.706  1.00  0.00     0.001 A 
HETATM   35  C   UNL     1     -41.372  53.736 -54.593  1.00  0.00     0.009 A 
ENDBRANCH  29  30
ENDBRANCH   1  29
TORSDOF 7
ENDMDL
MODEL 5
REMARK VINA RESULT:      -8.3      2.301      8.887
REMARK  7 active torsions:
REMARK  status: ('A' for Active; 'I' for Inactive)
REMARK    1  A    between atoms: C_4  and  C_5 
REMARK    2  A    between atoms: C_5  and  N_6 
REMARK    3  A    between atoms: N_10  and  N_11 
REMARK       I    between atoms: N_11  and  C_12 
REMARK    4  A    between atoms: C_12  and  C_13 
REMARK    5  A    between atoms: C_13  and  N_14 
REMARK       I    between atoms: N_14  and  C_15 
REMARK    6  A    between atoms: C_15  and  C_16 
REMARK    7  A    between atoms: C_17  and  O_18 
ROOT
HETATM    1  N   UNL     1     -42.698  55.870 -53.035  1.00  0.00    -0.307 N 
HETATM    2  C   UNL     1     -42.916  56.437 -54.277  1.00  0.00     0.280 A 
HETATM    3  O   UNL     1     -43.547  57.426 -54.589  1.00  0.00    -0.265 OA
HETATM    4  C   UNL     1     -42.173  55.552 -55.271  1.00  0.00     0.157 A 
HETATM    5  N   UNL     1     -42.107  55.646 -56.560  1.00  0.00    -0.166 NA
HETATM    6  C   UNL     1     -41.532  54.509 -54.481  1.00  0.00     0.027 A 
HETATM    7  C   UNL     1     -41.878  54.732 -53.150  1.00  0.00     0.050 A 
HETATM    8  C   UNL     1     -40.743  53.450 -54.889  1.00  0.00     0.016 A 
HETATM    9  C   UNL     1     -40.283  52.584 -53.899  1.00  0.00     0.001 A 
HETATM   10  C   UNL     1     -40.621  52.795 -52.548  1.00  0.00     0.002 A 
HETATM   11  C   UNL     1     -41.427  53.877 -52.163  1.00  0.00     0.031 A 
ENDROOT
BRANCH   5  12
HETATM   12  N   UNL     1     -42.803  56.651 -57.168  1.00  0.00    -0.245 N 
HETATM   13  C   UNL     1     -43.026  56.579 -58.536  1.00  0.00     0.255 C 
HETATM   14  O   UNL     1     -42.577  55.709 -59.283  1.00  0.00    -0.270 OA
HETATM   15  H   UNL     1     -43.200  57.418 -56.610  1.00  0.00     0.192 HD
BRANCH  13  16
HETATM   16  C   UNL     1     -43.902  57.702 -59.077  1.00  0.00     0.227 C 
BRANCH  16  17
HETATM   17  N   UNL     1     -43.097  58.766 -59.650  1.00  0.00    -0.348 N 
HETATM   18  C   UNL     1     -42.568  59.765 -58.868  1.00  0.00     0.254 C 
HETATM   19  O   UNL     1     -42.701  59.798 -57.652  1.00  0.00    -0.268 OA
HETATM   20  H   UNL     1     -43.033  58.825 -60.663  1.00  0.00     0.163 HD
BRANCH  18  21
HETATM   21  C   UNL     1     -41.833  60.832 -59.587  1.00  0.00     0.065 A 
HETATM   22  C   UNL     1     -40.961  61.720 -58.945  1.00  0.00     0.081 A 
HETATM   23  C   UNL     1     -40.236  62.652 -59.686  1.00  0.00     0.037 A 
HETATM   24  C   UNL     1     -40.402  62.723 -61.070  1.00  0.00     0.003 A 
HETATM   25  C   UNL     1     -41.295  61.866 -61.714  1.00  0.00     0.001 A 
HETATM   26  C   UNL     1     -42.012  60.924 -60.974  1.00  0.00     0.020 A 
BRANCH  22  27
HETATM   27  O   UNL     1     -40.777  61.749 -57.590  1.00  0.00    -0.360 OA
HETATM   28  H   UNL     1     -41.460  62.322 -57.193  1.00  0.00     0.217 HD
ENDBRANCH  22  27
ENDBRANCH  18  21
ENDBRANCH  16  17
ENDBRANCH  13  16
ENDBRANCH   5  12
BRANCH   1  29
HETATM   29  C   UNL     1     -43.209  56.414 -51.799  1.00  0.00     0.171 C 
BRANCH  29  30
HETATM   30  C   UNL     1     -42.450  57.636 -51.337  1.00  0.00    -0.040 A 
HETATM   31  C   UNL     1     -41.123  57.522 -50.895  1.00  0.00     0.009 A 
HETATM   32  C   UNL     1     -40.418  58.648 -50.466  1.00  0.00     0.001 A 
HETATM   33  C   UNL     1     -41.030  59.900 -50.473  1.00  0.00     0.000 A 
HETATM   34  C   UNL     1     -42.346  60.027 -50.913  1.00  0.00     0.001 A 
HETATM   35  C   UNL     1     -43.051  58.903 -51.346  1.00  0.00     0.009 A 
ENDBRANCH  29  30
ENDBRANCH   1  29
TORSDOF 7
ENDMDL
MODEL 6
REMARK VINA RESULT:      -8.2      2.011      2.938
REMARK  7 active torsions:
REMARK  status: ('A' for Active; 'I' for Inactive)
REMARK    1  A    between atoms: C_4  and  C_5 
REMARK    2  A    between atoms: C_5  and  N_6 
REMARK    3  A    between atoms: N_10  and  N_11 
REMARK       I    between atoms: N_11  and  C_12 
REMARK    4  A    between atoms: C_12  and  C_13 
REMARK    5  A    between atoms: C_13  and  N_14 
REMARK       I    between atoms: N_14  and  C_15 
REMARK    6  A    between atoms: C_15  and  C_16 
REMARK    7  A    between atoms: C_17  and  O_18 
ROOT
HETATM    1  N   UNL     1     -42.875  58.215 -56.571  1.00  0.00    -0.307 N 
HETATM    2  C   UNL     1     -42.609  57.747 -55.296  1.00  0.00     0.280 A 
HETATM    3  O   UNL     1     -41.811  56.916 -54.915  1.00  0.00    -0.265 OA
HETATM    4  C   UNL     1     -43.554  58.509 -54.373  1.00  0.00     0.157 A 
HETATM    5  N   UNL     1     -43.712  58.399 -53.093  1.00  0.00    -0.166 NA
HETATM    6  C   UNL     1     -44.307  59.418 -55.227  1.00  0.00     0.027 A 
HETATM    7  C   UNL     1     -43.875  59.203 -56.535  1.00  0.00     0.050 A 
HETATM    8  C   UNL     1     -45.294  60.327 -54.897  1.00  0.00     0.016 A 
HETATM    9  C   UNL     1     -45.863  61.052 -55.942  1.00  0.00     0.001 A 
HETATM   10  C   UNL     1     -45.438  60.851 -57.270  1.00  0.00     0.002 A 
HETATM   11  C   UNL     1     -44.435  59.918 -57.576  1.00  0.00     0.031 A 
ENDROOT
BRANCH   5  12
HETATM   12  N   UNL     1     -42.967  57.465 -52.432  1.00  0.00    -0.245 N 
HETATM   13  C   UNL     1     -42.200  57.866 -51.346  1.00  0.00     0.255 C 
HETATM   14  O   UNL     1     -42.069  59.029 -50.963  1.00  0.00    -0.270 OA
HETATM   15  H   UNL     1     -43.018  56.475 -52.702  1.00  0.00     0.192 HD
BRANCH  13  16
HETATM   16  C   UNL     1     -41.500  56.718 -50.629  1.00  0.00     0.227 C 
BRANCH  16  17
HETATM   17  N   UNL     1     -41.239  55.615 -51.535  1.00  0.00    -0.348 N 
HETATM   18  C   UNL     1     -41.159  54.320 -51.084  1.00  0.00     0.254 C 
HETATM   19  O   UNL     1     -41.343  54.011 -49.914  1.00  0.00    -0.268 OA
HETATM   20  H   UNL     1     -40.995  55.834 -52.498  1.00  0.00     0.163 HD
BRANCH  18  21
HETATM   21  C   UNL     1     -40.809  53.298 -52.100  1.00  0.00     0.065 A 
HETATM   22  C   UNL     1     -41.324  53.314 -53.402  1.00  0.00     0.081 A 
HETATM   23  C   UNL     1     -40.897  52.373 -54.337  1.00  0.00     0.037 A 
HETATM   24  C   UNL     1     -39.976  51.392 -53.968  1.00  0.00     0.003 A 
HETATM   25  C   UNL     1     -39.484  51.347 -52.663  1.00  0.00     0.001 A 
HETATM   26  C   UNL     1     -39.903  52.297 -51.729  1.00  0.00     0.020 A 
BRANCH  22  27
HETATM   27  O   UNL     1     -42.263  54.211 -53.831  1.00  0.00    -0.360 OA
HETATM   28  H   UNL     1     -42.975  53.725 -54.288  1.00  0.00     0.217 HD
ENDBRANCH  22  27
ENDBRANCH  18  21
ENDBRANCH  16  17
ENDBRANCH  13  16
ENDBRANCH   5  12
BRANCH   1  29
HETATM   29  C   UNL     1     -42.177  57.770 -57.754  1.00  0.00     0.171 C 
BRANCH  29  30
HETATM   30  C   UNL     1     -42.991  56.810 -58.590  1.00  0.00    -0.040 A 
HETATM   31  C   UNL     1     -43.235  55.504 -58.137  1.00  0.00     0.009 A 
HETATM   32  C   UNL     1     -43.984  54.613 -58.906  1.00  0.00     0.001 A 
HETATM   33  C   UNL     1     -44.499  55.016 -60.137  1.00  0.00     0.000 A 
HETATM   34  C   UNL     1     -44.269  56.311 -60.597  1.00  0.00     0.001 A 
HETATM   35  C   UNL     1     -43.521  57.204 -59.827  1.00  0.00     0.009 A 
ENDBRANCH  29  30
ENDBRANCH   1  29
TORSDOF 7
ENDMDL
MODEL 7
REMARK VINA RESULT:      -8.2      1.809      4.404
REMARK  7 active torsions:
REMARK  status: ('A' for Active; 'I' for Inactive)
REMARK    1  A    between atoms: C_4  and  C_5 
REMARK    2  A    between atoms: C_5  and  N_6 
REMARK    3  A    between atoms: N_10  and  N_11 
REMARK       I    between atoms: N_11  and  C_12 
REMARK    4  A    between atoms: C_12  and  C_13 
REMARK    5  A    between atoms: C_13  and  N_14 
REMARK       I    between atoms: N_14  and  C_15 
REMARK    6  A    between atoms: C_15  and  C_16 
REMARK    7  A    between atoms: C_17  and  O_18 
ROOT
HETATM    1  N   UNL     1     -43.579  59.664 -57.649  1.00  0.00    -0.307 N 
HETATM    2  C   UNL     1     -42.953  58.824 -56.745  1.00  0.00     0.280 A 
HETATM    3  O   UNL     1     -42.249  59.081 -55.791  1.00  0.00    -0.265 OA
HETATM    4  C   UNL     1     -43.322  57.409 -57.175  1.00  0.00     0.157 A 
HETATM    5  N   UNL     1     -42.951  56.276 -56.669  1.00  0.00    -0.166 NA
HETATM    6  C   UNL     1     -44.197  57.553 -58.332  1.00  0.00     0.027 A 
HETATM    7  C   UNL     1     -44.317  58.918 -58.585  1.00  0.00     0.050 A 
HETATM    8  C   UNL     1     -44.807  56.584 -59.105  1.00  0.00     0.016 A 
HETATM    9  C   UNL     1     -45.578  57.024 -60.180  1.00  0.00     0.001 A 
HETATM   10  C   UNL     1     -45.713  58.399 -60.451  1.00  0.00     0.002 A 
HETATM   11  C   UNL     1     -45.079  59.361 -59.651  1.00  0.00     0.031 A 
ENDROOT
BRANCH   5  12
HETATM   12  N   UNL     1     -42.086  56.298 -55.612  1.00  0.00    -0.245 N 
HETATM   13  C   UNL     1     -42.468  55.692 -54.423  1.00  0.00     0.255 C 
HETATM   14  O   UNL     1     -43.571  55.191 -54.204  1.00  0.00    -0.270 OA
HETATM   15  H   UNL     1     -41.150  56.709 -55.717  1.00  0.00     0.192 HD
BRANCH  13  16
HETATM   16  C   UNL     1     -41.379  55.690 -53.356  1.00  0.00     0.227 C 
BRANCH  16  17
HETATM   17  N   UNL     1     -40.983  54.337 -53.011  1.00  0.00    -0.348 N 
HETATM   18  C   UNL     1     -40.281  53.549 -53.891  1.00  0.00     0.254 C 
HETATM   19  O   UNL     1     -39.912  53.945 -54.989  1.00  0.00    -0.268 OA
HETATM   20  H   UNL     1     -41.342  53.940 -52.147  1.00  0.00     0.163 HD
BRANCH  18  21
HETATM   21  C   UNL     1     -40.009  52.161 -53.446  1.00  0.00     0.065 A 
HETATM   22  C   UNL     1     -39.702  51.836 -52.119  1.00  0.00     0.081 A 
HETATM   23  C   UNL     1     -39.535  50.504 -51.743  1.00  0.00     0.037 A 
HETATM   24  C   UNL     1     -39.643  49.492 -52.698  1.00  0.00     0.003 A 
HETATM   25  C   UNL     1     -39.914  49.810 -54.029  1.00  0.00     0.001 A 
HETATM   26  C   UNL     1     -40.094  51.143 -54.404  1.00  0.00     0.020 A 
BRANCH  22  27
HETATM   27  O   UNL     1     -39.533  52.769 -51.133  1.00  0.00    -0.360 OA
HETATM   28  H   UNL     1     -39.031  53.522 -51.498  1.00  0.00     0.217 HD
ENDBRANCH  22  27
ENDBRANCH  18  21
ENDBRANCH  16  17
ENDBRANCH  13  16
ENDBRANCH   5  12
BRANCH   1  29
HETATM   29  C   UNL     1     -43.511  61.105 -57.589  1.00  0.00     0.171 C 
BRANCH  29  30
HETATM   30  C   UNL     1     -42.442  61.679 -58.490  1.00  0.00    -0.040 A 
HETATM   31  C   UNL     1     -41.120  61.797 -58.037  1.00  0.00     0.009 A 
HETATM   32  C   UNL     1     -40.129  62.329 -58.865  1.00  0.00     0.001 A 
HETATM   33  C   UNL     1     -40.450  62.749 -60.155  1.00  0.00     0.000 A 
HETATM   34  C   UNL     1     -41.758  62.633 -60.619  1.00  0.00     0.001 A 
HETATM   35  C   UNL     1     -42.749  62.099 -59.793  1.00  0.00     0.009 A 
ENDBRANCH  29  30
ENDBRANCH   1  29
TORSDOF 7
ENDMDL
MODEL 8
REMARK VINA RESULT:      -8.2     16.775     19.544
REMARK  7 active torsions:
REMARK  status: ('A' for Active; 'I' for Inactive)
REMARK    1  A    between atoms: C_4  and  C_5 
REMARK    2  A    between atoms: C_5  and  N_6 
REMARK    3  A    between atoms: N_10  and  N_11 
REMARK       I    between atoms: N_11  and  C_12 
REMARK    4  A    between atoms: C_12  and  C_13 
REMARK    5  A    between atoms: C_13  and  N_14 
REMARK       I    between atoms: N_14  and  C_15 
REMARK    6  A    between atoms: C_15  and  C_16 
REMARK    7  A    between atoms: C_17  and  O_18 
ROOT
HETATM    1  N   UNL     1     -35.471  41.129 -56.840  1.00  0.00    -0.307 N 
HETATM    2  C   UNL     1     -34.803  39.929 -56.671  1.00  0.00     0.280 A 
HETATM    3  O   UNL     1     -34.099  39.543 -55.761  1.00  0.00    -0.265 OA
HETATM    4  C   UNL     1     -35.121  39.103 -57.912  1.00  0.00     0.157 A 
HETATM    5  N   UNL     1     -34.701  37.923 -58.240  1.00  0.00    -0.166 NA
HETATM    6  C   UNL     1     -36.013  39.920 -58.724  1.00  0.00     0.027 A 
HETATM    7  C   UNL     1     -36.190  41.127 -58.048  1.00  0.00     0.050 A 
HETATM    8  C   UNL     1     -36.594  39.647 -59.948  1.00  0.00     0.016 A 
HETATM    9  C   UNL     1     -37.392  40.644 -60.507  1.00  0.00     0.001 A 
HETATM   10  C   UNL     1     -37.584  41.869 -59.838  1.00  0.00     0.002 A 
HETATM   11  C   UNL     1     -36.979  42.120 -58.598  1.00  0.00     0.031 A 
ENDROOT
BRANCH   5  12
HETATM   12  N   UNL     1     -33.826  37.296 -57.399  1.00  0.00    -0.245 N 
HETATM   13  C   UNL     1     -32.475  37.296 -57.718  1.00  0.00     0.255 C 
HETATM   14  O   UNL     1     -31.991  37.754 -58.753  1.00  0.00    -0.270 OA
HETATM   15  H   UNL     1     -34.159  36.881 -56.521  1.00  0.00     0.192 HD
BRANCH  13  16
HETATM   16  C   UNL     1     -31.591  36.658 -56.653  1.00  0.00     0.227 C 
BRANCH  16  17
HETATM   17  N   UNL     1     -31.927  37.150 -55.329  1.00  0.00    -0.348 N 
HETATM   18  C   UNL     1     -31.306  38.254 -54.795  1.00  0.00     0.254 C 
HETATM   19  O   UNL     1     -30.473  38.909 -55.408  1.00  0.00    -0.268 OA
HETATM   20  H   UNL     1     -32.548  36.588 -54.754  1.00  0.00     0.163 HD
BRANCH  18  21
HETATM   21  C   UNL     1     -31.684  38.603 -53.405  1.00  0.00     0.065 A 
HETATM   22  C   UNL     1     -32.068  39.895 -53.024  1.00  0.00     0.081 A 
HETATM   23  C   UNL     1     -32.490  40.146 -51.719  1.00  0.00     0.037 A 
HETATM   24  C   UNL     1     -32.502  39.114 -50.780  1.00  0.00     0.003 A 
HETATM   25  C   UNL     1     -32.088  37.831 -51.143  1.00  0.00     0.001 A 
HETATM   26  C   UNL     1     -31.677  37.576 -52.452  1.00  0.00     0.020 A 
BRANCH  22  27
HETATM   27  O   UNL     1     -32.040  40.970 -53.869  1.00  0.00    -0.360 OA
HETATM   28  H   UNL     1     -31.137  41.063 -54.228  1.00  0.00     0.217 HD
ENDBRANCH  22  27
ENDBRANCH  18  21
ENDBRANCH  16  17
ENDBRANCH  13  16
ENDBRANCH   5  12
BRANCH   1  29
HETATM   29  C   UNL     1     -35.458  42.200 -55.872  1.00  0.00     0.171 C 
BRANCH  29  30
HETATM   30  C   UNL     1     -36.104  41.816 -54.562  1.00  0.00    -0.040 A 
HETATM   31  C   UNL     1     -35.390  41.927 -53.359  1.00  0.00     0.009 A 
HETATM   32  C   UNL     1     -35.982  41.571 -52.146  1.00  0.00     0.001 A 
HETATM   33  C   UNL     1     -37.294  41.101 -52.121  1.00  0.00     0.000 A 
HETATM   34  C   UNL     1     -38.015  40.990 -53.307  1.00  0.00     0.001 A 
HETATM   35  C   UNL     1     -37.426  41.349 -54.521  1.00  0.00     0.009 A 
ENDBRANCH  29  30
ENDBRANCH   1  29
TORSDOF 7
ENDMDL
MODEL 9
REMARK VINA RESULT:      -8.1      2.648      8.843
REMARK  7 active torsions:
REMARK  status: ('A' for Active; 'I' for Inactive)
REMARK    1  A    between atoms: C_4  and  C_5 
REMARK    2  A    between atoms: C_5  and  N_6 
REMARK    3  A    between atoms: N_10  and  N_11 
REMARK       I    between atoms: N_11  and  C_12 
REMARK    4  A    between atoms: C_12  and  C_13 
REMARK    5  A    between atoms: C_13  and  N_14 
REMARK       I    between atoms: N_14  and  C_15 
REMARK    6  A    between atoms: C_15  and  C_16 
REMARK    7  A    between atoms: C_17  and  O_18 
ROOT
HETATM    1  N   UNL     1     -42.485  55.455 -52.657  1.00  0.00    -0.307 N 
HETATM    2  C   UNL     1     -43.119  55.630 -53.874  1.00  0.00     0.280 A 
HETATM    3  O   UNL     1     -43.745  54.843 -54.554  1.00  0.00    -0.265 OA
HETATM    4  C   UNL     1     -42.890  57.089 -54.252  1.00  0.00     0.157 A 
HETATM    5  N   UNL     1     -43.255  57.725 -55.319  1.00  0.00    -0.166 NA
HETATM    6  C   UNL     1     -42.128  57.675 -53.157  1.00  0.00     0.027 A 
HETATM    7  C   UNL     1     -41.900  56.661 -52.228  1.00  0.00     0.050 A 
HETATM    8  C   UNL     1     -41.655  58.964 -52.999  1.00  0.00     0.016 A 
HETATM    9  C   UNL     1     -40.923  59.233 -51.844  1.00  0.00     0.001 A 
HETATM   10  C   UNL     1     -40.685  58.222 -50.893  1.00  0.00     0.002 A 
HETATM   11  C   UNL     1     -41.174  56.921 -51.081  1.00  0.00     0.031 A 
ENDROOT
BRANCH   5  12
HETATM   12  N   UNL     1     -43.924  57.029 -56.285  1.00  0.00    -0.245 N 
HETATM   13  C   UNL     1     -43.324  56.862 -57.526  1.00  0.00     0.255 C 
HETATM   14  O   UNL     1     -42.252  57.362 -57.868  1.00  0.00    -0.270 OA
HETATM   15  H   UNL     1     -44.829  56.591 -56.075  1.00  0.00     0.192 HD
BRANCH  13  16
HETATM   16  C   UNL     1     -44.120  55.981 -58.480  1.00  0.00     0.227 C 
BRANCH  16  17
HETATM   17  N   UNL     1     -45.211  56.719 -59.091  1.00  0.00    -0.348 N 
HETATM   18  C   UNL     1     -45.869  56.241 -60.198  1.00  0.00     0.254 C 
HETATM   19  O   UNL     1     -45.612  55.159 -60.708  1.00  0.00    -0.268 OA
HETATM   20  H   UNL     1     -45.400  57.659 -58.753  1.00  0.00     0.163 HD
BRANCH  18  21
HETATM   21  C   UNL     1     -46.910  57.130 -60.769  1.00  0.00     0.065 A 
HETATM   22  C   UNL     1     -46.990  58.496 -60.471  1.00  0.00     0.081 A 
HETATM   23  C   UNL     1     -47.941  59.297 -61.100  1.00  0.00     0.037 A 
HETATM   24  C   UNL     1     -48.838  58.733 -62.007  1.00  0.00     0.003 A 
HETATM   25  C   UNL     1     -48.788  57.365 -62.284  1.00  0.00     0.001 A 
HETATM   26  C   UNL     1     -47.828  56.564 -61.664  1.00  0.00     0.020 A 
BRANCH  22  27
HETATM   27  O   UNL     1     -46.181  59.117 -59.559  1.00  0.00    -0.360 OA
HETATM   28  H   UNL     1     -46.151  58.577 -58.747  1.00  0.00     0.217 HD
ENDBRANCH  22  27
ENDBRANCH  18  21
ENDBRANCH  16  17
ENDBRANCH  13  16
ENDBRANCH   5  12
BRANCH   1  29
HETATM   29  C   UNL     1     -42.478  54.212 -51.923  1.00  0.00     0.171 C 
BRANCH  29  30
HETATM   30  C   UNL     1     -41.366  53.283 -52.353  1.00  0.00    -0.040 A 
HETATM   31  C   UNL     1     -41.224  52.922 -53.701  1.00  0.00     0.009 A 
HETATM   32  C   UNL     1     -40.199  52.063 -54.102  1.00  0.00     0.001 A 
HETATM   33  C   UNL     1     -39.306  51.555 -53.161  1.00  0.00     0.000 A 
HETATM   34  C   UNL     1     -39.433  51.909 -51.820  1.00  0.00     0.001 A 
HETATM   35  C   UNL     1     -40.456  52.771 -51.417  1.00  0.00     0.009 A 
ENDBRANCH  29  30
ENDBRANCH   1  29
TORSDOF 7
ENDMDL
MODEL 10
REMARK VINA RESULT:      -8.0      2.636      8.393
REMARK  7 active torsions:
REMARK  status: ('A' for Active; 'I' for Inactive)
REMARK    1  A    between atoms: C_4  and  C_5 
REMARK    2  A    between atoms: C_5  and  N_6 
REMARK    3  A    between atoms: N_10  and  N_11 
REMARK       I    between atoms: N_11  and  C_12 
REMARK    4  A    between atoms: C_12  and  C_13 
REMARK    5  A    between atoms: C_13  and  N_14 
REMARK       I    between atoms: N_14  and  C_15 
REMARK    6  A    between atoms: C_15  and  C_16 
REMARK    7  A    between atoms: C_17  and  O_18 
ROOT
HETATM    1  N   UNL     1     -42.815  55.382 -52.929  1.00  0.00    -0.307 N 
HETATM    2  C   UNL     1     -43.287  55.832 -54.149  1.00  0.00     0.280 A 
HETATM    3  O   UNL     1     -44.102  56.693 -54.408  1.00  0.00    -0.265 OA
HETATM    4  C   UNL     1     -42.555  55.007 -55.202  1.00  0.00     0.157 A 
HETATM    5  N   UNL     1     -42.679  55.030 -56.491  1.00  0.00    -0.166 NA
HETATM    6  C   UNL     1     -41.657  54.124 -54.471  1.00  0.00     0.027 A 
HETATM    7  C   UNL     1     -41.851  54.376 -53.113  1.00  0.00     0.050 A 
HETATM    8  C   UNL     1     -40.773  53.172 -54.944  1.00  0.00     0.016 A 
HETATM    9  C   UNL     1     -40.053  52.448 -53.995  1.00  0.00     0.001 A 
HETATM   10  C   UNL     1     -40.234  52.690 -52.619  1.00  0.00     0.002 A 
HETATM   11  C   UNL     1     -41.141  53.661 -52.167  1.00  0.00     0.031 A 
ENDROOT
BRANCH   5  12
HETATM   12  N   UNL     1     -43.600  55.879 -57.033  1.00  0.00    -0.245 N 
HETATM   13  C   UNL     1     -43.527  56.170 -58.388  1.00  0.00     0.255 C 
HETATM   14  O   UNL     1     -42.640  55.782 -59.149  1.00  0.00    -0.270 OA
HETATM   15  H   UNL     1     -44.365  56.252 -56.456  1.00  0.00     0.192 HD
BRANCH  13  16
HETATM   16  C   UNL     1     -44.669  57.043 -58.893  1.00  0.00     0.227 C 
BRANCH  16  17
HETATM   17  N   UNL     1     -44.942  58.134 -57.975  1.00  0.00    -0.348 N 
HETATM   18  C   UNL     1     -43.973  59.049 -57.641  1.00  0.00     0.254 C 
HETATM   19  O   UNL     1     -42.847  59.030 -58.121  1.00  0.00    -0.268 OA
HETATM   20  H   UNL     1     -45.834  58.138 -57.488  1.00  0.00     0.163 HD
BRANCH  18  21
HETATM   21  C   UNL     1     -44.359  60.065 -56.633  1.00  0.00     0.065 A 
HETATM   22  C   UNL     1     -45.221  59.787 -55.565  1.00  0.00     0.081 A 
HETATM   23  C   UNL     1     -45.484  60.761 -54.603  1.00  0.00     0.037 A 
HETATM   24  C   UNL     1     -44.912  62.028 -54.720  1.00  0.00     0.003 A 
HETATM   25  C   UNL     1     -44.079  62.325 -55.799  1.00  0.00     0.001 A 
HETATM   26  C   UNL     1     -43.805  61.346 -56.757  1.00  0.00     0.020 A 
BRANCH  22  27
HETATM   27  O   UNL     1     -45.859  58.588 -55.404  1.00  0.00    -0.360 OA
HETATM   28  H   UNL     1     -45.189  57.879 -55.363  1.00  0.00     0.217 HD
ENDBRANCH  22  27
ENDBRANCH  18  21
ENDBRANCH  16  17
ENDBRANCH  13  16
ENDBRANCH   5  12
BRANCH   1  29
HETATM   29  C   UNL     1     -43.235  55.919 -51.656  1.00  0.00     0.171 C 
BRANCH  29  30
HETATM   30  C   UNL     1     -42.561  57.230 -51.322  1.00  0.00    -0.040 A 
HETATM   31  C   UNL     1     -43.265  58.439 -51.434  1.00  0.00     0.009 A 
HETATM   32  C   UNL     1     -42.647  59.652 -51.128  1.00  0.00     0.001 A 
HETATM   33  C   UNL     1     -41.319  59.672 -50.707  1.00  0.00     0.000 A 
HETATM   34  C   UNL     1     -40.610  58.479 -50.587  1.00  0.00     0.001 A 
HETATM   35  C   UNL     1     -41.228  57.264 -50.890  1.00  0.00     0.009 A 
ENDBRANCH  29  30
ENDBRANCH   1  29
TORSDOF 7
ENDMDL
