MODEL 1
REMARK VINA RESULT:      -8.3      0.000      0.000
REMARK  6 active torsions:
REMARK  status: ('A' for Active; 'I' for Inactive)
REMARK    1  A    between atoms: C_2  and  O_3 
REMARK    2  A    between atoms: O_3  and  C_4 
REMARK    3  A    between atoms: C_5  and  O_6 
REMARK    4  A    between atoms: O_6  and  C_7 
REMARK    5  A    between atoms: C_7  and  C_8 
REMARK    6  A    between atoms: C_18  and  C_19 
ROOT
HETATM    1  C   UNL     1     -42.093  57.982 -51.358  1.00  0.00     0.103 A 
HETATM    2  C   UNL     1     -42.080  56.779 -52.065  1.00  0.00     0.112 A 
HETATM    3  C   UNL     1     -43.119  56.436 -52.925  1.00  0.00     0.041 A 
HETATM    4  C   UNL     1     -44.130  57.363 -53.176  1.00  0.00     0.014 A 
HETATM    5  C   UNL     1     -44.108  58.640 -52.574  1.00  0.00    -0.013 A 
HETATM    6  C   UNL     1     -43.099  58.912 -51.627  1.00  0.00     0.050 A 
ENDROOT
BRANCH   5   7
HETATM    7  C   UNL     1     -45.123  59.690 -53.026  1.00  0.00     0.219 C 
HETATM    8  N   UNL     1     -44.578  61.019 -53.184  1.00  0.00    -0.332 N 
HETATM    9  C   UNL     1     -43.868  61.404 -54.294  1.00  0.00     0.256 C 
HETATM   10  H   UNL     1     -44.425  61.576 -52.357  1.00  0.00     0.165 HD
HETATM   11  O   UNL     1     -43.147  62.394 -54.291  1.00  0.00    -0.267 OA
HETATM   12  C   UNL     1     -44.015  60.537 -55.451  1.00  0.00     0.073 A 
HETATM   13  C   UNL     1     -44.956  59.535 -55.403  1.00  0.00     0.088 A 
HETATM   14  C   UNL     1     -43.294  60.525 -56.685  1.00  0.00    -0.023 A 
HETATM   15  S   UNL     1     -45.027  58.627 -56.835  1.00  0.00    -0.074 SA
HETATM   16  N   UNL     1     -45.712  59.301 -54.303  1.00  0.00    -0.358 N 
HETATM   17  C   UNL     1     -43.748  59.519 -57.519  1.00  0.00     0.018 A 
HETATM   18  C   UNL     1     -43.178  59.186 -58.853  1.00  0.00     0.281 C 
HETATM   19  N   UNL     1     -42.286  60.309 -59.373  1.00  0.00    -0.070 N 
HETATM   20  C   UNL     1     -41.378  60.859 -58.275  1.00  0.00     0.239 C 
HETATM   21  H   UNL     1     -41.669  59.876 -60.071  1.00  0.00     0.279 HD
HETATM   22  C   UNL     1     -43.061  61.373 -60.094  1.00  0.00     0.270 C 
HETATM   23  C   UNL     1     -42.177  61.439 -57.092  1.00  0.00     0.068 C 
HETATM   24  H   UNL     1     -46.224  58.425 -54.272  1.00  0.00     0.162 HD
ENDBRANCH   5   7
BRANCH   1  25
HETATM   25  O   UNL     1     -41.058  58.213 -50.491  1.00  0.00    -0.349 OA
BRANCH  25  26
HETATM   26  C   UNL     1     -40.589  59.564 -50.467  1.00  0.00     0.171 C 
HETATM   27  C   UNL     1     -39.076  59.538 -50.584  1.00  0.00     0.034 C 
ENDBRANCH  25  26
ENDBRANCH   1  25
BRANCH   2  28
HETATM   28  O   UNL     1     -41.008  55.904 -51.879  1.00  0.00    -0.272 OA
BRANCH  28  29
HETATM   29  C   UNL     1     -41.430  54.720 -51.309  1.00  0.00     0.298 C 
HETATM   30  O   UNL     1     -42.098  54.560 -50.296  1.00  0.00    -0.259 OA
BRANCH  29  31
HETATM   31  C   UNL     1     -40.910  53.585 -52.106  1.00  0.00     0.040 A 
HETATM   32  C   UNL     1     -40.058  52.665 -51.485  1.00  0.00     0.019 A 
HETATM   33  C   UNL     1     -39.602  51.549 -52.191  1.00  0.00     0.020 A 
HETATM   34  C   UNL     1     -40.013  51.352 -53.509  1.00  0.00     0.011 A 
HETATM   35 BR   UNL     1     -39.421  49.827 -54.456  1.00  0.00    -0.051 Br
HETATM   36  C   UNL     1     -40.869  52.262 -54.131  1.00  0.00     0.020 A 
HETATM   37  C   UNL     1     -41.319  53.383 -53.431  1.00  0.00     0.019 A 
ENDBRANCH  29  31
ENDBRANCH  28  29
ENDBRANCH   2  28
TORSDOF 6
ENDMDL
MODEL 2
REMARK VINA RESULT:      -8.1      1.197      1.545
REMARK  6 active torsions:
REMARK  status: ('A' for Active; 'I' for Inactive)
REMARK    1  A    between atoms: C_2  and  O_3 
REMARK    2  A    between atoms: O_3  and  C_4 
REMARK    3  A    between atoms: C_5  and  O_6 
REMARK    4  A    between atoms: O_6  and  C_7 
REMARK    5  A    between atoms: C_7  and  C_8 
REMARK    6  A    between atoms: C_18  and  C_19 
ROOT
HETATM    1  C   UNL     1     -41.852  58.443 -52.901  1.00  0.00     0.103 A 
HETATM    2  C   UNL     1     -42.027  57.096 -53.221  1.00  0.00     0.112 A 
HETATM    3  C   UNL     1     -43.248  56.618 -53.688  1.00  0.00     0.041 A 
HETATM    4  C   UNL     1     -44.276  57.522 -53.956  1.00  0.00     0.014 A 
HETATM    5  C   UNL     1     -44.091  58.908 -53.763  1.00  0.00    -0.013 A 
HETATM    6  C   UNL     1     -42.880  59.344 -53.187  1.00  0.00     0.050 A 
ENDROOT
BRANCH   5   7
HETATM    7  C   UNL     1     -45.169  59.875 -54.253  1.00  0.00     0.219 C 
HETATM    8  N   UNL     1     -44.671  61.164 -54.673  1.00  0.00    -0.332 N 
HETATM    9  C   UNL     1     -44.096  61.373 -55.903  1.00  0.00     0.256 C 
HETATM   10  H   UNL     1     -44.436  61.842 -53.964  1.00  0.00     0.165 HD
HETATM   11  O   UNL     1     -43.398  62.353 -56.132  1.00  0.00    -0.267 OA
HETATM   12  C   UNL     1     -44.356  60.339 -56.889  1.00  0.00     0.073 A 
HETATM   13  C   UNL     1     -45.267  59.355 -56.581  1.00  0.00     0.088 A 
HETATM   14  C   UNL     1     -43.778  60.137 -58.180  1.00  0.00    -0.023 A 
HETATM   15  S   UNL     1     -45.482  58.236 -57.839  1.00  0.00    -0.074 SA
HETATM   16  N   UNL     1     -45.890  59.293 -55.380  1.00  0.00    -0.358 N 
HETATM   17  C   UNL     1     -44.304  59.013 -58.793  1.00  0.00     0.018 A 
HETATM   18  C   UNL     1     -43.881  58.479 -60.116  1.00  0.00     0.281 C 
HETATM   19  N   UNL     1     -43.074  59.510 -60.900  1.00  0.00    -0.070 N 
HETATM   20  C   UNL     1     -42.059  60.224 -60.009  1.00  0.00     0.239 C 
HETATM   21  H   UNL     1     -42.532  58.975 -61.589  1.00  0.00     0.279 HD
HETATM   22  C   UNL     1     -43.944  60.449 -61.683  1.00  0.00     0.270 C 
HETATM   23  C   UNL     1     -42.731  60.978 -58.847  1.00  0.00     0.068 C 
HETATM   24  H   UNL     1     -46.380  58.431 -55.157  1.00  0.00     0.162 HD
ENDBRANCH   5   7
BRANCH   1  25
HETATM   25  O   UNL     1     -40.635  58.816 -52.394  1.00  0.00    -0.349 OA
BRANCH  25  26
HETATM   26  C   UNL     1     -40.638  59.116 -50.995  1.00  0.00     0.171 C 
HETATM   27  C   UNL     1     -39.229  59.520 -50.599  1.00  0.00     0.034 C 
ENDBRANCH  25  26
ENDBRANCH   1  25
BRANCH   2  28
HETATM   28  O   UNL     1     -40.955  56.220 -53.042  1.00  0.00    -0.272 OA
BRANCH  28  29
HETATM   29  C   UNL     1     -41.229  55.298 -52.052  1.00  0.00     0.298 C 
HETATM   30  O   UNL     1     -41.683  55.498 -50.933  1.00  0.00    -0.259 OA
BRANCH  29  31
HETATM   31  C   UNL     1     -40.849  53.948 -52.526  1.00  0.00     0.040 A 
HETATM   32  C   UNL     1     -41.158  53.590 -53.844  1.00  0.00     0.019 A 
HETATM   33  C   UNL     1     -40.756  52.348 -54.342  1.00  0.00     0.020 A 
HETATM   34  C   UNL     1     -40.033  51.478 -53.525  1.00  0.00     0.011 A 
HETATM   35 BR   UNL     1     -39.464  49.811 -54.209  1.00  0.00    -0.051 Br
HETATM   36  C   UNL     1     -39.715  51.833 -52.214  1.00  0.00     0.020 A 
HETATM   37  C   UNL     1     -40.124  53.070 -51.710  1.00  0.00     0.019 A 
ENDBRANCH  29  31
ENDBRANCH  28  29
ENDBRANCH   2  28
TORSDOF 6
ENDMDL
MODEL 3
REMARK VINA RESULT:      -8.0      2.528      3.311
REMARK  6 active torsions:
REMARK  status: ('A' for Active; 'I' for Inactive)
REMARK    1  A    between atoms: C_2  and  O_3 
REMARK    2  A    between atoms: O_3  and  C_4 
REMARK    3  A    between atoms: C_5  and  O_6 
REMARK    4  A    between atoms: O_6  and  C_7 
REMARK    5  A    between atoms: C_7  and  C_8 
REMARK    6  A    between atoms: C_18  and  C_19 
ROOT
HETATM    1  C   UNL     1     -42.118  58.444 -52.715  1.00  0.00     0.103 A 
HETATM    2  C   UNL     1     -41.608  57.205 -53.103  1.00  0.00     0.112 A 
HETATM    3  C   UNL     1     -41.492  56.861 -54.447  1.00  0.00     0.041 A 
HETATM    4  C   UNL     1     -41.778  57.817 -55.422  1.00  0.00     0.014 A 
HETATM    5  C   UNL     1     -42.177  59.122 -55.062  1.00  0.00    -0.013 A 
HETATM    6  C   UNL     1     -42.387  59.402 -53.696  1.00  0.00     0.050 A 
ENDROOT
BRANCH   5   7
HETATM    7  C   UNL     1     -42.289  60.190 -56.151  1.00  0.00     0.219 C 
HETATM    8  N   UNL     1     -41.713  59.812 -57.421  1.00  0.00    -0.332 N 
HETATM    9  C   UNL     1     -42.363  59.001 -58.319  1.00  0.00     0.256 C 
HETATM   10  H   UNL     1     -40.711  59.861 -57.527  1.00  0.00     0.165 HD
HETATM   11  O   UNL     1     -41.767  58.429 -59.224  1.00  0.00    -0.267 OA
HETATM   12  C   UNL     1     -43.792  58.855 -58.097  1.00  0.00     0.073 A 
HETATM   13  C   UNL     1     -44.390  59.649 -57.147  1.00  0.00     0.088 A 
HETATM   14  C   UNL     1     -44.728  57.963 -58.705  1.00  0.00    -0.023 A 
HETATM   15  S   UNL     1     -46.062  59.383 -57.021  1.00  0.00    -0.074 SA
HETATM   16  N   UNL     1     -43.690  60.523 -56.384  1.00  0.00    -0.358 N 
HETATM   17  C   UNL     1     -45.999  58.148 -58.191  1.00  0.00     0.018 A 
HETATM   18  C   UNL     1     -47.198  57.345 -58.557  1.00  0.00     0.281 C 
HETATM   19  N   UNL     1     -46.963  56.544 -59.835  1.00  0.00    -0.070 N 
HETATM   20  C   UNL     1     -45.581  55.894 -59.844  1.00  0.00     0.239 C 
HETATM   21  H   UNL     1     -47.646  55.777 -59.814  1.00  0.00     0.279 HD
HETATM   22  C   UNL     1     -47.256  57.339 -61.074  1.00  0.00     0.270 C 
HETATM   23  C   UNL     1     -44.446  56.931 -59.756  1.00  0.00     0.068 C 
HETATM   24  H   UNL     1     -44.163  60.912 -55.573  1.00  0.00     0.162 HD
ENDBRANCH   5   7
BRANCH   1  25
HETATM   25  O   UNL     1     -42.250  58.677 -51.371  1.00  0.00    -0.349 OA
BRANCH  25  26
HETATM   26  C   UNL     1     -41.629  59.880 -50.909  1.00  0.00     0.171 C 
HETATM   27  C   UNL     1     -40.280  59.515 -50.317  1.00  0.00     0.034 C 
ENDBRANCH  25  26
ENDBRANCH   1  25
BRANCH   2  28
HETATM   28  O   UNL     1     -41.231  56.295 -52.114  1.00  0.00    -0.272 OA
BRANCH  28  29
HETATM   29  C   UNL     1     -42.105  55.228 -52.064  1.00  0.00     0.298 C 
HETATM   30  O   UNL     1     -43.247  55.202 -51.626  1.00  0.00    -0.259 OA
BRANCH  29  31
HETATM   31  C   UNL     1     -41.435  54.027 -52.611  1.00  0.00     0.040 A 
HETATM   32  C   UNL     1     -40.521  53.342 -51.801  1.00  0.00     0.019 A 
HETATM   33  C   UNL     1     -39.919  52.169 -52.265  1.00  0.00     0.020 A 
HETATM   34  C   UNL     1     -40.247  51.679 -53.529  1.00  0.00     0.011 A 
HETATM   35 BR   UNL     1     -39.456  50.076 -54.144  1.00  0.00    -0.051 Br
HETATM   36  C   UNL     1     -41.163  52.352 -54.338  1.00  0.00     0.020 A 
HETATM   37  C   UNL     1     -41.759  53.530 -53.881  1.00  0.00     0.019 A 
ENDBRANCH  29  31
ENDBRANCH  28  29
ENDBRANCH   2  28
TORSDOF 6
ENDMDL
MODEL 4
REMARK VINA RESULT:      -7.9      4.121      8.755
REMARK  6 active torsions:
REMARK  status: ('A' for Active; 'I' for Inactive)
REMARK    1  A    between atoms: C_2  and  O_3 
REMARK    2  A    between atoms: O_3  and  C_4 
REMARK    3  A    between atoms: C_5  and  O_6 
REMARK    4  A    between atoms: O_6  and  C_7 
REMARK    5  A    between atoms: C_7  and  C_8 
REMARK    6  A    between atoms: C_18  and  C_19 
ROOT
HETATM    1  C   UNL     1     -41.984  58.410 -54.791  1.00  0.00     0.103 A 
HETATM    2  C   UNL     1     -41.939  58.714 -56.152  1.00  0.00     0.112 A 
HETATM    3  C   UNL     1     -42.226  57.752 -57.117  1.00  0.00     0.041 A 
HETATM    4  C   UNL     1     -42.683  56.498 -56.713  1.00  0.00     0.014 A 
HETATM    5  C   UNL     1     -42.860  56.197 -55.345  1.00  0.00    -0.013 A 
HETATM    6  C   UNL     1     -42.457  57.158 -54.394  1.00  0.00     0.050 A 
ENDROOT
BRANCH   5   7
HETATM    7  C   UNL     1     -43.545  54.886 -54.957  1.00  0.00     0.219 C 
HETATM    8  N   UNL     1     -42.676  53.733 -54.958  1.00  0.00    -0.332 N 
HETATM    9  C   UNL     1     -41.817  53.449 -53.924  1.00  0.00     0.256 C 
HETATM   10  H   UNL     1     -42.444  53.307 -55.843  1.00  0.00     0.165 HD
HETATM   11  O   UNL     1     -40.873  52.680 -54.059  1.00  0.00    -0.267 OA
HETATM   12  C   UNL     1     -42.098  54.146 -52.680  1.00  0.00     0.073 A 
HETATM   13  C   UNL     1     -43.261  54.873 -52.586  1.00  0.00     0.088 A 
HETATM   14  C   UNL     1     -41.321  54.235 -51.484  1.00  0.00    -0.023 A 
HETATM   15  S   UNL     1     -43.461  55.606 -51.069  1.00  0.00    -0.074 SA
HETATM   16  N   UNL     1     -44.125  55.000 -53.623  1.00  0.00    -0.358 N 
HETATM   17  C   UNL     1     -41.956  55.016 -50.535  1.00  0.00     0.018 A 
HETATM   18  C   UNL     1     -41.398  55.367 -49.200  1.00  0.00     0.281 C 
HETATM   19  N   UNL     1     -40.219  54.470 -48.836  1.00  0.00    -0.070 N 
HETATM   20  C   UNL     1     -39.280  54.267 -50.022  1.00  0.00     0.239 C 
HETATM   21  H   UNL     1     -39.685  54.984 -48.124  1.00  0.00     0.279 HD
HETATM   22  C   UNL     1     -40.652  53.185 -48.192  1.00  0.00     0.270 C 
HETATM   23  C   UNL     1     -39.986  53.607 -51.221  1.00  0.00     0.068 C 
HETATM   24  H   UNL     1     -44.842  55.715 -53.543  1.00  0.00     0.162 HD
ENDBRANCH   5   7
BRANCH   1  25
HETATM   25  O   UNL     1     -41.631  59.401 -53.913  1.00  0.00    -0.349 OA
BRANCH  25  26
HETATM   26  C   UNL     1     -40.520  59.084 -53.070  1.00  0.00     0.171 C 
HETATM   27  C   UNL     1     -40.981  59.184 -51.627  1.00  0.00     0.034 C 
ENDBRANCH  25  26
ENDBRANCH   1  25
BRANCH   2  28
HETATM   28  O   UNL     1     -41.577  60.006 -56.539  1.00  0.00    -0.272 OA
BRANCH  28  29
HETATM   29  C   UNL     1     -42.552  60.577 -57.332  1.00  0.00     0.298 C 
HETATM   30  O   UNL     1     -43.765  60.564 -57.171  1.00  0.00    -0.259 OA
BRANCH  29  31
HETATM   31  C   UNL     1     -41.911  61.222 -58.500  1.00  0.00     0.040 A 
HETATM   32  C   UNL     1     -40.793  62.036 -58.285  1.00  0.00     0.019 A 
HETATM   33  C   UNL     1     -40.127  62.608 -59.372  1.00  0.00     0.020 A 
HETATM   34  C   UNL     1     -40.573  62.349 -60.668  1.00  0.00     0.011 A 
HETATM   35 BR   UNL     1     -39.653  63.098 -62.140  1.00  0.00    -0.051 Br
HETATM   36  C   UNL     1     -41.682  61.531 -60.889  1.00  0.00     0.020 A 
HETATM   37  C   UNL     1     -42.356  60.966 -59.804  1.00  0.00     0.019 A 
ENDBRANCH  29  31
ENDBRANCH  28  29
ENDBRANCH   2  28
TORSDOF 6
ENDMDL
MODEL 5
REMARK VINA RESULT:      -7.8      3.371      5.114
REMARK  6 active torsions:
REMARK  status: ('A' for Active; 'I' for Inactive)
REMARK    1  A    between atoms: C_2  and  O_3 
REMARK    2  A    between atoms: O_3  and  C_4 
REMARK    3  A    between atoms: C_5  and  O_6 
REMARK    4  A    between atoms: O_6  and  C_7 
REMARK    5  A    between atoms: C_7  and  C_8 
REMARK    6  A    between atoms: C_18  and  C_19 
ROOT
HETATM    1  C   UNL     1     -41.918  56.651 -55.013  1.00  0.00     0.103 A 
HETATM    2  C   UNL     1     -42.888  57.538 -54.546  1.00  0.00     0.112 A 
HETATM    3  C   UNL     1     -43.920  57.980 -55.370  1.00  0.00     0.041 A 
HETATM    4  C   UNL     1     -44.053  57.433 -56.646  1.00  0.00     0.014 A 
HETATM    5  C   UNL     1     -43.163  56.440 -57.106  1.00  0.00    -0.013 A 
HETATM    6  C   UNL     1     -42.068  56.095 -56.286  1.00  0.00     0.050 A 
ENDROOT
BRANCH   5   7
HETATM    7  C   UNL     1     -43.461  55.730 -58.427  1.00  0.00     0.219 C 
HETATM    8  N   UNL     1     -44.828  55.856 -58.878  1.00  0.00    -0.332 N 
HETATM    9  C   UNL     1     -45.299  56.979 -59.515  1.00  0.00     0.256 C 
HETATM   10  H   UNL     1     -45.531  55.274 -58.449  1.00  0.00     0.165 HD
HETATM   11  O   UNL     1     -46.498  57.216 -59.604  1.00  0.00    -0.267 OA
HETATM   12  C   UNL     1     -44.276  57.864 -60.042  1.00  0.00     0.073 A 
HETATM   13  C   UNL     1     -42.968  57.440 -60.019  1.00  0.00     0.088 A 
HETATM   14  C   UNL     1     -44.393  59.182 -60.583  1.00  0.00    -0.023 A 
HETATM   15  S   UNL     1     -41.894  58.569 -60.691  1.00  0.00    -0.074 SA
HETATM   16  N   UNL     1     -42.599  56.252 -59.482  1.00  0.00    -0.358 N 
HETATM   17  C   UNL     1     -43.158  59.678 -60.962  1.00  0.00     0.018 A 
HETATM   18  C   UNL     1     -42.910  61.041 -61.505  1.00  0.00     0.281 C 
HETATM   19  N   UNL     1     -44.208  61.706 -61.954  1.00  0.00    -0.070 N 
HETATM   20  C   UNL     1     -45.333  61.483 -60.945  1.00  0.00     0.239 C 
HETATM   21  H   UNL     1     -44.018  62.716 -61.961  1.00  0.00     0.279 HD
HETATM   22  C   UNL     1     -44.587  61.338 -63.359  1.00  0.00     0.270 C 
HETATM   23  C   UNL     1     -45.647  59.990 -60.741  1.00  0.00     0.068 C 
HETATM   24  H   UNL     1     -41.608  56.107 -59.315  1.00  0.00     0.162 HD
ENDBRANCH   5   7
BRANCH   1  25
HETATM   25  O   UNL     1     -40.907  56.313 -54.152  1.00  0.00    -0.349 OA
BRANCH  25  26
HETATM   26  C   UNL     1     -40.264  55.069 -54.445  1.00  0.00     0.171 C 
HETATM   27  C   UNL     1     -40.656  54.073 -53.368  1.00  0.00     0.034 C 
ENDBRANCH  25  26
ENDBRANCH   1  25
BRANCH   2  28
HETATM   28  O   UNL     1     -42.797  57.999 -53.231  1.00  0.00    -0.272 OA
BRANCH  28  29
HETATM   29  C   UNL     1     -43.672  57.320 -52.407  1.00  0.00     0.298 C 
HETATM   30  O   UNL     1     -44.893  57.387 -52.375  1.00  0.00    -0.259 OA
BRANCH  29  31
HETATM   31  C   UNL     1     -42.898  56.466 -51.477  1.00  0.00     0.040 A 
HETATM   32  C   UNL     1     -41.740  56.992 -50.892  1.00  0.00     0.019 A 
HETATM   33  C   UNL     1     -41.023  56.235 -49.962  1.00  0.00     0.020 A 
HETATM   34  C   UNL     1     -41.476  54.963 -49.611  1.00  0.00     0.011 A 
HETATM   35 BR   UNL     1     -40.522  53.951 -48.331  1.00  0.00    -0.051 Br
HETATM   36  C   UNL     1     -42.633  54.437 -50.186  1.00  0.00     0.020 A 
HETATM   37  C   UNL     1     -43.347  55.187 -51.123  1.00  0.00     0.019 A 
ENDBRANCH  29  31
ENDBRANCH  28  29
ENDBRANCH   2  28
TORSDOF 6
ENDMDL
MODEL 6
REMARK VINA RESULT:      -7.7      3.545      5.507
REMARK  6 active torsions:
REMARK  status: ('A' for Active; 'I' for Inactive)
REMARK    1  A    between atoms: C_2  and  O_3 
REMARK    2  A    between atoms: O_3  and  C_4 
REMARK    3  A    between atoms: C_5  and  O_6 
REMARK    4  A    between atoms: O_6  and  C_7 
REMARK    5  A    between atoms: C_7  and  C_8 
REMARK    6  A    between atoms: C_18  and  C_19 
ROOT
HETATM    1  C   UNL     1     -43.212  56.275 -55.112  1.00  0.00     0.103 A 
HETATM    2  C   UNL     1     -43.837  57.287 -54.383  1.00  0.00     0.112 A 
HETATM    3  C   UNL     1     -43.698  58.626 -54.739  1.00  0.00     0.041 A 
HETATM    4  C   UNL     1     -43.021  58.951 -55.914  1.00  0.00     0.014 A 
HETATM    5  C   UNL     1     -42.483  57.943 -56.744  1.00  0.00    -0.013 A 
HETATM    6  C   UNL     1     -42.550  56.607 -56.297  1.00  0.00     0.050 A 
ENDROOT
BRANCH   5   7
HETATM    7  C   UNL     1     -41.925  58.330 -58.114  1.00  0.00     0.219 C 
HETATM    8  N   UNL     1     -41.907  57.254 -59.078  1.00  0.00    -0.332 N 
HETATM    9  C   UNL     1     -43.023  56.865 -59.777  1.00  0.00     0.256 C 
HETATM   10  H   UNL     1     -41.174  56.565 -59.014  1.00  0.00     0.165 HD
HETATM   11  O   UNL     1     -43.090  55.777 -60.336  1.00  0.00    -0.267 OA
HETATM   12  C   UNL     1     -44.116  57.823 -59.778  1.00  0.00     0.073 A 
HETATM   13  C   UNL     1     -43.891  59.072 -59.247  1.00  0.00     0.088 A 
HETATM   14  C   UNL     1     -45.463  57.677 -60.233  1.00  0.00    -0.023 A 
HETATM   15  S   UNL     1     -45.249  60.085 -59.343  1.00  0.00    -0.074 SA
HETATM   16  N   UNL     1     -42.709  59.420 -58.685  1.00  0.00    -0.358 N 
HETATM   17  C   UNL     1     -46.184  58.842 -60.038  1.00  0.00     0.018 A 
HETATM   18  C   UNL     1     -47.630  59.017 -60.340  1.00  0.00     0.281 C 
HETATM   19  N   UNL     1     -48.150  57.898 -61.240  1.00  0.00    -0.070 N 
HETATM   20  C   UNL     1     -47.626  56.534 -60.799  1.00  0.00     0.239 C 
HETATM   21  H   UNL     1     -49.168  57.879 -61.102  1.00  0.00     0.279 HD
HETATM   22  C   UNL     1     -47.926  58.181 -62.697  1.00  0.00     0.270 C 
HETATM   23  C   UNL     1     -46.088  56.457 -60.839  1.00  0.00     0.068 C 
HETATM   24  H   UNL     1     -42.692  60.274 -58.134  1.00  0.00     0.162 HD
ENDBRANCH   5   7
BRANCH   1  25
HETATM   25  O   UNL     1     -43.356  54.991 -54.658  1.00  0.00    -0.349 OA
BRANCH  25  26
HETATM   26  C   UNL     1     -42.194  54.170 -54.807  1.00  0.00     0.171 C 
HETATM   27  C   UNL     1     -41.235  54.504 -53.678  1.00  0.00     0.034 C 
ENDBRANCH  25  26
ENDBRANCH   1  25
BRANCH   2  28
HETATM   28  O   UNL     1     -44.596  56.936 -53.265  1.00  0.00    -0.272 OA
BRANCH  28  29
HETATM   29  C   UNL     1     -44.146  57.591 -52.136  1.00  0.00     0.298 C 
HETATM   30  O   UNL     1     -44.412  58.725 -51.760  1.00  0.00    -0.259 OA
BRANCH  29  31
HETATM   31  C   UNL     1     -43.212  56.708 -51.403  1.00  0.00     0.040 A 
HETATM   32  C   UNL     1     -41.941  57.198 -51.080  1.00  0.00     0.019 A 
HETATM   33  C   UNL     1     -41.059  56.412 -50.334  1.00  0.00     0.020 A 
HETATM   34  C   UNL     1     -41.459  55.148 -49.901  1.00  0.00     0.011 A 
HETATM   35 BR   UNL     1     -40.277  54.097 -48.865  1.00  0.00    -0.051 Br
HETATM   36  C   UNL     1     -42.727  54.657 -50.212  1.00  0.00     0.020 A 
HETATM   37  C   UNL     1     -43.608  55.436 -50.967  1.00  0.00     0.019 A 
ENDBRANCH  29  31
ENDBRANCH  28  29
ENDBRANCH   2  28
TORSDOF 6
ENDMDL
MODEL 7
REMARK VINA RESULT:      -7.6     17.653     20.905
REMARK  6 active torsions:
REMARK  status: ('A' for Active; 'I' for Inactive)
REMARK    1  A    between atoms: C_2  and  O_3 
REMARK    2  A    between atoms: O_3  and  C_4 
REMARK    3  A    between atoms: C_5  and  O_6 
REMARK    4  A    between atoms: O_6  and  C_7 
REMARK    5  A    between atoms: C_7  and  C_8 
REMARK    6  A    between atoms: C_18  and  C_19 
ROOT
HETATM    1  C   UNL     1     -35.747  39.149 -58.132  1.00  0.00     0.103 A 
HETATM    2  C   UNL     1     -37.106  39.028 -58.424  1.00  0.00     0.112 A 
HETATM    3  C   UNL     1     -38.065  39.735 -57.705  1.00  0.00     0.041 A 
HETATM    4  C   UNL     1     -37.652  40.671 -56.757  1.00  0.00     0.014 A 
HETATM    5  C   UNL     1     -36.281  40.911 -56.524  1.00  0.00    -0.013 A 
HETATM    6  C   UNL     1     -35.340  40.100 -57.193  1.00  0.00     0.050 A 
ENDROOT
BRANCH   5   7
HETATM    7  C   UNL     1     -35.874  42.078 -55.624  1.00  0.00     0.219 C 
HETATM    8  N   UNL     1     -36.768  42.319 -54.515  1.00  0.00    -0.332 N 
HETATM    9  C   UNL     1     -36.735  41.576 -53.360  1.00  0.00     0.256 C 
HETATM   10  H   UNL     1     -37.634  42.805 -54.693  1.00  0.00     0.165 HD
HETATM   11  O   UNL     1     -37.674  41.560 -52.574  1.00  0.00    -0.267 OA
HETATM   12  C   UNL     1     -35.525  40.797 -53.162  1.00  0.00     0.073 A 
HETATM   13  C   UNL     1     -34.472  40.993 -54.025  1.00  0.00     0.088 A 
HETATM   14  C   UNL     1     -35.231  39.789 -52.193  1.00  0.00    -0.023 A 
HETATM   15  S   UNL     1     -33.123  40.034 -53.651  1.00  0.00    -0.074 SA
HETATM   16  N   UNL     1     -34.543  41.847 -55.075  1.00  0.00    -0.358 N 
HETATM   17  C   UNL     1     -33.953  39.288 -52.365  1.00  0.00     0.018 A 
HETATM   18  C   UNL     1     -33.349  38.186 -51.568  1.00  0.00     0.281 C 
HETATM   19  N   UNL     1     -34.145  37.918 -50.295  1.00  0.00    -0.070 N 
HETATM   20  C   UNL     1     -35.649  37.927 -50.560  1.00  0.00     0.239 C 
HETATM   21  H   UNL     1     -33.904  36.960 -50.010  1.00  0.00     0.279 HD
HETATM   22  C   UNL     1     -33.734  38.811 -49.160  1.00  0.00     0.270 C 
HETATM   23  C   UNL     1     -36.137  39.279 -51.111  1.00  0.00     0.068 C 
HETATM   24  H   UNL     1     -33.812  41.779 -55.777  1.00  0.00     0.162 HD
ENDBRANCH   5   7
BRANCH   1  25
HETATM   25  O   UNL     1     -34.877  38.373 -58.852  1.00  0.00    -0.349 OA
BRANCH  25  26
HETATM   26  C   UNL     1     -34.125  37.439 -58.072  1.00  0.00     0.171 C 
HETATM   27  C   UNL     1     -32.652  37.763 -58.243  1.00  0.00     0.034 C 
ENDBRANCH  25  26
ENDBRANCH   1  25
BRANCH   2  28
HETATM   28  O   UNL     1     -37.497  38.160 -59.445  1.00  0.00    -0.272 OA
BRANCH  28  29
HETATM   29  C   UNL     1     -37.847  38.860 -60.582  1.00  0.00     0.298 C 
HETATM   30  O   UNL     1     -37.279  39.817 -61.090  1.00  0.00    -0.259 OA
BRANCH  29  31
HETATM   31  C   UNL     1     -39.101  38.296 -61.132  1.00  0.00     0.040 A 
HETATM   32  C   UNL     1     -40.174  38.075 -60.261  1.00  0.00     0.019 A 
HETATM   33  C   UNL     1     -41.391  37.603 -60.759  1.00  0.00     0.020 A 
HETATM   34  C   UNL     1     -41.533  37.371 -62.128  1.00  0.00     0.011 A 
HETATM   35 BR   UNL     1     -43.189  36.761 -62.806  1.00  0.00    -0.051 Br
HETATM   36  C   UNL     1     -40.469  37.597 -63.002  1.00  0.00     0.020 A 
HETATM   37  C   UNL     1     -39.248  38.059 -62.506  1.00  0.00     0.019 A 
ENDBRANCH  29  31
ENDBRANCH  28  29
ENDBRANCH   2  28
TORSDOF 6
ENDMDL
MODEL 8
REMARK VINA RESULT:      -7.5      3.482      5.183
REMARK  6 active torsions:
REMARK  status: ('A' for Active; 'I' for Inactive)
REMARK    1  A    between atoms: C_2  and  O_3 
REMARK    2  A    between atoms: O_3  and  C_4 
REMARK    3  A    between atoms: C_5  and  O_6 
REMARK    4  A    between atoms: O_6  and  C_7 
REMARK    5  A    between atoms: C_7  and  C_8 
REMARK    6  A    between atoms: C_18  and  C_19 
ROOT
HETATM    1  C   UNL     1     -42.685  57.585 -55.912  1.00  0.00     0.103 A 
HETATM    2  C   UNL     1     -42.851  56.467 -55.093  1.00  0.00     0.112 A 
HETATM    3  C   UNL     1     -43.211  55.231 -55.623  1.00  0.00     0.041 A 
HETATM    4  C   UNL     1     -43.290  55.080 -57.007  1.00  0.00     0.014 A 
HETATM    5  C   UNL     1     -43.005  56.159 -57.871  1.00  0.00    -0.013 A 
HETATM    6  C   UNL     1     -42.749  57.422 -57.298  1.00  0.00     0.050 A 
ENDROOT
BRANCH   5   7
HETATM    7  C   UNL     1     -42.911  55.899 -59.375  1.00  0.00     0.219 C 
HETATM    8  N   UNL     1     -44.107  55.340 -59.962  1.00  0.00    -0.332 N 
HETATM    9  C   UNL     1     -45.202  56.104 -60.285  1.00  0.00     0.256 C 
HETATM   10  H   UNL     1     -44.287  54.356 -59.840  1.00  0.00     0.165 HD
HETATM   11  O   UNL     1     -46.306  55.606 -60.473  1.00  0.00    -0.267 OA
HETATM   12  C   UNL     1     -44.957  57.534 -60.359  1.00  0.00     0.073 A 
HETATM   13  C   UNL     1     -43.659  57.981 -60.275  1.00  0.00     0.088 A 
HETATM   14  C   UNL     1     -45.881  58.618 -60.480  1.00  0.00    -0.023 A 
HETATM   15  S   UNL     1     -43.531  59.668 -60.402  1.00  0.00    -0.074 SA
HETATM   16  N   UNL     1     -42.614  57.141 -60.080  1.00  0.00    -0.358 N 
HETATM   17  C   UNL     1     -45.223  59.835 -60.503  1.00  0.00     0.018 A 
HETATM   18  C   UNL     1     -45.883  61.167 -60.558  1.00  0.00     0.281 C 
HETATM   19  N   UNL     1     -47.348  61.046 -60.967  1.00  0.00    -0.070 N 
HETATM   20  C   UNL     1     -48.037  59.886 -60.252  1.00  0.00     0.239 C 
HETATM   21  H   UNL     1     -47.803  61.905 -60.636  1.00  0.00     0.279 HD
HETATM   22  C   UNL     1     -47.529  61.019 -62.457  1.00  0.00     0.270 C 
HETATM   23  C   UNL     1     -47.376  58.531 -60.565  1.00  0.00     0.068 C 
HETATM   24  H   UNL     1     -41.725  57.561 -59.821  1.00  0.00     0.162 HD
ENDBRANCH   5   7
BRANCH   1  25
HETATM   25  O   UNL     1     -42.386  58.774 -55.301  1.00  0.00    -0.349 OA
BRANCH  25  26
HETATM   26  C   UNL     1     -43.302  59.836 -55.582  1.00  0.00     0.171 C 
HETATM   27  C   UNL     1     -44.481  59.702 -54.635  1.00  0.00     0.034 C 
ENDBRANCH  25  26
ENDBRANCH   1  25
BRANCH   2  28
HETATM   28  O   UNL     1     -42.670  56.612 -53.717  1.00  0.00    -0.272 OA
BRANCH  28  29
HETATM   29  C   UNL     1     -41.336  56.503 -53.379  1.00  0.00     0.298 C 
HETATM   30  O   UNL     1     -40.566  57.388 -53.031  1.00  0.00    -0.259 OA
BRANCH  29  31
HETATM   31  C   UNL     1     -40.911  55.093 -53.531  1.00  0.00     0.040 A 
HETATM   32  C   UNL     1     -41.258  54.177 -52.531  1.00  0.00     0.019 A 
HETATM   33  C   UNL     1     -40.927  52.827 -52.675  1.00  0.00     0.020 A 
HETATM   34  C   UNL     1     -40.266  52.398 -53.826  1.00  0.00     0.011 A 
HETATM   35 BR   UNL     1     -39.846  50.567 -54.035  1.00  0.00    -0.051 Br
HETATM   36  C   UNL     1     -39.925  53.305 -54.830  1.00  0.00     0.020 A 
HETATM   37  C   UNL     1     -40.245  54.657 -54.685  1.00  0.00     0.019 A 
ENDBRANCH  29  31
ENDBRANCH  28  29
ENDBRANCH   2  28
TORSDOF 6
ENDMDL
MODEL 9
REMARK VINA RESULT:      -7.4      3.719      5.641
REMARK  6 active torsions:
REMARK  status: ('A' for Active; 'I' for Inactive)
REMARK    1  A    between atoms: C_2  and  O_3 
REMARK    2  A    between atoms: O_3  and  C_4 
REMARK    3  A    between atoms: C_5  and  O_6 
REMARK    4  A    between atoms: O_6  and  C_7 
REMARK    5  A    between atoms: C_7  and  C_8 
REMARK    6  A    between atoms: C_18  and  C_19 
ROOT
HETATM    1  C   UNL     1     -42.505  58.019 -56.061  1.00  0.00     0.103 A 
HETATM    2  C   UNL     1     -42.432  57.006 -55.105  1.00  0.00     0.112 A 
HETATM    3  C   UNL     1     -42.668  55.676 -55.442  1.00  0.00     0.041 A 
HETATM    4  C   UNL     1     -42.861  55.337 -56.782  1.00  0.00     0.014 A 
HETATM    5  C   UNL     1     -42.816  56.321 -57.792  1.00  0.00    -0.013 A 
HETATM    6  C   UNL     1     -42.682  57.670 -57.402  1.00  0.00     0.050 A 
ENDROOT
BRANCH   5   7
HETATM    7  C   UNL     1     -42.836  55.882 -59.257  1.00  0.00     0.219 C 
HETATM    8  N   UNL     1     -44.076  55.276 -59.683  1.00  0.00    -0.332 N 
HETATM    9  C   UNL     1     -45.187  56.012 -60.015  1.00  0.00     0.256 C 
HETATM   10  H   UNL     1     -44.252  54.316 -59.430  1.00  0.00     0.165 HD
HETATM   11  O   UNL     1     -46.304  55.513 -60.060  1.00  0.00    -0.267 OA
HETATM   12  C   UNL     1     -44.938  57.419 -60.278  1.00  0.00     0.073 A 
HETATM   13  C   UNL     1     -43.634  57.852 -60.344  1.00  0.00     0.088 A 
HETATM   14  C   UNL     1     -45.861  58.495 -60.461  1.00  0.00    -0.023 A 
HETATM   15  S   UNL     1     -43.505  59.510 -60.682  1.00  0.00    -0.074 SA
HETATM   16  N   UNL     1     -42.583  57.026 -60.126  1.00  0.00    -0.358 N 
HETATM   17  C   UNL     1     -45.198  59.690 -60.678  1.00  0.00     0.018 A 
HETATM   18  C   UNL     1     -45.852  61.016 -60.845  1.00  0.00     0.281 C 
HETATM   19  N   UNL     1     -47.345  60.869 -61.129  1.00  0.00    -0.070 N 
HETATM   20  C   UNL     1     -47.986  59.814 -60.231  1.00  0.00     0.239 C 
HETATM   21  H   UNL     1     -47.768  61.769 -60.871  1.00  0.00     0.279 HD
HETATM   22  C   UNL     1     -47.636  60.667 -62.588  1.00  0.00     0.270 C 
HETATM   23  C   UNL     1     -47.359  58.421 -60.426  1.00  0.00     0.068 C 
HETATM   24  H   UNL     1     -41.675  57.460 -59.985  1.00  0.00     0.162 HD
ENDBRANCH   5   7
BRANCH   1  25
HETATM   25  O   UNL     1     -42.315  59.306 -55.631  1.00  0.00    -0.349 OA
BRANCH  25  26
HETATM   26  C   UNL     1     -43.335  60.226 -56.031  1.00  0.00     0.171 C 
HETATM   27  C   UNL     1     -44.469  60.137 -55.026  1.00  0.00     0.034 C 
ENDBRANCH  25  26
ENDBRANCH   1  25
BRANCH   2  28
HETATM   28  O   UNL     1     -42.138  57.350 -53.785  1.00  0.00    -0.272 OA
BRANCH  28  29
HETATM   29  C   UNL     1     -43.151  56.958 -52.933  1.00  0.00     0.298 C 
HETATM   30  O   UNL     1     -44.355  57.140 -53.052  1.00  0.00    -0.259 OA
BRANCH  29  31
HETATM   31  C   UNL     1     -42.562  56.273 -51.761  1.00  0.00     0.040 A 
HETATM   32  C   UNL     1     -43.085  55.033 -51.376  1.00  0.00     0.019 A 
HETATM   33  C   UNL     1     -42.510  54.332 -50.314  1.00  0.00     0.020 A 
HETATM   34  C   UNL     1     -41.404  54.866 -49.652  1.00  0.00     0.011 A 
HETATM   35 BR   UNL     1     -40.607  53.903 -48.235  1.00  0.00    -0.051 Br
HETATM   36  C   UNL     1     -40.873  56.098 -50.036  1.00  0.00     0.020 A 
HETATM   37  C   UNL     1     -41.452  56.807 -51.091  1.00  0.00     0.019 A 
ENDBRANCH  29  31
ENDBRANCH  28  29
ENDBRANCH   2  28
TORSDOF 6
ENDMDL
MODEL 10
REMARK VINA RESULT:      -7.4      3.238      4.814
REMARK  6 active torsions:
REMARK  status: ('A' for Active; 'I' for Inactive)
REMARK    1  A    between atoms: C_2  and  O_3 
REMARK    2  A    between atoms: O_3  and  C_4 
REMARK    3  A    between atoms: C_5  and  O_6 
REMARK    4  A    between atoms: O_6  and  C_7 
REMARK    5  A    between atoms: C_7  and  C_8 
REMARK    6  A    between atoms: C_18  and  C_19 
ROOT
HETATM    1  C   UNL     1     -43.014  56.350 -57.456  1.00  0.00     0.103 A 
HETATM    2  C   UNL     1     -42.464  56.194 -56.184  1.00  0.00     0.112 A 
HETATM    3  C   UNL     1     -42.509  57.222 -55.246  1.00  0.00     0.041 A 
HETATM    4  C   UNL     1     -43.222  58.384 -55.543  1.00  0.00     0.014 A 
HETATM    5  C   UNL     1     -43.898  58.525 -56.774  1.00  0.00    -0.013 A 
HETATM    6  C   UNL     1     -43.741  57.509 -57.740  1.00  0.00     0.050 A 
ENDROOT
BRANCH   5   7
HETATM    7  C   UNL     1     -44.825  59.723 -56.978  1.00  0.00     0.219 C 
HETATM    8  N   UNL     1     -44.405  60.927 -56.298  1.00  0.00    -0.332 N 
HETATM    9  C   UNL     1     -43.426  61.755 -56.792  1.00  0.00     0.256 C 
HETATM   10  H   UNL     1     -44.581  61.006 -55.309  1.00  0.00     0.165 HD
HETATM   11  O   UNL     1     -42.855  62.575 -56.083  1.00  0.00    -0.267 OA
HETATM   12  C   UNL     1     -43.107  61.565 -58.196  1.00  0.00     0.073 A 
HETATM   13  C   UNL     1     -43.902  60.723 -58.940  1.00  0.00     0.088 A 
HETATM   14  C   UNL     1     -42.037  62.105 -58.975  1.00  0.00    -0.023 A 
HETATM   15  S   UNL     1     -43.420  60.624 -60.564  1.00  0.00    -0.074 SA
HETATM   16  N   UNL     1     -44.936  60.035 -58.399  1.00  0.00    -0.358 N 
HETATM   17  C   UNL     1     -42.095  61.655 -60.282  1.00  0.00     0.018 A 
HETATM   18  C   UNL     1     -41.101  61.972 -61.343  1.00  0.00     0.281 C 
HETATM   19  N   UNL     1     -40.217  63.149 -60.944  1.00  0.00    -0.070 N 
HETATM   20  C   UNL     1     -39.766  63.045 -59.488  1.00  0.00     0.239 C 
HETATM   21  H   UNL     1     -39.369  63.070 -61.519  1.00  0.00     0.279 HD
HETATM   22  C   UNL     1     -40.835  64.475 -61.283  1.00  0.00     0.270 C 
HETATM   23  C   UNL     1     -40.954  63.031 -58.509  1.00  0.00     0.068 C 
HETATM   24  H   UNL     1     -45.335  59.285 -58.957  1.00  0.00     0.162 HD
ENDBRANCH   5   7
BRANCH   1  25
HETATM   25  O   UNL     1     -42.874  55.308 -58.335  1.00  0.00    -0.349 OA
BRANCH  25  26
HETATM   26  C   UNL     1     -43.453  55.532 -59.624  1.00  0.00     0.171 C 
HETATM   27  C   UNL     1     -44.542  54.497 -59.836  1.00  0.00     0.034 C 
ENDBRANCH  25  26
ENDBRANCH   1  25
BRANCH   2  28
HETATM   28  O   UNL     1     -41.840  54.986 -55.867  1.00  0.00    -0.272 OA
BRANCH  28  29
HETATM   29  C   UNL     1     -42.703  54.146 -55.192  1.00  0.00     0.298 C 
HETATM   30  O   UNL     1     -43.739  53.638 -55.597  1.00  0.00    -0.259 OA
BRANCH  29  31
HETATM   31  C   UNL     1     -42.206  53.948 -53.812  1.00  0.00     0.040 A 
HETATM   32  C   UNL     1     -40.911  53.446 -53.631  1.00  0.00     0.019 A 
HETATM   33  C   UNL     1     -40.390  53.308 -52.342  1.00  0.00     0.020 A 
HETATM   34  C   UNL     1     -41.159  53.688 -51.243  1.00  0.00     0.011 A 
HETATM   35 BR   UNL     1     -40.442  53.529 -49.501  1.00  0.00    -0.051 Br
HETATM   36  C   UNL     1     -42.447  54.197 -51.416  1.00  0.00     0.020 A 
HETATM   37  C   UNL     1     -42.975  54.327 -52.703  1.00  0.00     0.019 A 
ENDBRANCH  29  31
ENDBRANCH  28  29
ENDBRANCH   2  28
TORSDOF 6
ENDMDL
