MODEL 1
REMARK VINA RESULT:      -7.7      0.000      0.000
REMARK  8 active torsions:
REMARK  status: ('A' for Active; 'I' for Inactive)
REMARK    1  A    between atoms: C_2  and  O_3 
REMARK    2  A    between atoms: O_3  and  C_4 
REMARK    3  A    between atoms: C_5  and  N_6 
REMARK       I    between atoms: N_6  and  C_7 
REMARK    4  A    between atoms: C_7  and  C_8 
REMARK    5  A    between atoms: N_11  and  C_12 
REMARK    6  A    between atoms: C_12  and  C_13 
REMARK       I    between atoms: C_13  and  N_14 
REMARK    7  A    between atoms: N_14  and  C_15 
REMARK    8  A    between atoms: C_23  and  N_24 
ROOT
HETATM    1  C   UNL     1     -42.310  58.259 -52.223  1.00  0.00     0.187 A 
HETATM    2  N   UNL     1     -40.959  58.496 -52.053  1.00  0.00    -0.150 NA
HETATM    3  N   UNL     1     -40.525  57.785 -51.027  1.00  0.00     0.007 NA
HETATM    4  N   UNL     1     -41.575  57.102 -50.542  1.00  0.00    -0.248 N 
HETATM    5  C   UNL     1     -42.740  57.422 -51.198  1.00  0.00     0.151 A 
ENDROOT
BRANCH   1   6
HETATM    6  C   UNL     1     -43.046  58.946 -53.280  1.00  0.00     0.280 C 
HETATM    7  N   UNL     1     -43.674  58.270 -54.303  1.00  0.00    -0.319 N 
HETATM    8  H   UNL     1     -44.395  58.846 -54.719  1.00  0.00     0.169 HD
HETATM    9  O   UNL     1     -43.240  60.165 -53.228  1.00  0.00    -0.265 OA
BRANCH   7  10
HETATM   10  C   UNL     1     -43.436  57.027 -54.920  1.00  0.00     0.068 A 
HETATM   11  C   UNL     1     -42.714  56.830 -56.113  1.00  0.00     0.095 A 
HETATM   12  C   UNL     1     -42.506  55.520 -56.571  1.00  0.00     0.039 A 
HETATM   13  C   UNL     1     -43.043  54.427 -55.888  1.00  0.00     0.003 A 
HETATM   14  C   UNL     1     -43.816  54.628 -54.751  1.00  0.00     0.002 A 
HETATM   15  C   UNL     1     -44.019  55.923 -54.277  1.00  0.00     0.032 A 
BRANCH  11  16
HETATM   16  O   UNL     1     -42.328  57.946 -56.809  1.00  0.00    -0.349 OA
BRANCH  16  17
HETATM   17  C   UNL     1     -42.988  58.226 -58.042  1.00  0.00     0.171 C 
HETATM   18  C   UNL     1     -41.962  58.173 -59.159  1.00  0.00     0.034 C 
ENDBRANCH  16  17
ENDBRANCH  11  16
ENDBRANCH   7  10
ENDBRANCH   1   6
BRANCH   5  19
HETATM   19  N   UNL     1     -43.949  56.955 -50.809  1.00  0.00    -0.382 N 
HETATM   20  H   UNL     1     -44.851  57.299 -51.150  1.00  0.00     0.157 HD
HETATM   21  H   UNL     1     -44.043  56.276 -50.056  1.00  0.00     0.157 HD
ENDBRANCH   5  19
BRANCH   4  22
HETATM   22  C   UNL     1     -41.335  56.109 -49.525  1.00  0.00     0.251 C 
BRANCH  22  23
HETATM   23  C   UNL     1     -41.278  54.709 -50.078  1.00  0.00     0.241 C 
HETATM   24  N   UNL     1     -40.378  54.549 -51.118  1.00  0.00    -0.326 N 
HETATM   25  H   UNL     1     -39.672  55.269 -51.234  1.00  0.00     0.169 HD
HETATM   26  O   UNL     1     -41.995  53.829 -49.603  1.00  0.00    -0.271 OA
BRANCH  24  27
HETATM   27  C   UNL     1     -40.267  53.428 -51.967  1.00  0.00     0.034 A 
HETATM   28  C   UNL     1     -40.688  53.427 -53.300  1.00  0.00     0.031 A 
HETATM   29  C   UNL     1     -40.503  52.295 -54.103  1.00  0.00     0.026 A 
HETATM   30  C   UNL     1     -39.902  51.158 -53.572  1.00  0.00     0.034 A 
HETATM   31 CL   UNL     1     -39.671  49.771 -54.561  1.00  0.00    -0.084 Cl
HETATM   32  C   UNL     1     -39.480  51.145 -52.246  1.00  0.00     0.026 A 
HETATM   33  C   UNL     1     -39.657  52.280 -51.447  1.00  0.00     0.031 A 
ENDBRANCH  24  27
ENDBRANCH  22  23
ENDBRANCH   4  22
TORSDOF 8
ENDMDL
MODEL 2
REMARK VINA RESULT:      -7.5      2.570      6.245
REMARK  8 active torsions:
REMARK  status: ('A' for Active; 'I' for Inactive)
REMARK    1  A    between atoms: C_2  and  O_3 
REMARK    2  A    between atoms: O_3  and  C_4 
REMARK    3  A    between atoms: C_5  and  N_6 
REMARK       I    between atoms: N_6  and  C_7 
REMARK    4  A    between atoms: C_7  and  C_8 
REMARK    5  A    between atoms: N_11  and  C_12 
REMARK    6  A    between atoms: C_12  and  C_13 
REMARK       I    between atoms: C_13  and  N_14 
REMARK    7  A    between atoms: N_14  and  C_15 
REMARK    8  A    between atoms: C_23  and  N_24 
ROOT
HETATM    1  C   UNL     1     -43.469  56.282 -51.119  1.00  0.00     0.187 A 
HETATM    2  N   UNL     1     -44.550  57.129 -51.279  1.00  0.00    -0.150 NA
HETATM    3  N   UNL     1     -44.106  58.360 -51.465  1.00  0.00     0.007 NA
HETATM    4  N   UNL     1     -42.765  58.311 -51.426  1.00  0.00    -0.248 N 
HETATM    5  C   UNL     1     -42.307  57.049 -51.129  1.00  0.00     0.151 A 
ENDROOT
BRANCH   1   6
HETATM    6  C   UNL     1     -43.683  54.861 -50.871  1.00  0.00     0.280 C 
HETATM    7  N   UNL     1     -42.914  53.882 -51.464  1.00  0.00    -0.319 N 
HETATM    8  H   UNL     1     -42.964  53.022 -50.932  1.00  0.00     0.169 HD
HETATM    9  O   UNL     1     -44.490  54.481 -50.016  1.00  0.00    -0.265 OA
BRANCH   7  10
HETATM   10  C   UNL     1     -42.197  53.828 -52.674  1.00  0.00     0.068 A 
HETATM   11  C   UNL     1     -40.874  53.368 -52.821  1.00  0.00     0.095 A 
HETATM   12  C   UNL     1     -40.315  53.314 -54.107  1.00  0.00     0.039 A 
HETATM   13  C   UNL     1     -41.032  53.755 -55.221  1.00  0.00     0.003 A 
HETATM   14  C   UNL     1     -42.310  54.276 -55.064  1.00  0.00     0.002 A 
HETATM   15  C   UNL     1     -42.884  54.321 -53.795  1.00  0.00     0.032 A 
BRANCH  11  16
HETATM   16  O   UNL     1     -40.176  53.077 -51.678  1.00  0.00    -0.349 OA
BRANCH  16  17
HETATM   17  C   UNL     1     -39.532  51.807 -51.593  1.00  0.00     0.171 C 
HETATM   18  C   UNL     1     -40.186  51.010 -50.481  1.00  0.00     0.034 C 
ENDBRANCH  16  17
ENDBRANCH  11  16
ENDBRANCH   7  10
ENDBRANCH   1   6
BRANCH   5  19
HETATM   19  N   UNL     1     -40.999  56.778 -50.915  1.00  0.00    -0.382 N 
HETATM   20  H   UNL     1     -40.465  57.065 -50.090  1.00  0.00     0.157 HD
HETATM   21  H   UNL     1     -40.420  56.341 -51.629  1.00  0.00     0.157 HD
ENDBRANCH   5  19
BRANCH   4  22
HETATM   22  C   UNL     1     -42.027  59.498 -51.780  1.00  0.00     0.251 C 
BRANCH  22  23
HETATM   23  C   UNL     1     -41.535  59.477 -53.203  1.00  0.00     0.241 C 
HETATM   24  N   UNL     1     -42.546  59.446 -54.149  1.00  0.00    -0.326 N 
HETATM   25  H   UNL     1     -43.478  59.705 -53.839  1.00  0.00     0.169 HD
HETATM   26  O   UNL     1     -40.327  59.488 -53.439  1.00  0.00    -0.271 OA
BRANCH  24  27
HETATM   27  C   UNL     1     -42.396  59.201 -55.530  1.00  0.00     0.034 A 
HETATM   28  C   UNL     1     -41.989  60.176 -56.446  1.00  0.00     0.031 A 
HETATM   29  C   UNL     1     -41.813  59.854 -57.796  1.00  0.00     0.026 A 
HETATM   30  C   UNL     1     -42.048  58.556 -58.237  1.00  0.00     0.034 A 
HETATM   31 CL   UNL     1     -41.825  58.160 -59.895  1.00  0.00    -0.084 Cl
HETATM   32  C   UNL     1     -42.455  57.575 -57.336  1.00  0.00     0.026 A 
HETATM   33  C   UNL     1     -42.623  57.896 -55.985  1.00  0.00     0.031 A 
ENDBRANCH  24  27
ENDBRANCH  22  23
ENDBRANCH   4  22
TORSDOF 8
ENDMDL
MODEL 3
REMARK VINA RESULT:      -7.2      2.284      6.404
REMARK  8 active torsions:
REMARK  status: ('A' for Active; 'I' for Inactive)
REMARK    1  A    between atoms: C_2  and  O_3 
REMARK    2  A    between atoms: O_3  and  C_4 
REMARK    3  A    between atoms: C_5  and  N_6 
REMARK       I    between atoms: N_6  and  C_7 
REMARK    4  A    between atoms: C_7  and  C_8 
REMARK    5  A    between atoms: N_11  and  C_12 
REMARK    6  A    between atoms: C_12  and  C_13 
REMARK       I    between atoms: C_13  and  N_14 
REMARK    7  A    between atoms: N_14  and  C_15 
REMARK    8  A    between atoms: C_23  and  N_24 
ROOT
HETATM    1  C   UNL     1     -41.795  55.177 -50.295  1.00  0.00     0.187 A 
HETATM    2  N   UNL     1     -43.075  54.666 -50.415  1.00  0.00    -0.150 NA
HETATM    3  N   UNL     1     -43.880  55.624 -50.843  1.00  0.00     0.007 NA
HETATM    4  N   UNL     1     -43.136  56.732 -50.995  1.00  0.00    -0.248 N 
HETATM    5  C   UNL     1     -41.838  56.537 -50.588  1.00  0.00     0.151 A 
ENDROOT
BRANCH   1   6
HETATM    6  C   UNL     1     -40.711  54.328 -49.814  1.00  0.00     0.280 C 
HETATM    7  N   UNL     1     -39.870  53.647 -50.667  1.00  0.00    -0.319 N 
HETATM    8  H   UNL     1     -39.004  53.410 -50.197  1.00  0.00     0.169 HD
HETATM    9  O   UNL     1     -40.425  54.285 -48.612  1.00  0.00    -0.265 OA
BRANCH   7  10
HETATM   10  C   UNL     1     -40.028  53.146 -51.973  1.00  0.00     0.068 A 
HETATM   11  C   UNL     1     -39.673  51.854 -52.404  1.00  0.00     0.095 A 
HETATM   12  C   UNL     1     -39.952  51.479 -53.726  1.00  0.00     0.039 A 
HETATM   13  C   UNL     1     -40.528  52.383 -54.622  1.00  0.00     0.003 A 
HETATM   14  C   UNL     1     -40.811  53.680 -54.215  1.00  0.00     0.002 A 
HETATM   15  C   UNL     1     -40.552  54.061 -52.900  1.00  0.00     0.032 A 
BRANCH  11  16
HETATM   16  O   UNL     1     -38.990  51.060 -51.519  1.00  0.00    -0.349 OA
BRANCH  16  17
HETATM   17  C   UNL     1     -39.650  49.901 -51.014  1.00  0.00     0.171 C 
HETATM   18  C   UNL     1     -40.412  50.290 -49.761  1.00  0.00     0.034 C 
ENDBRANCH  16  17
ENDBRANCH  11  16
ENDBRANCH   7  10
ENDBRANCH   1   6
BRANCH   5  19
HETATM   19  N   UNL     1     -40.932  57.540 -50.532  1.00  0.00    -0.382 N 
HETATM   20  H   UNL     1     -41.031  58.450 -50.990  1.00  0.00     0.157 HD
HETATM   21  H   UNL     1     -40.020  57.413 -50.097  1.00  0.00     0.157 HD
ENDBRANCH   5  19
BRANCH   4  22
HETATM   22  C   UNL     1     -43.741  57.879 -51.623  1.00  0.00     0.251 C 
BRANCH  22  23
HETATM   23  C   UNL     1     -44.011  57.668 -53.090  1.00  0.00     0.241 C 
HETATM   24  N   UNL     1     -43.025  56.952 -53.748  1.00  0.00    -0.326 N 
HETATM   25  H   UNL     1     -42.379  56.420 -53.173  1.00  0.00     0.169 HD
HETATM   26  O   UNL     1     -45.037  58.119 -53.600  1.00  0.00    -0.271 OA
BRANCH  24  27
HETATM   27  C   UNL     1     -42.893  56.791 -55.142  1.00  0.00     0.034 A 
HETATM   28  C   UNL     1     -43.145  55.587 -55.807  1.00  0.00     0.031 A 
HETATM   29  C   UNL     1     -43.043  55.509 -57.201  1.00  0.00     0.026 A 
HETATM   30  C   UNL     1     -42.683  56.635 -57.935  1.00  0.00     0.034 A 
HETATM   31 CL   UNL     1     -42.564  56.539 -59.647  1.00  0.00    -0.084 Cl
HETATM   32  C   UNL     1     -42.428  57.840 -57.286  1.00  0.00     0.026 A 
HETATM   33  C   UNL     1     -42.539  57.919 -55.894  1.00  0.00     0.031 A 
ENDBRANCH  24  27
ENDBRANCH  22  23
ENDBRANCH   4  22
TORSDOF 8
ENDMDL
MODEL 4
REMARK VINA RESULT:      -7.2      2.711      4.338
REMARK  8 active torsions:
REMARK  status: ('A' for Active; 'I' for Inactive)
REMARK    1  A    between atoms: C_2  and  O_3 
REMARK    2  A    between atoms: O_3  and  C_4 
REMARK    3  A    between atoms: C_5  and  N_6 
REMARK       I    between atoms: N_6  and  C_7 
REMARK    4  A    between atoms: C_7  and  C_8 
REMARK    5  A    between atoms: N_11  and  C_12 
REMARK    6  A    between atoms: C_12  and  C_13 
REMARK       I    between atoms: C_13  and  N_14 
REMARK    7  A    between atoms: N_14  and  C_15 
REMARK    8  A    between atoms: C_23  and  N_24 
ROOT
HETATM    1  C   UNL     1     -42.517  57.642 -57.023  1.00  0.00     0.187 A 
HETATM    2  N   UNL     1     -42.784  56.286 -57.049  1.00  0.00    -0.150 NA
HETATM    3  N   UNL     1     -42.857  55.840 -55.806  1.00  0.00     0.007 NA
HETATM    4  N   UNL     1     -42.641  56.886 -54.993  1.00  0.00    -0.248 N 
HETATM    5  C   UNL     1     -42.339  58.028 -55.697  1.00  0.00     0.151 A 
ENDROOT
BRANCH   1   6
HETATM    6  C   UNL     1     -42.360  58.382 -58.271  1.00  0.00     0.280 C 
HETATM    7  N   UNL     1     -43.343  58.422 -59.235  1.00  0.00    -0.319 N 
HETATM    8  H   UNL     1     -43.217  59.227 -59.837  1.00  0.00     0.169 HD
HETATM    9  O   UNL     1     -41.378  59.108 -58.458  1.00  0.00    -0.265 OA
BRANCH   7  10
HETATM   10  C   UNL     1     -44.377  57.535 -59.589  1.00  0.00     0.068 A 
HETATM   11  C   UNL     1     -45.732  57.670 -59.232  1.00  0.00     0.095 A 
HETATM   12  C   UNL     1     -46.658  56.735 -59.716  1.00  0.00     0.039 A 
HETATM   13  C   UNL     1     -46.245  55.655 -60.500  1.00  0.00     0.003 A 
HETATM   14  C   UNL     1     -44.898  55.482 -60.791  1.00  0.00     0.002 A 
HETATM   15  C   UNL     1     -43.969  56.412 -60.329  1.00  0.00     0.032 A 
BRANCH  11  16
HETATM   16  O   UNL     1     -46.055  58.671 -58.352  1.00  0.00    -0.349 OA
BRANCH  16  17
HETATM   17  C   UNL     1     -46.110  58.348 -56.964  1.00  0.00     0.171 C 
HETATM   18  C   UNL     1     -45.611  59.542 -56.172  1.00  0.00     0.034 C 
ENDBRANCH  16  17
ENDBRANCH  11  16
ENDBRANCH   7  10
ENDBRANCH   1   6
BRANCH   5  19
HETATM   19  N   UNL     1     -41.963  59.179 -55.095  1.00  0.00    -0.382 N 
HETATM   20  H   UNL     1     -41.458  59.945 -55.549  1.00  0.00     0.157 HD
HETATM   21  H   UNL     1     -42.078  59.321 -54.093  1.00  0.00     0.157 HD
ENDBRANCH   5  19
BRANCH   4  22
HETATM   22  C   UNL     1     -42.842  56.705 -53.577  1.00  0.00     0.251 C 
BRANCH  22  23
HETATM   23  C   UNL     1     -42.527  55.305 -53.117  1.00  0.00     0.241 C 
HETATM   24  N   UNL     1     -41.221  54.913 -53.355  1.00  0.00    -0.326 N 
HETATM   25  H   UNL     1     -40.547  55.647 -53.553  1.00  0.00     0.169 HD
HETATM   26  O   UNL     1     -43.400  54.620 -52.583  1.00  0.00    -0.271 OA
BRANCH  24  27
HETATM   27  C   UNL     1     -40.702  53.607 -53.240  1.00  0.00     0.034 A 
HETATM   28  C   UNL     1     -40.158  53.096 -52.057  1.00  0.00     0.031 A 
HETATM   29  C   UNL     1     -39.706  51.773 -51.997  1.00  0.00     0.026 A 
HETATM   30  C   UNL     1     -39.790  50.958 -53.121  1.00  0.00     0.034 A 
HETATM   31 CL   UNL     1     -39.239  49.331 -53.043  1.00  0.00    -0.084 Cl
HETATM   32  C   UNL     1     -40.328  51.454 -54.305  1.00  0.00     0.026 A 
HETATM   33  C   UNL     1     -40.788  52.774 -54.362  1.00  0.00     0.031 A 
ENDBRANCH  24  27
ENDBRANCH  22  23
ENDBRANCH   4  22
TORSDOF 8
ENDMDL
MODEL 5
REMARK VINA RESULT:      -6.9      2.500      4.141
REMARK  8 active torsions:
REMARK  status: ('A' for Active; 'I' for Inactive)
REMARK    1  A    between atoms: C_2  and  O_3 
REMARK    2  A    between atoms: O_3  and  C_4 
REMARK    3  A    between atoms: C_5  and  N_6 
REMARK       I    between atoms: N_6  and  C_7 
REMARK    4  A    between atoms: C_7  and  C_8 
REMARK    5  A    between atoms: N_11  and  C_12 
REMARK    6  A    between atoms: C_12  and  C_13 
REMARK       I    between atoms: C_13  and  N_14 
REMARK    7  A    between atoms: N_14  and  C_15 
REMARK    8  A    between atoms: C_23  and  N_24 
ROOT
HETATM    1  C   UNL     1     -43.066  60.203 -56.182  1.00  0.00     0.187 A 
HETATM    2  N   UNL     1     -41.710  59.990 -56.019  1.00  0.00    -0.150 NA
HETATM    3  N   UNL     1     -41.495  59.503 -54.809  1.00  0.00     0.007 NA
HETATM    4  N   UNL     1     -42.687  59.405 -54.200  1.00  0.00    -0.248 N 
HETATM    5  C   UNL     1     -43.703  59.906 -54.980  1.00  0.00     0.151 A 
ENDROOT
BRANCH   1   6
HETATM    6  C   UNL     1     -43.575  60.764 -57.429  1.00  0.00     0.280 C 
HETATM    7  N   UNL     1     -43.948  59.977 -58.497  1.00  0.00    -0.319 N 
HETATM    8  H   UNL     1     -44.578  60.482 -59.107  1.00  0.00     0.169 HD
HETATM    9  O   UNL     1     -43.810  61.973 -57.531  1.00  0.00    -0.265 OA
BRANCH   7  10
HETATM   10  C   UNL     1     -43.547  58.700 -58.933  1.00  0.00     0.068 A 
HETATM   11  C   UNL     1     -44.332  57.532 -58.882  1.00  0.00     0.095 A 
HETATM   12  C   UNL     1     -43.815  56.343 -59.416  1.00  0.00     0.039 A 
HETATM   13  C   UNL     1     -42.523  56.296 -59.946  1.00  0.00     0.003 A 
HETATM   14  C   UNL     1     -41.723  57.432 -59.929  1.00  0.00     0.002 A 
HETATM   15  C   UNL     1     -42.230  58.623 -59.415  1.00  0.00     0.032 A 
BRANCH  11  16
HETATM   16  O   UNL     1     -45.535  57.609 -58.230  1.00  0.00    -0.349 OA
BRANCH  16  17
HETATM   17  C   UNL     1     -46.714  57.275 -58.960  1.00  0.00     0.171 C 
HETATM   18  C   UNL     1     -47.046  58.425 -59.892  1.00  0.00     0.034 C 
ENDBRANCH  16  17
ENDBRANCH  11  16
ENDBRANCH   7  10
ENDBRANCH   1   6
BRANCH   5  19
HETATM   19  N   UNL     1     -44.974  60.028 -54.534  1.00  0.00    -0.382 N 
HETATM   20  H   UNL     1     -45.814  59.921 -55.109  1.00  0.00     0.157 HD
HETATM   21  H   UNL     1     -45.181  60.338 -53.586  1.00  0.00     0.157 HD
ENDBRANCH   5  19
BRANCH   4  22
HETATM   22  C   UNL     1     -42.751  58.733 -52.927  1.00  0.00     0.251 C 
BRANCH  22  23
HETATM   23  C   UNL     1     -42.706  57.233 -53.055  1.00  0.00     0.241 C 
HETATM   24  N   UNL     1     -41.430  56.698 -52.981  1.00  0.00    -0.326 N 
HETATM   25  H   UNL     1     -40.703  57.290 -52.593  1.00  0.00     0.169 HD
HETATM   26  O   UNL     1     -43.747  56.595 -53.211  1.00  0.00    -0.271 OA
BRANCH  24  27
HETATM   27  C   UNL     1     -41.057  55.373 -53.285  1.00  0.00     0.034 A 
HETATM   28  C   UNL     1     -41.050  54.339 -52.343  1.00  0.00     0.031 A 
HETATM   29  C   UNL     1     -40.716  53.034 -52.723  1.00  0.00     0.026 A 
HETATM   30  C   UNL     1     -40.381  52.759 -54.045  1.00  0.00     0.034 A 
HETATM   31 CL   UNL     1     -39.977  51.155 -54.511  1.00  0.00    -0.084 Cl
HETATM   32  C   UNL     1     -40.382  53.779 -54.993  1.00  0.00     0.026 A 
HETATM   33  C   UNL     1     -40.725  55.082 -54.614  1.00  0.00     0.031 A 
ENDBRANCH  24  27
ENDBRANCH  22  23
ENDBRANCH   4  22
TORSDOF 8
ENDMDL
MODEL 6
REMARK VINA RESULT:      -6.8      1.987      2.713
REMARK  8 active torsions:
REMARK  status: ('A' for Active; 'I' for Inactive)
REMARK    1  A    between atoms: C_2  and  O_3 
REMARK    2  A    between atoms: O_3  and  C_4 
REMARK    3  A    between atoms: C_5  and  N_6 
REMARK       I    between atoms: N_6  and  C_7 
REMARK    4  A    between atoms: C_7  and  C_8 
REMARK    5  A    between atoms: N_11  and  C_12 
REMARK    6  A    between atoms: C_12  and  C_13 
REMARK       I    between atoms: C_13  and  N_14 
REMARK    7  A    between atoms: N_14  and  C_15 
REMARK    8  A    between atoms: C_23  and  N_24 
ROOT
HETATM    1  C   UNL     1     -42.299  59.711 -53.765  1.00  0.00     0.187 A 
HETATM    2  N   UNL     1     -41.064  59.126 -53.975  1.00  0.00    -0.150 NA
HETATM    3  N   UNL     1     -40.855  58.217 -53.039  1.00  0.00     0.007 NA
HETATM    4  N   UNL     1     -41.933  58.214 -52.238  1.00  0.00    -0.248 N 
HETATM    5  C   UNL     1     -42.837  59.187 -52.593  1.00  0.00     0.151 A 
ENDROOT
BRANCH   1   6
HETATM    6  C   UNL     1     -42.766  60.773 -54.650  1.00  0.00     0.280 C 
HETATM    7  N   UNL     1     -43.281  60.520 -55.902  1.00  0.00    -0.319 N 
HETATM    8  H   UNL     1     -43.854  61.294 -56.213  1.00  0.00     0.169 HD
HETATM    9  O   UNL     1     -42.833  61.943 -54.256  1.00  0.00    -0.265 OA
BRANCH   7  10
HETATM   10  C   UNL     1     -43.078  59.481 -56.831  1.00  0.00     0.068 A 
HETATM   11  C   UNL     1     -41.976  59.364 -57.700  1.00  0.00     0.095 A 
HETATM   12  C   UNL     1     -41.881  58.234 -58.526  1.00  0.00     0.039 A 
HETATM   13  C   UNL     1     -42.884  57.262 -58.531  1.00  0.00     0.003 A 
HETATM   14  C   UNL     1     -44.006  57.417 -57.726  1.00  0.00     0.002 A 
HETATM   15  C   UNL     1     -44.106  58.526 -56.889  1.00  0.00     0.032 A 
BRANCH  11  16
HETATM   16  O   UNL     1     -41.095  60.413 -57.747  1.00  0.00    -0.349 OA
BRANCH  16  17
HETATM   17  C   UNL     1     -41.234  61.354 -58.810  1.00  0.00     0.171 C 
HETATM   18  C   UNL     1     -41.423  62.734 -58.208  1.00  0.00     0.034 C 
ENDBRANCH  16  17
ENDBRANCH  11  16
ENDBRANCH   7  10
ENDBRANCH   1   6
BRANCH   5  19
HETATM   19  N   UNL     1     -43.942  59.459 -51.862  1.00  0.00    -0.382 N 
HETATM   20  H   UNL     1     -44.194  60.380 -51.494  1.00  0.00     0.157 HD
HETATM   21  H   UNL     1     -44.565  58.721 -51.539  1.00  0.00     0.157 HD
ENDBRANCH   5  19
BRANCH   4  22
HETATM   22  C   UNL     1     -42.037  57.184 -51.235  1.00  0.00     0.251 C 
BRANCH  22  23
HETATM   23  C   UNL     1     -42.057  55.797 -51.822  1.00  0.00     0.241 C 
HETATM   24  N   UNL     1     -40.853  55.121 -51.714  1.00  0.00    -0.326 N 
HETATM   25  H   UNL     1     -40.179  55.481 -51.045  1.00  0.00     0.169 HD
HETATM   26  O   UNL     1     -43.085  55.360 -52.339  1.00  0.00    -0.271 OA
BRANCH  24  27
HETATM   27  C   UNL     1     -40.508  53.914 -52.356  1.00  0.00     0.034 A 
HETATM   28  C   UNL     1     -40.096  52.767 -51.671  1.00  0.00     0.031 A 
HETATM   29  C   UNL     1     -39.815  51.585 -52.367  1.00  0.00     0.026 A 
HETATM   30  C   UNL     1     -39.940  51.549 -53.752  1.00  0.00     0.034 A 
HETATM   31 CL   UNL     1     -39.600  50.096 -54.605  1.00  0.00    -0.084 Cl
HETATM   32  C   UNL     1     -40.347  52.685 -54.448  1.00  0.00     0.026 A 
HETATM   33  C   UNL     1     -40.636  53.862 -53.750  1.00  0.00     0.031 A 
ENDBRANCH  24  27
ENDBRANCH  22  23
ENDBRANCH   4  22
TORSDOF 8
ENDMDL
MODEL 7
REMARK VINA RESULT:      -6.8      2.586      4.245
REMARK  8 active torsions:
REMARK  status: ('A' for Active; 'I' for Inactive)
REMARK    1  A    between atoms: C_2  and  O_3 
REMARK    2  A    between atoms: O_3  and  C_4 
REMARK    3  A    between atoms: C_5  and  N_6 
REMARK       I    between atoms: N_6  and  C_7 
REMARK    4  A    between atoms: C_7  and  C_8 
REMARK    5  A    between atoms: N_11  and  C_12 
REMARK    6  A    between atoms: C_12  and  C_13 
REMARK       I    between atoms: C_13  and  N_14 
REMARK    7  A    between atoms: N_14  and  C_15 
REMARK    8  A    between atoms: C_23  and  N_24 
ROOT
HETATM    1  C   UNL     1     -44.591  59.002 -56.659  1.00  0.00     0.187 A 
HETATM    2  N   UNL     1     -45.664  58.680 -55.850  1.00  0.00    -0.150 NA
HETATM    3  N   UNL     1     -45.210  58.137 -54.733  1.00  0.00     0.007 NA
HETATM    4  N   UNL     1     -43.870  58.108 -54.819  1.00  0.00    -0.248 N 
HETATM    5  C   UNL     1     -43.426  58.560 -56.039  1.00  0.00     0.151 A 
ENDROOT
BRANCH   1   6
HETATM    6  C   UNL     1     -44.817  59.596 -57.973  1.00  0.00     0.280 C 
HETATM    7  N   UNL     1     -45.144  58.843 -59.079  1.00  0.00    -0.319 N 
HETATM    8  H   UNL     1     -45.591  59.419 -59.781  1.00  0.00     0.169 HD
HETATM    9  O   UNL     1     -44.845  60.824 -58.117  1.00  0.00    -0.265 OA
BRANCH   7  10
HETATM   10  C   UNL     1     -44.884  57.507 -59.441  1.00  0.00     0.068 A 
HETATM   11  C   UNL     1     -43.614  56.900 -59.473  1.00  0.00     0.095 A 
HETATM   12  C   UNL     1     -43.523  55.537 -59.794  1.00  0.00     0.039 A 
HETATM   13  C   UNL     1     -44.661  54.800 -60.126  1.00  0.00     0.003 A 
HETATM   14  C   UNL     1     -45.904  55.419 -60.165  1.00  0.00     0.002 A 
HETATM   15  C   UNL     1     -46.012  56.768 -59.835  1.00  0.00     0.032 A 
BRANCH  11  16
HETATM   16  O   UNL     1     -42.524  57.705 -59.269  1.00  0.00    -0.349 OA
BRANCH  16  17
HETATM   17  C   UNL     1     -41.700  58.011 -60.392  1.00  0.00     0.171 C 
HETATM   18  C   UNL     1     -41.968  59.445 -60.809  1.00  0.00     0.034 C 
ENDBRANCH  16  17
ENDBRANCH  11  16
ENDBRANCH   7  10
ENDBRANCH   1   6
BRANCH   5  19
HETATM   19  N   UNL     1     -42.125  58.510 -56.406  1.00  0.00    -0.382 N 
HETATM   20  H   UNL     1     -41.588  57.652 -56.560  1.00  0.00     0.157 HD
HETATM   21  H   UNL     1     -41.552  59.350 -56.462  1.00  0.00     0.157 HD
ENDBRANCH   5  19
BRANCH   4  22
HETATM   22  C   UNL     1     -43.119  57.724 -53.651  1.00  0.00     0.251 C 
BRANCH  22  23
HETATM   23  C   UNL     1     -42.873  56.240 -53.577  1.00  0.00     0.241 C 
HETATM   24  N   UNL     1     -41.563  55.899 -53.283  1.00  0.00    -0.326 N 
HETATM   25  H   UNL     1     -40.972  56.626 -52.891  1.00  0.00     0.169 HD
HETATM   26  O   UNL     1     -43.797  55.450 -53.770  1.00  0.00    -0.271 OA
BRANCH  24  27
HETATM   27  C   UNL     1     -40.992  54.612 -53.365  1.00  0.00     0.034 A 
HETATM   28  C   UNL     1     -40.736  53.810 -52.249  1.00  0.00     0.031 A 
HETATM   29  C   UNL     1     -40.213  52.521 -52.405  1.00  0.00     0.026 A 
HETATM   30  C   UNL     1     -39.939  52.031 -53.678  1.00  0.00     0.034 A 
HETATM   31 CL   UNL     1     -39.303  50.446 -53.868  1.00  0.00    -0.084 Cl
HETATM   32  C   UNL     1     -40.189  52.819 -54.798  1.00  0.00     0.026 A 
HETATM   33  C   UNL     1     -40.720  54.104 -54.642  1.00  0.00     0.031 A 
ENDBRANCH  24  27
ENDBRANCH  22  23
ENDBRANCH   4  22
TORSDOF 8
ENDMDL
MODEL 8
REMARK VINA RESULT:      -6.8      2.856      6.552
REMARK  8 active torsions:
REMARK  status: ('A' for Active; 'I' for Inactive)
REMARK    1  A    between atoms: C_2  and  O_3 
REMARK    2  A    between atoms: O_3  and  C_4 
REMARK    3  A    between atoms: C_5  and  N_6 
REMARK       I    between atoms: N_6  and  C_7 
REMARK    4  A    between atoms: C_7  and  C_8 
REMARK    5  A    between atoms: N_11  and  C_12 
REMARK    6  A    between atoms: C_12  and  C_13 
REMARK       I    between atoms: C_13  and  N_14 
REMARK    7  A    between atoms: N_14  and  C_15 
REMARK    8  A    between atoms: C_23  and  N_24 
ROOT
HETATM    1  C   UNL     1     -41.315  54.349 -50.824  1.00  0.00     0.187 A 
HETATM    2  N   UNL     1     -42.408  53.525 -51.022  1.00  0.00    -0.150 NA
HETATM    3  N   UNL     1     -43.400  54.242 -51.519  1.00  0.00     0.007 NA
HETATM    4  N   UNL     1     -42.960  55.505 -51.639  1.00  0.00    -0.248 N 
HETATM    5  C   UNL     1     -41.687  55.652 -51.142  1.00  0.00     0.151 A 
ENDROOT
BRANCH   1   6
HETATM    6  C   UNL     1     -40.085  53.809 -50.255  1.00  0.00     0.280 C 
HETATM    7  N   UNL     1     -39.291  52.907 -50.930  1.00  0.00    -0.319 N 
HETATM    8  H   UNL     1     -38.350  52.915 -50.558  1.00  0.00     0.169 HD
HETATM    9  O   UNL     1     -39.638  54.240 -49.186  1.00  0.00    -0.265 OA
BRANCH   7  10
HETATM   10  C   UNL     1     -39.563  51.942 -51.919  1.00  0.00     0.068 A 
HETATM   11  C   UNL     1     -39.879  52.214 -53.264  1.00  0.00     0.095 A 
HETATM   12  C   UNL     1     -40.063  51.141 -54.148  1.00  0.00     0.039 A 
HETATM   13  C   UNL     1     -39.984  49.820 -53.699  1.00  0.00     0.003 A 
HETATM   14  C   UNL     1     -39.744  49.554 -52.357  1.00  0.00     0.002 A 
HETATM   15  C   UNL     1     -39.546  50.611 -51.471  1.00  0.00     0.032 A 
BRANCH  11  16
HETATM   16  O   UNL     1     -40.075  53.525 -53.613  1.00  0.00    -0.349 OA
BRANCH  16  17
HETATM   17  C   UNL     1     -40.377  53.816 -54.976  1.00  0.00     0.171 C 
HETATM   18  C   UNL     1     -40.554  55.316 -55.120  1.00  0.00     0.034 C 
ENDBRANCH  16  17
ENDBRANCH  11  16
ENDBRANCH   7  10
ENDBRANCH   1   6
BRANCH   5  19
HETATM   19  N   UNL     1     -41.076  56.855 -51.041  1.00  0.00    -0.382 N 
HETATM   20  H   UNL     1     -40.695  57.253 -50.178  1.00  0.00     0.157 HD
HETATM   21  H   UNL     1     -41.043  57.506 -51.824  1.00  0.00     0.157 HD
ENDBRANCH   5  19
BRANCH   4  22
HETATM   22  C   UNL     1     -43.795  56.458 -52.326  1.00  0.00     0.251 C 
BRANCH  22  23
HETATM   23  C   UNL     1     -43.752  56.299 -53.823  1.00  0.00     0.241 C 
HETATM   24  N   UNL     1     -43.525  57.481 -54.510  1.00  0.00    -0.326 N 
HETATM   25  H   UNL     1     -43.151  58.260 -53.977  1.00  0.00     0.169 HD
HETATM   26  O   UNL     1     -43.914  55.190 -54.332  1.00  0.00    -0.271 OA
BRANCH  24  27
HETATM   27  C   UNL     1     -43.651  57.681 -55.900  1.00  0.00     0.034 A 
HETATM   28  C   UNL     1     -42.596  57.513 -56.802  1.00  0.00     0.031 A 
HETATM   29  C   UNL     1     -42.802  57.681 -58.176  1.00  0.00     0.026 A 
HETATM   30  C   UNL     1     -44.064  58.022 -58.653  1.00  0.00     0.034 A 
HETATM   31 CL   UNL     1     -44.316  58.221 -60.341  1.00  0.00    -0.084 Cl
HETATM   32  C   UNL     1     -45.123  58.193 -57.766  1.00  0.00     0.026 A 
HETATM   33  C   UNL     1     -44.918  58.017 -56.393  1.00  0.00     0.031 A 
ENDBRANCH  24  27
ENDBRANCH  22  23
ENDBRANCH   4  22
TORSDOF 8
ENDMDL
MODEL 9
REMARK VINA RESULT:      -6.7      2.912      5.919
REMARK  8 active torsions:
REMARK  status: ('A' for Active; 'I' for Inactive)
REMARK    1  A    between atoms: C_2  and  O_3 
REMARK    2  A    between atoms: O_3  and  C_4 
REMARK    3  A    between atoms: C_5  and  N_6 
REMARK       I    between atoms: N_6  and  C_7 
REMARK    4  A    between atoms: C_7  and  C_8 
REMARK    5  A    between atoms: N_11  and  C_12 
REMARK    6  A    between atoms: C_12  and  C_13 
REMARK       I    between atoms: C_13  and  N_14 
REMARK    7  A    between atoms: N_14  and  C_15 
REMARK    8  A    between atoms: C_23  and  N_24 
ROOT
HETATM    1  C   UNL     1     -43.381  56.382 -51.003  1.00  0.00     0.187 A 
HETATM    2  N   UNL     1     -44.366  57.333 -51.191  1.00  0.00    -0.150 NA
HETATM    3  N   UNL     1     -43.795  58.515 -51.351  1.00  0.00     0.007 NA
HETATM    4  N   UNL     1     -42.468  58.332 -51.267  1.00  0.00    -0.248 N 
HETATM    5  C   UNL     1     -42.149  57.029 -50.967  1.00  0.00     0.151 A 
ENDROOT
BRANCH   1   6
HETATM    6  C   UNL     1     -43.744  54.987 -50.775  1.00  0.00     0.280 C 
HETATM    7  N   UNL     1     -43.019  53.939 -51.299  1.00  0.00    -0.319 N 
HETATM    8  H   UNL     1     -43.192  53.091 -50.774  1.00  0.00     0.169 HD
HETATM    9  O   UNL     1     -44.653  54.688 -49.993  1.00  0.00    -0.265 OA
BRANCH   7  10
HETATM   10  C   UNL     1     -42.206  53.811 -52.442  1.00  0.00     0.068 A 
HETATM   11  C   UNL     1     -42.553  54.222 -53.743  1.00  0.00     0.095 A 
HETATM   12  C   UNL     1     -41.608  54.086 -54.771  1.00  0.00     0.039 A 
HETATM   13  C   UNL     1     -40.361  53.507 -54.528  1.00  0.00     0.003 A 
HETATM   14  C   UNL     1     -40.048  53.035 -53.259  1.00  0.00     0.002 A 
HETATM   15  C   UNL     1     -40.971  53.178 -52.225  1.00  0.00     0.032 A 
BRANCH  11  16
HETATM   16  O   UNL     1     -43.836  54.657 -53.947  1.00  0.00    -0.349 OA
BRANCH  16  17
HETATM   17  C   UNL     1     -44.067  55.592 -54.999  1.00  0.00     0.171 C 
HETATM   18  C   UNL     1     -44.790  56.795 -54.425  1.00  0.00     0.034 C 
ENDBRANCH  16  17
ENDBRANCH  11  16
ENDBRANCH   7  10
ENDBRANCH   1   6
BRANCH   5  19
HETATM   19  N   UNL     1     -40.883  56.628 -50.711  1.00  0.00    -0.382 N 
HETATM   20  H   UNL     1     -40.113  57.244 -50.437  1.00  0.00     0.157 HD
HETATM   21  H   UNL     1     -40.582  55.669 -50.875  1.00  0.00     0.157 HD
ENDBRANCH   5  19
BRANCH   4  22
HETATM   22  C   UNL     1     -41.604  59.441 -51.585  1.00  0.00     0.251 C 
BRANCH  22  23
HETATM   23  C   UNL     1     -41.186  59.460 -53.032  1.00  0.00     0.241 C 
HETATM   24  N   UNL     1     -42.214  59.756 -53.913  1.00  0.00    -0.326 N 
HETATM   25  H   UNL     1     -43.048  60.183 -53.522  1.00  0.00     0.169 HD
HETATM   26  O   UNL     1     -40.018  59.224 -53.341  1.00  0.00    -0.271 OA
BRANCH  24  27
HETATM   27  C   UNL     1     -42.178  59.630 -55.316  1.00  0.00     0.034 A 
HETATM   28  C   UNL     1     -42.167  58.399 -55.980  1.00  0.00     0.031 A 
HETATM   29  C   UNL     1     -42.181  58.345 -57.379  1.00  0.00     0.026 A 
HETATM   30  C   UNL     1     -42.202  59.523 -58.119  1.00  0.00     0.034 A 
HETATM   31 CL   UNL     1     -42.226  59.455 -59.836  1.00  0.00    -0.084 Cl
HETATM   32  C   UNL     1     -42.212  60.755 -57.471  1.00  0.00     0.026 A 
HETATM   33  C   UNL     1     -42.207  60.808 -56.074  1.00  0.00     0.031 A 
ENDBRANCH  24  27
ENDBRANCH  22  23
ENDBRANCH   4  22
TORSDOF 8
ENDMDL
MODEL 10
REMARK VINA RESULT:      -6.7      2.520      3.910
REMARK  8 active torsions:
REMARK  status: ('A' for Active; 'I' for Inactive)
REMARK    1  A    between atoms: C_2  and  O_3 
REMARK    2  A    between atoms: O_3  and  C_4 
REMARK    3  A    between atoms: C_5  and  N_6 
REMARK       I    between atoms: N_6  and  C_7 
REMARK    4  A    between atoms: C_7  and  C_8 
REMARK    5  A    between atoms: N_11  and  C_12 
REMARK    6  A    between atoms: C_12  and  C_13 
REMARK       I    between atoms: C_13  and  N_14 
REMARK    7  A    between atoms: N_14  and  C_15 
REMARK    8  A    between atoms: C_23  and  N_24 
ROOT
HETATM    1  C   UNL     1     -43.101  57.396 -55.397  1.00  0.00     0.187 A 
HETATM    2  N   UNL     1     -42.022  57.995 -54.774  1.00  0.00    -0.150 NA
HETATM    3  N   UNL     1     -42.053  57.699 -53.486  1.00  0.00     0.007 NA
HETATM    4  N   UNL     1     -43.131  56.925 -53.279  1.00  0.00    -0.248 N 
HETATM    5  C   UNL     1     -43.875  56.768 -54.425  1.00  0.00     0.151 A 
ENDROOT
BRANCH   1   6
HETATM    6  C   UNL     1     -43.318  57.586 -56.827  1.00  0.00     0.280 C 
HETATM    7  N   UNL     1     -43.342  58.833 -57.413  1.00  0.00    -0.319 N 
HETATM    8  H   UNL     1     -43.155  58.762 -58.405  1.00  0.00     0.169 HD
HETATM    9  O   UNL     1     -43.366  56.618 -57.595  1.00  0.00    -0.265 OA
BRANCH   7  10
HETATM   10  C   UNL     1     -43.672  60.113 -56.929  1.00  0.00     0.068 A 
HETATM   11  C   UNL     1     -42.806  61.223 -56.891  1.00  0.00     0.095 A 
HETATM   12  C   UNL     1     -43.301  62.454 -56.438  1.00  0.00     0.039 A 
HETATM   13  C   UNL     1     -44.617  62.576 -55.984  1.00  0.00     0.003 A 
HETATM   14  C   UNL     1     -45.448  61.463 -55.955  1.00  0.00     0.002 A 
HETATM   15  C   UNL     1     -44.973  60.237 -56.415  1.00  0.00     0.032 A 
BRANCH  11  16
HETATM   16  O   UNL     1     -41.493  61.009 -57.222  1.00  0.00    -0.349 OA
BRANCH  16  17
HETATM   17  C   UNL     1     -41.097  61.242 -58.572  1.00  0.00     0.171 C 
HETATM   18  C   UNL     1     -40.323  62.545 -58.629  1.00  0.00     0.034 C 
ENDBRANCH  16  17
ENDBRANCH  11  16
ENDBRANCH   7  10
ENDBRANCH   1   6
BRANCH   5  19
HETATM   19  N   UNL     1     -45.069  56.132 -54.439  1.00  0.00    -0.382 N 
HETATM   20  H   UNL     1     -45.982  56.594 -54.423  1.00  0.00     0.157 HD
HETATM   21  H   UNL     1     -45.136  55.119 -54.366  1.00  0.00     0.157 HD
ENDBRANCH   5  19
BRANCH   4  22
HETATM   22  C   UNL     1     -43.297  56.316 -51.984  1.00  0.00     0.251 C 
BRANCH  22  23
HETATM   23  C   UNL     1     -42.796  54.896 -51.937  1.00  0.00     0.241 C 
HETATM   24  N   UNL     1     -41.527  54.728 -52.466  1.00  0.00    -0.326 N 
HETATM   25  H   UNL     1     -40.959  55.562 -52.581  1.00  0.00     0.169 HD
HETATM   26  O   UNL     1     -43.501  54.008 -51.458  1.00  0.00    -0.271 OA
BRANCH  24  27
HETATM   27  C   UNL     1     -40.895  53.501 -52.758  1.00  0.00     0.034 A 
HETATM   28  C   UNL     1     -40.146  52.779 -51.824  1.00  0.00     0.031 A 
HETATM   29  C   UNL     1     -39.586  51.543 -52.165  1.00  0.00     0.026 A 
HETATM   30  C   UNL     1     -39.769  51.026 -53.443  1.00  0.00     0.034 A 
HETATM   31 CL   UNL     1     -39.086  49.504 -53.859  1.00  0.00    -0.084 Cl
HETATM   32  C   UNL     1     -40.512  51.735 -54.384  1.00  0.00     0.026 A 
HETATM   33  C   UNL     1     -41.079  52.966 -54.039  1.00  0.00     0.031 A 
ENDBRANCH  24  27
ENDBRANCH  22  23
ENDBRANCH   4  22
TORSDOF 8
ENDMDL
