MODEL 1
REMARK VINA RESULT:      -7.8      0.000      0.000
REMARK  5 active torsions:
REMARK  status: ('A' for Active; 'I' for Inactive)
REMARK    1  A    between atoms: C_8  and  N_9 
REMARK       I    between atoms: N_9  and  C_10 
REMARK    2  A    between atoms: C_10  and  C_11 
REMARK    3  A    between atoms: C_11  and  N_12 
REMARK    4  A    between atoms: N_12  and  C_13 
REMARK    5  A    between atoms: C_13  and  C_14 
ROOT
HETATM    1  C   UNL     1     -42.573  55.217 -54.391  1.00  0.00     0.372 C 
ENDROOT
BRANCH   1   2
HETATM    2  C   UNL     1     -42.834  56.252 -53.289  1.00  0.00     0.250 C 
HETATM    3  N   UNL     1     -41.721  57.003 -52.981  1.00  0.00    -0.322 N 
HETATM    4  H   UNL     1     -40.906  56.819 -53.556  1.00  0.00     0.169 HD
HETATM    5  O   UNL     1     -43.962  56.383 -52.826  1.00  0.00    -0.271 OA
BRANCH   3   6
HETATM    6  C   UNL     1     -41.618  57.992 -52.018  1.00  0.00     0.085 A 
HETATM    7  C   UNL     1     -41.346  57.696 -50.695  1.00  0.00     0.052 A 
HETATM    8  C   UNL     1     -41.092  56.424 -49.980  1.00  0.00     0.072 C 
HETATM    9  N   UNL     1     -41.319  58.896 -50.042  1.00  0.00    -0.280 N 
HETATM   10  H   UNL     1     -41.141  59.071 -49.059  1.00  0.00     0.189 HD
HETATM   11  N   UNL     1     -41.563  59.946 -50.829  1.00  0.00    -0.177 NA
HETATM   12  C   UNL     1     -41.756  59.412 -52.045  1.00  0.00     0.079 A 
HETATM   13  C   UNL     1     -42.110  60.328 -53.159  1.00  0.00     0.075 C 
ENDBRANCH   3   6
ENDBRANCH   1   2
BRANCH   1  14
HETATM   14  N   UNL     1     -42.153  53.915 -53.825  1.00  0.00     0.100 N 
HETATM   15  H   UNL     1     -42.540  53.173 -54.418  1.00  0.00     0.317 HD
BRANCH  14  16
HETATM   16  C   UNL     1     -40.687  53.762 -53.823  1.00  0.00     0.251 C 
HETATM   17  C   UNL     1     -39.994  54.248 -55.106  1.00  0.00     0.048 C 
BRANCH  16  18
HETATM   18  C   UNL     1     -40.270  52.322 -53.519  1.00  0.00    -0.002 A 
HETATM   19  C   UNL     1     -39.964  51.825 -52.231  1.00  0.00     0.064 A 
HETATM   20 CL   UNL     1     -39.977  52.875 -50.845  1.00  0.00    -0.082 Cl
HETATM   21  C   UNL     1     -39.653  50.462 -52.060  1.00  0.00     0.056 A 
HETATM   22 CL   UNL     1     -39.272  49.777 -50.515  1.00  0.00    -0.083 Cl
HETATM   23  C   UNL     1     -39.650  49.592 -53.153  1.00  0.00     0.026 A 
HETATM   24  C   UNL     1     -39.948  50.069 -54.423  1.00  0.00     0.002 A 
HETATM   25  C   UNL     1     -40.253  51.417 -54.603  1.00  0.00     0.011 A 
ENDBRANCH  16  18
ENDBRANCH  14  16
ENDBRANCH   1  14
TORSDOF 5
ENDMDL
MODEL 2
REMARK VINA RESULT:      -7.6      1.520      1.842
REMARK  5 active torsions:
REMARK  status: ('A' for Active; 'I' for Inactive)
REMARK    1  A    between atoms: C_8  and  N_9 
REMARK       I    between atoms: N_9  and  C_10 
REMARK    2  A    between atoms: C_10  and  C_11 
REMARK    3  A    between atoms: C_11  and  N_12 
REMARK    4  A    between atoms: N_12  and  C_13 
REMARK    5  A    between atoms: C_13  and  C_14 
ROOT
HETATM    1  C   UNL     1     -42.976  54.198 -52.156  1.00  0.00     0.372 C 
ENDROOT
BRANCH   1   2
HETATM    2  C   UNL     1     -42.694  55.592 -51.580  1.00  0.00     0.250 C 
HETATM    3  N   UNL     1     -43.129  56.611 -52.398  1.00  0.00    -0.322 N 
HETATM    4  H   UNL     1     -43.625  56.311 -53.232  1.00  0.00     0.169 HD
HETATM    5  O   UNL     1     -42.191  55.704 -50.468  1.00  0.00    -0.271 OA
BRANCH   3   6
HETATM    6  C   UNL     1     -42.998  57.972 -52.183  1.00  0.00     0.085 A 
HETATM    7  C   UNL     1     -41.865  58.665 -52.563  1.00  0.00     0.052 A 
HETATM    8  C   UNL     1     -40.614  58.254 -53.243  1.00  0.00     0.072 C 
HETATM    9  N   UNL     1     -42.082  59.964 -52.200  1.00  0.00    -0.280 N 
HETATM   10  H   UNL     1     -41.469  60.762 -52.327  1.00  0.00     0.189 HD
HETATM   11  N   UNL     1     -43.257  60.170 -51.602  1.00  0.00    -0.177 NA
HETATM   12  C   UNL     1     -43.833  58.958 -51.576  1.00  0.00     0.079 A 
HETATM   13  C   UNL     1     -45.157  58.830 -50.915  1.00  0.00     0.075 C 
ENDBRANCH   3   6
ENDBRANCH   1   2
BRANCH   1  14
HETATM   14  N   UNL     1     -42.402  54.044 -53.512  1.00  0.00     0.100 N 
HETATM   15  H   UNL     1     -42.664  54.869 -54.061  1.00  0.00     0.317 HD
BRANCH  14  16
HETATM   16  C   UNL     1     -40.930  53.979 -53.483  1.00  0.00     0.251 C 
HETATM   17  C   UNL     1     -40.239  54.655 -54.678  1.00  0.00     0.048 C 
BRANCH  16  18
HETATM   18  C   UNL     1     -40.430  52.541 -53.337  1.00  0.00    -0.002 A 
HETATM   19  C   UNL     1     -40.038  51.941 -52.118  1.00  0.00     0.064 A 
HETATM   20 CL   UNL     1     -40.033  52.855 -50.638  1.00  0.00    -0.082 Cl
HETATM   21  C   UNL     1     -39.655  50.586 -52.093  1.00  0.00     0.056 A 
HETATM   22 CL   UNL     1     -39.166  49.781 -50.639  1.00  0.00    -0.083 Cl
HETATM   23  C   UNL     1     -39.664  49.824 -53.263  1.00  0.00     0.026 A 
HETATM   24  C   UNL     1     -40.047  50.402 -54.467  1.00  0.00     0.002 A 
HETATM   25  C   UNL     1     -40.424  51.743 -54.504  1.00  0.00     0.011 A 
ENDBRANCH  16  18
ENDBRANCH  14  16
ENDBRANCH   1  14
TORSDOF 5
ENDMDL
MODEL 3
REMARK VINA RESULT:      -7.4      1.888      3.065
REMARK  5 active torsions:
REMARK  status: ('A' for Active; 'I' for Inactive)
REMARK    1  A    between atoms: C_8  and  N_9 
REMARK       I    between atoms: N_9  and  C_10 
REMARK    2  A    between atoms: C_10  and  C_11 
REMARK    3  A    between atoms: C_11  and  N_12 
REMARK    4  A    between atoms: N_12  and  C_13 
REMARK    5  A    between atoms: C_13  and  C_14 
ROOT
HETATM    1  C   UNL     1     -41.818  55.348 -49.692  1.00  0.00     0.372 C 
ENDROOT
BRANCH   1   2
HETATM    2  C   UNL     1     -42.389  56.370 -50.683  1.00  0.00     0.250 C 
HETATM    3  N   UNL     1     -41.414  57.112 -51.314  1.00  0.00    -0.322 N 
HETATM    4  H   UNL     1     -40.460  56.847 -51.089  1.00  0.00     0.169 HD
HETATM    5  O   UNL     1     -43.597  56.416 -50.889  1.00  0.00    -0.271 OA
BRANCH   3   6
HETATM    6  C   UNL     1     -41.599  58.129 -52.233  1.00  0.00     0.085 A 
HETATM    7  C   UNL     1     -41.681  59.454 -51.850  1.00  0.00     0.052 A 
HETATM    8  C   UNL     1     -41.590  60.127 -50.533  1.00  0.00     0.072 C 
HETATM    9  N   UNL     1     -41.862  60.167 -53.001  1.00  0.00    -0.280 N 
HETATM   10  H   UNL     1     -41.957  61.170 -53.110  1.00  0.00     0.189 HD
HETATM   11  N   UNL     1     -41.918  59.412 -54.101  1.00  0.00    -0.177 NA
HETATM   12  C   UNL     1     -41.765  58.157 -53.651  1.00  0.00     0.079 A 
HETATM   13  C   UNL     1     -41.835  57.050 -54.639  1.00  0.00     0.075 C 
ENDBRANCH   3   6
ENDBRANCH   1   2
BRANCH   1  14
HETATM   14  N   UNL     1     -41.929  53.966 -50.211  1.00  0.00     0.100 N 
HETATM   15  H   UNL     1     -42.367  54.011 -51.137  1.00  0.00     0.317 HD
BRANCH  14  16
HETATM   16  C   UNL     1     -40.610  53.331 -50.374  1.00  0.00     0.251 C 
HETATM   17  C   UNL     1     -39.432  54.161 -49.839  1.00  0.00     0.048 C 
BRANCH  16  18
HETATM   18  C   UNL     1     -40.349  52.935 -51.828  1.00  0.00    -0.002 A 
HETATM   19  C   UNL     1     -39.924  51.655 -52.253  1.00  0.00     0.064 A 
HETATM   20 CL   UNL     1     -39.587  50.400 -51.097  1.00  0.00    -0.082 Cl
HETATM   21  C   UNL     1     -39.777  51.384 -53.627  1.00  0.00     0.056 A 
HETATM   22 CL   UNL     1     -39.264  49.841 -54.226  1.00  0.00    -0.083 Cl
HETATM   23  C   UNL     1     -40.055  52.368 -54.579  1.00  0.00     0.026 A 
HETATM   24  C   UNL     1     -40.474  53.629 -54.174  1.00  0.00     0.002 A 
HETATM   25  C   UNL     1     -40.618  53.909 -52.816  1.00  0.00     0.011 A 
ENDBRANCH  16  18
ENDBRANCH  14  16
ENDBRANCH   1  14
TORSDOF 5
ENDMDL
MODEL 4
REMARK VINA RESULT:      -7.4      2.271      3.567
REMARK  5 active torsions:
REMARK  status: ('A' for Active; 'I' for Inactive)
REMARK    1  A    between atoms: C_8  and  N_9 
REMARK       I    between atoms: N_9  and  C_10 
REMARK    2  A    between atoms: C_10  and  C_11 
REMARK    3  A    between atoms: C_11  and  N_12 
REMARK    4  A    between atoms: N_12  and  C_13 
REMARK    5  A    between atoms: C_13  and  C_14 
ROOT
HETATM    1  C   UNL     1     -41.678  55.595 -49.778  1.00  0.00     0.372 C 
ENDROOT
BRANCH   1   2
HETATM    2  C   UNL     1     -42.079  56.645 -50.822  1.00  0.00     0.250 C 
HETATM    3  N   UNL     1     -43.295  56.381 -51.412  1.00  0.00    -0.322 N 
HETATM    4  H   UNL     1     -43.787  55.575 -51.040  1.00  0.00     0.169 HD
HETATM    5  O   UNL     1     -41.367  57.626 -51.009  1.00  0.00    -0.271 OA
BRANCH   3   6
HETATM    6  C   UNL     1     -43.920  57.113 -52.407  1.00  0.00     0.085 A 
HETATM    7  C   UNL     1     -44.100  56.608 -53.680  1.00  0.00     0.052 A 
HETATM    8  C   UNL     1     -43.758  55.308 -54.305  1.00  0.00     0.072 C 
HETATM    9  N   UNL     1     -44.741  57.588 -54.384  1.00  0.00    -0.280 N 
HETATM   10  H   UNL     1     -45.042  57.570 -55.352  1.00  0.00     0.189 HD
HETATM   11  N   UNL     1     -44.980  58.694 -53.677  1.00  0.00    -0.177 NA
HETATM   12  C   UNL     1     -44.478  58.426 -52.462  1.00  0.00     0.079 A 
HETATM   13  C   UNL     1     -44.537  59.495 -51.432  1.00  0.00     0.075 C 
ENDBRANCH   3   6
ENDBRANCH   1   2
BRANCH   1  14
HETATM   14  N   UNL     1     -41.899  54.219 -50.277  1.00  0.00     0.100 N 
HETATM   15  H   UNL     1     -42.305  54.286 -51.217  1.00  0.00     0.317 HD
BRANCH  14  16
HETATM   16  C   UNL     1     -40.638  53.465 -50.391  1.00  0.00     0.251 C 
HETATM   17  C   UNL     1     -39.407  54.194 -49.828  1.00  0.00     0.048 C 
BRANCH  16  18
HETATM   18  C   UNL     1     -40.369  53.027 -51.832  1.00  0.00    -0.002 A 
HETATM   19  C   UNL     1     -39.965  51.729 -52.219  1.00  0.00     0.064 A 
HETATM   20 CL   UNL     1     -39.666  50.498 -51.028  1.00  0.00    -0.082 Cl
HETATM   21  C   UNL     1     -39.809  51.420 -53.584  1.00  0.00     0.056 A 
HETATM   22 CL   UNL     1     -39.320  49.852 -54.138  1.00  0.00    -0.083 Cl
HETATM   23  C   UNL     1     -40.056  52.385 -54.564  1.00  0.00     0.026 A 
HETATM   24  C   UNL     1     -40.454  53.663 -54.196  1.00  0.00     0.002 A 
HETATM   25  C   UNL     1     -40.607  53.981 -52.847  1.00  0.00     0.011 A 
ENDBRANCH  16  18
ENDBRANCH  14  16
ENDBRANCH   1  14
TORSDOF 5
ENDMDL
MODEL 5
REMARK VINA RESULT:      -7.4      2.947      4.365
REMARK  5 active torsions:
REMARK  status: ('A' for Active; 'I' for Inactive)
REMARK    1  A    between atoms: C_8  and  N_9 
REMARK       I    between atoms: N_9  and  C_10 
REMARK    2  A    between atoms: C_10  and  C_11 
REMARK    3  A    between atoms: C_11  and  N_12 
REMARK    4  A    between atoms: N_12  and  C_13 
REMARK    5  A    between atoms: C_13  and  C_14 
ROOT
HETATM    1  C   UNL     1     -42.594  53.929 -55.096  1.00  0.00     0.372 C 
ENDROOT
BRANCH   1   2
HETATM    2  C   UNL     1     -43.084  55.302 -55.573  1.00  0.00     0.250 C 
HETATM    3  N   UNL     1     -42.589  55.652 -56.810  1.00  0.00    -0.322 N 
HETATM    4  H   UNL     1     -42.024  54.941 -57.262  1.00  0.00     0.169 HD
HETATM    5  O   UNL     1     -43.888  55.935 -54.896  1.00  0.00    -0.271 OA
BRANCH   3   6
HETATM    6  C   UNL     1     -42.814  56.830 -57.500  1.00  0.00     0.085 A 
HETATM    7  C   UNL     1     -43.188  56.836 -58.831  1.00  0.00     0.052 A 
HETATM    8  C   UNL     1     -43.454  55.753 -59.806  1.00  0.00     0.072 C 
HETATM    9  N   UNL     1     -43.319  58.151 -59.177  1.00  0.00    -0.280 N 
HETATM   10  H   UNL     1     -43.588  58.540 -60.073  1.00  0.00     0.189 HD
HETATM   11  N   UNL     1     -43.048  59.001 -58.184  1.00  0.00    -0.177 NA
HETATM   12  C   UNL     1     -42.729  58.211 -57.147  1.00  0.00     0.079 A 
HETATM   13  C   UNL     1     -42.316  58.860 -55.877  1.00  0.00     0.075 C 
ENDBRANCH   3   6
ENDBRANCH   1   2
BRANCH   1  14
HETATM   14  N   UNL     1     -42.044  53.995 -53.723  1.00  0.00     0.100 N 
HETATM   15  H   UNL     1     -42.458  53.230 -53.180  1.00  0.00     0.317 HD
BRANCH  14  16
HETATM   16  C   UNL     1     -40.582  53.812 -53.705  1.00  0.00     0.251 C 
HETATM   17  C   UNL     1     -39.862  54.316 -54.966  1.00  0.00     0.048 C 
BRANCH  16  18
HETATM   18  C   UNL     1     -40.198  52.357 -53.432  1.00  0.00    -0.002 A 
HETATM   19  C   UNL     1     -39.948  51.815 -52.151  1.00  0.00     0.064 A 
HETATM   20 CL   UNL     1     -39.996  52.821 -50.733  1.00  0.00    -0.082 Cl
HETATM   21  C   UNL     1     -39.664  50.442 -52.012  1.00  0.00     0.056 A 
HETATM   22 CL   UNL     1     -39.350  49.703 -50.477  1.00  0.00    -0.083 Cl
HETATM   23  C   UNL     1     -39.634  49.606 -53.131  1.00  0.00     0.026 A 
HETATM   24  C   UNL     1     -39.878  50.128 -54.395  1.00  0.00     0.002 A 
HETATM   25  C   UNL     1     -40.156  51.486 -54.544  1.00  0.00     0.011 A 
ENDBRANCH  16  18
ENDBRANCH  14  16
ENDBRANCH   1  14
TORSDOF 5
ENDMDL
MODEL 6
REMARK VINA RESULT:      -7.3      1.852      2.326
REMARK  5 active torsions:
REMARK  status: ('A' for Active; 'I' for Inactive)
REMARK    1  A    between atoms: C_8  and  N_9 
REMARK       I    between atoms: N_9  and  C_10 
REMARK    2  A    between atoms: C_10  and  C_11 
REMARK    3  A    between atoms: C_11  and  N_12 
REMARK    4  A    between atoms: N_12  and  C_13 
REMARK    5  A    between atoms: C_13  and  C_14 
ROOT
HETATM    1  C   UNL     1     -42.674  54.760 -54.654  1.00  0.00     0.372 C 
ENDROOT
BRANCH   1   2
HETATM    2  C   UNL     1     -42.987  56.205 -54.243  1.00  0.00     0.250 C 
HETATM    3  N   UNL     1     -42.391  57.139 -55.061  1.00  0.00    -0.322 N 
HETATM    4  H   UNL     1     -41.882  56.755 -55.851  1.00  0.00     0.169 HD
HETATM    5  O   UNL     1     -43.752  56.425 -53.310  1.00  0.00    -0.271 OA
BRANCH   3   6
HETATM    6  C   UNL     1     -42.450  58.516 -54.942  1.00  0.00     0.085 A 
HETATM    7  C   UNL     1     -41.610  59.212 -54.094  1.00  0.00     0.052 A 
HETATM    8  C   UNL     1     -40.520  58.786 -53.185  1.00  0.00     0.072 C 
HETATM    9  N   UNL     1     -41.945  60.529 -54.232  1.00  0.00    -0.280 N 
HETATM   10  H   UNL     1     -41.536  61.333 -53.770  1.00  0.00     0.189 HD
HETATM   11  N   UNL     1     -42.944  60.745 -55.091  1.00  0.00    -0.177 NA
HETATM   12  C   UNL     1     -43.273  59.522 -55.534  1.00  0.00     0.079 A 
HETATM   13  C   UNL     1     -44.409  59.407 -56.483  1.00  0.00     0.075 C 
ENDBRANCH   3   6
ENDBRANCH   1   2
BRANCH   1  14
HETATM   14  N   UNL     1     -42.078  53.994 -53.536  1.00  0.00     0.100 N 
HETATM   15  H   UNL     1     -42.520  53.069 -53.516  1.00  0.00     0.317 HD
BRANCH  14  16
HETATM   16  C   UNL     1     -40.630  53.789 -53.719  1.00  0.00     0.251 C 
HETATM   17  C   UNL     1     -40.091  54.238 -55.087  1.00  0.00     0.048 C 
BRANCH  16  18
HETATM   18  C   UNL     1     -40.226  52.339 -53.451  1.00  0.00    -0.002 A 
HETATM   19  C   UNL     1     -39.932  51.805 -52.175  1.00  0.00     0.064 A 
HETATM   20 CL   UNL     1     -39.946  52.818 -50.762  1.00  0.00    -0.082 Cl
HETATM   21  C   UNL     1     -39.634  50.435 -52.039  1.00  0.00     0.056 A 
HETATM   22 CL   UNL     1     -39.267  49.706 -50.510  1.00  0.00    -0.083 Cl
HETATM   23  C   UNL     1     -39.630  49.594 -53.155  1.00  0.00     0.026 A 
HETATM   24  C   UNL     1     -39.917  50.107 -54.413  1.00  0.00     0.002 A 
HETATM   25  C   UNL     1     -40.210  51.463 -54.560  1.00  0.00     0.011 A 
ENDBRANCH  16  18
ENDBRANCH  14  16
ENDBRANCH   1  14
TORSDOF 5
ENDMDL
MODEL 7
REMARK VINA RESULT:      -7.2      3.760      5.748
REMARK  5 active torsions:
REMARK  status: ('A' for Active; 'I' for Inactive)
REMARK    1  A    between atoms: C_8  and  N_9 
REMARK       I    between atoms: N_9  and  C_10 
REMARK    2  A    between atoms: C_10  and  C_11 
REMARK    3  A    between atoms: C_11  and  N_12 
REMARK    4  A    between atoms: N_12  and  C_13 
REMARK    5  A    between atoms: C_13  and  C_14 
ROOT
HETATM    1  C   UNL     1     -44.807  57.084 -54.832  1.00  0.00     0.372 C 
ENDROOT
BRANCH   1   2
HETATM    2  C   UNL     1     -44.602  57.421 -56.315  1.00  0.00     0.250 C 
HETATM    3  N   UNL     1     -43.692  56.593 -56.935  1.00  0.00    -0.322 N 
HETATM    4  H   UNL     1     -43.329  55.842 -56.355  1.00  0.00     0.169 HD
HETATM    5  O   UNL     1     -45.266  58.308 -56.839  1.00  0.00    -0.271 OA
BRANCH   3   6
HETATM    6  C   UNL     1     -43.265  56.652 -58.250  1.00  0.00     0.085 A 
HETATM    7  C   UNL     1     -42.453  57.672 -58.708  1.00  0.00     0.052 A 
HETATM    8  C   UNL     1     -41.843  58.848 -58.043  1.00  0.00     0.072 C 
HETATM    9  N   UNL     1     -42.237  57.413 -60.031  1.00  0.00    -0.280 N 
HETATM   10  H   UNL     1     -41.681  57.944 -60.693  1.00  0.00     0.189 HD
HETATM   11  N   UNL     1     -42.852  56.315 -60.475  1.00  0.00    -0.177 NA
HETATM   12  C   UNL     1     -43.495  55.836 -59.399  1.00  0.00     0.079 A 
HETATM   13  C   UNL     1     -44.336  54.624 -59.571  1.00  0.00     0.075 C 
ENDBRANCH   3   6
ENDBRANCH   1   2
BRANCH   1  14
HETATM   14  N   UNL     1     -44.318  55.724 -54.511  1.00  0.00     0.100 N 
HETATM   15  H   UNL     1     -43.801  55.374 -55.325  1.00  0.00     0.317 HD
BRANCH  14  16
HETATM   16  C   UNL     1     -43.390  55.728 -53.366  1.00  0.00     0.251 C 
HETATM   17  C   UNL     1     -42.902  57.124 -52.946  1.00  0.00     0.048 C 
BRANCH  16  18
HETATM   18  C   UNL     1     -42.193  54.808 -53.605  1.00  0.00    -0.002 A 
HETATM   19  C   UNL     1     -41.656  53.916 -52.648  1.00  0.00     0.064 A 
HETATM   20 CL   UNL     1     -42.305  53.843 -51.036  1.00  0.00    -0.082 Cl
HETATM   21  C   UNL     1     -40.589  53.067 -53.000  1.00  0.00     0.056 A 
HETATM   22 CL   UNL     1     -39.880  51.945 -51.886  1.00  0.00    -0.083 Cl
HETATM   23  C   UNL     1     -40.057  53.093 -54.291  1.00  0.00     0.026 A 
HETATM   24  C   UNL     1     -40.575  53.965 -55.240  1.00  0.00     0.002 A 
HETATM   25  C   UNL     1     -41.629  54.813 -54.900  1.00  0.00     0.011 A 
ENDBRANCH  16  18
ENDBRANCH  14  16
ENDBRANCH   1  14
TORSDOF 5
ENDMDL
MODEL 8
REMARK VINA RESULT:      -7.1      3.958      5.840
REMARK  5 active torsions:
REMARK  status: ('A' for Active; 'I' for Inactive)
REMARK    1  A    between atoms: C_8  and  N_9 
REMARK       I    between atoms: N_9  and  C_10 
REMARK    2  A    between atoms: C_10  and  C_11 
REMARK    3  A    between atoms: C_11  and  N_12 
REMARK    4  A    between atoms: N_12  and  C_13 
REMARK    5  A    between atoms: C_13  and  C_14 
ROOT
HETATM    1  C   UNL     1     -42.854  54.622 -55.356  1.00  0.00     0.372 C 
ENDROOT
BRANCH   1   2
HETATM    2  C   UNL     1     -43.262  55.734 -56.331  1.00  0.00     0.250 C 
HETATM    3  N   UNL     1     -43.134  55.367 -57.652  1.00  0.00    -0.322 N 
HETATM    4  H   UNL     1     -42.849  54.405 -57.805  1.00  0.00     0.169 HD
HETATM    5  O   UNL     1     -43.711  56.791 -55.901  1.00  0.00    -0.271 OA
BRANCH   3   6
HETATM    6  C   UNL     1     -43.388  56.146 -58.767  1.00  0.00     0.085 A 
HETATM    7  C   UNL     1     -44.224  55.718 -59.781  1.00  0.00     0.052 A 
HETATM    8  C   UNL     1     -45.021  54.484 -59.975  1.00  0.00     0.072 C 
HETATM    9  N   UNL     1     -44.240  56.726 -60.703  1.00  0.00    -0.280 N 
HETATM   10  H   UNL     1     -44.751  56.768 -61.578  1.00  0.00     0.189 HD
HETATM   11  N   UNL     1     -43.473  57.769 -60.378  1.00  0.00    -0.177 NA
HETATM   12  C   UNL     1     -42.936  57.431 -59.196  1.00  0.00     0.079 A 
HETATM   13  C   UNL     1     -41.971  58.373 -58.574  1.00  0.00     0.075 C 
ENDBRANCH   3   6
ENDBRANCH   1   2
BRANCH   1  14
HETATM   14  N   UNL     1     -42.375  55.175 -54.070  1.00  0.00     0.100 N 
HETATM   15  H   UNL     1     -42.892  54.712 -53.315  1.00  0.00     0.317 HD
BRANCH  14  16
HETATM   16  C   UNL     1     -40.942  54.908 -53.854  1.00  0.00     0.251 C 
HETATM   17  C   UNL     1     -40.262  54.124 -54.988  1.00  0.00     0.048 C 
BRANCH  16  18
HETATM   18  C   UNL     1     -40.691  54.211 -52.517  1.00  0.00    -0.002 A 
HETATM   19  C   UNL     1     -40.903  54.798 -51.247  1.00  0.00     0.064 A 
HETATM   20 CL   UNL     1     -41.423  56.452 -51.108  1.00  0.00    -0.082 Cl
HETATM   21  C   UNL     1     -40.700  54.038 -50.079  1.00  0.00     0.056 A 
HETATM   22 CL   UNL     1     -40.941  54.685 -48.490  1.00  0.00    -0.083 Cl
HETATM   23  C   UNL     1     -40.296  52.703 -50.161  1.00  0.00     0.026 A 
HETATM   24  C   UNL     1     -40.085  52.116 -51.402  1.00  0.00     0.002 A 
HETATM   25  C   UNL     1     -40.280  52.860 -52.565  1.00  0.00     0.011 A 
ENDBRANCH  16  18
ENDBRANCH  14  16
ENDBRANCH   1  14
TORSDOF 5
ENDMDL
MODEL 9
REMARK VINA RESULT:      -7.0      4.263      5.859
REMARK  5 active torsions:
REMARK  status: ('A' for Active; 'I' for Inactive)
REMARK    1  A    between atoms: C_8  and  N_9 
REMARK       I    between atoms: N_9  and  C_10 
REMARK    2  A    between atoms: C_10  and  C_11 
REMARK    3  A    between atoms: C_11  and  N_12 
REMARK    4  A    between atoms: N_12  and  C_13 
REMARK    5  A    between atoms: C_13  and  C_14 
ROOT
HETATM    1  C   UNL     1     -42.382  56.608 -55.577  1.00  0.00     0.372 C 
ENDROOT
BRANCH   1   2
HETATM    2  C   UNL     1     -42.722  57.157 -56.969  1.00  0.00     0.250 C 
HETATM    3  N   UNL     1     -43.958  56.752 -57.421  1.00  0.00    -0.322 N 
HETATM    4  H   UNL     1     -44.498  56.204 -56.760  1.00  0.00     0.169 HD
HETATM    5  O   UNL     1     -41.949  57.927 -57.530  1.00  0.00    -0.271 OA
BRANCH   3   6
HETATM    6  C   UNL     1     -44.542  57.046 -58.641  1.00  0.00     0.085 A 
HETATM    7  C   UNL     1     -44.689  56.091 -59.629  1.00  0.00     0.052 A 
HETATM    8  C   UNL     1     -44.346  54.652 -59.695  1.00  0.00     0.072 C 
HETATM    9  N   UNL     1     -45.294  56.727 -60.676  1.00  0.00    -0.280 N 
HETATM   10  H   UNL     1     -45.566  56.339 -61.573  1.00  0.00     0.189 HD
HETATM   11  N   UNL     1     -45.540  58.020 -60.455  1.00  0.00    -0.177 NA
HETATM   12  C   UNL     1     -45.080  58.239 -59.214  1.00  0.00     0.079 A 
HETATM   13  C   UNL     1     -45.155  59.621 -58.676  1.00  0.00     0.075 C 
ENDBRANCH   3   6
ENDBRANCH   1   2
BRANCH   1  14
HETATM   14  N   UNL     1     -41.467  55.448 -55.659  1.00  0.00     0.100 N 
HETATM   15  H   UNL     1     -40.648  55.649 -55.075  1.00  0.00     0.317 HD
BRANCH  14  16
HETATM   16  C   UNL     1     -42.090  54.217 -55.141  1.00  0.00     0.251 C 
HETATM   17  C   UNL     1     -43.506  54.410 -54.575  1.00  0.00     0.048 C 
BRANCH  16  18
HETATM   18  C   UNL     1     -41.203  53.529 -54.102  1.00  0.00    -0.002 A 
HETATM   19  C   UNL     1     -40.904  54.051 -52.823  1.00  0.00     0.064 A 
HETATM   20 CL   UNL     1     -41.494  55.614 -52.339  1.00  0.00    -0.082 Cl
HETATM   21  C   UNL     1     -40.127  53.298 -51.921  1.00  0.00     0.056 A 
HETATM   22 CL   UNL     1     -39.721  53.868 -50.336  1.00  0.00    -0.083 Cl
HETATM   23  C   UNL     1     -39.652  52.034 -52.277  1.00  0.00     0.026 A 
HETATM   24  C   UNL     1     -39.939  51.510 -53.530  1.00  0.00     0.002 A 
HETATM   25  C   UNL     1     -40.704  52.249 -54.432  1.00  0.00     0.011 A 
ENDBRANCH  16  18
ENDBRANCH  14  16
ENDBRANCH   1  14
TORSDOF 5
ENDMDL
MODEL 10
REMARK VINA RESULT:      -7.0      3.757      6.056
REMARK  5 active torsions:
REMARK  status: ('A' for Active; 'I' for Inactive)
REMARK    1  A    between atoms: C_8  and  N_9 
REMARK       I    between atoms: N_9  and  C_10 
REMARK    2  A    between atoms: C_10  and  C_11 
REMARK    3  A    between atoms: C_11  and  N_12 
REMARK    4  A    between atoms: N_12  and  C_13 
REMARK    5  A    between atoms: C_13  and  C_14 
ROOT
HETATM    1  C   UNL     1     -43.733  55.909 -54.536  1.00  0.00     0.372 C 
ENDROOT
BRANCH   1   2
HETATM    2  C   UNL     1     -42.970  55.929 -55.867  1.00  0.00     0.250 C 
HETATM    3  N   UNL     1     -43.739  56.370 -56.922  1.00  0.00    -0.322 N 
HETATM    4  H   UNL     1     -44.674  56.677 -56.673  1.00  0.00     0.169 HD
HETATM    5  O   UNL     1     -41.781  55.632 -55.897  1.00  0.00    -0.271 OA
BRANCH   3   6
HETATM    6  C   UNL     1     -43.360  56.475 -58.248  1.00  0.00     0.085 A 
HETATM    7  C   UNL     1     -42.603  57.536 -58.710  1.00  0.00     0.052 A 
HETATM    8  C   UNL     1     -42.016  58.720 -58.039  1.00  0.00     0.072 C 
HETATM    9  N   UNL     1     -42.423  57.314 -60.045  1.00  0.00    -0.280 N 
HETATM   10  H   UNL     1     -41.911  57.881 -60.712  1.00  0.00     0.189 HD
HETATM   11  N   UNL     1     -43.012  56.203 -60.493  1.00  0.00    -0.177 NA
HETATM   12  C   UNL     1     -43.598  55.676 -59.408  1.00  0.00     0.079 A 
HETATM   13  C   UNL     1     -44.398  54.437 -59.580  1.00  0.00     0.075 C 
ENDBRANCH   3   6
ENDBRANCH   1   2
BRANCH   1  14
HETATM   14  N   UNL     1     -42.844  56.227 -53.396  1.00  0.00     0.100 N 
HETATM   15  H   UNL     1     -42.873  57.241 -53.246  1.00  0.00     0.317 HD
BRANCH  14  16
HETATM   16  C   UNL     1     -43.293  55.581 -52.150  1.00  0.00     0.251 C 
HETATM   17  C   UNL     1     -44.028  56.517 -51.176  1.00  0.00     0.048 C 
BRANCH  16  18
HETATM   18  C   UNL     1     -42.141  54.881 -51.429  1.00  0.00    -0.002 A 
HETATM   19  C   UNL     1     -41.377  53.820 -51.967  1.00  0.00     0.064 A 
HETATM   20 CL   UNL     1     -41.751  53.159 -53.531  1.00  0.00    -0.082 Cl
HETATM   21  C   UNL     1     -40.294  53.293 -51.236  1.00  0.00     0.056 A 
HETATM   22 CL   UNL     1     -39.310  51.995 -51.830  1.00  0.00    -0.083 Cl
HETATM   23  C   UNL     1     -39.962  53.813 -49.984  1.00  0.00     0.026 A 
HETATM   24  C   UNL     1     -40.704  54.856 -49.445  1.00  0.00     0.002 A 
HETATM   25  C   UNL     1     -41.781  55.382 -50.157  1.00  0.00     0.011 A 
ENDBRANCH  16  18
ENDBRANCH  14  16
ENDBRANCH   1  14
TORSDOF 5
ENDMDL
