MODEL 1
REMARK VINA RESULT:      -8.8      0.000      0.000
REMARK  7 active torsions:
REMARK  status: ('A' for Active; 'I' for Inactive)
REMARK    1  A    between atoms: N_6  and  C_7 
REMARK    2  A    between atoms: C_9  and  N_10 
REMARK    3  A    between atoms: N_10  and  N_11 
REMARK    4  A    between atoms: C_12  and  C_13 
REMARK    5  A    between atoms: C_24  and  N_25 
REMARK    6  A    between atoms: N_25  and  C_26 
REMARK    7  A    between atoms: C_29  and  N_30 
ROOT
HETATM    1  C   UNL     1     -43.294  56.673 -58.017  1.00  0.00     0.756 A 
HETATM    2  N   UNL     1     -43.219  55.434 -57.571  1.00  0.00     0.133 NA
HETATM    3  C   UNL     1     -43.078  55.270 -56.257  1.00  0.00     0.774 A 
HETATM    4  N   UNL     1     -43.060  56.273 -55.390  1.00  0.00     0.133 NA
HETATM    5  C   UNL     1     -43.231  57.480 -55.906  1.00  0.00     0.758 A 
HETATM    6  N   UNL     1     -43.377  57.718 -57.209  1.00  0.00     0.131 NA
ENDROOT
BRANCH   3   7
HETATM    7  N   UNL     1     -42.964  53.976 -55.718  1.00  0.00    -0.105 N 
HETATM    8  H   UNL     1     -43.760  53.424 -56.030  1.00  0.00     0.208 HD
BRANCH   7   9
HETATM    9  N   UNL     1     -42.520  53.861 -54.432  1.00  0.00    -0.171 NA
HETATM   10  C   UNL     1     -41.307  53.430 -54.307  1.00  0.00     0.153 C 
BRANCH  10  11
HETATM   11  C   UNL     1     -40.745  53.234 -52.987  1.00  0.00     0.011 A 
HETATM   12  C   UNL     1     -40.880  54.038 -51.807  1.00  0.00     0.004 A 
HETATM   13  C   UNL     1     -40.154  53.413 -50.790  1.00  0.00     0.043 A 
HETATM   14  C   UNL     1     -41.563  55.236 -51.497  1.00  0.00     0.014 A 
HETATM   15  C   UNL     1     -40.073  53.925 -49.489  1.00  0.00     0.030 A 
HETATM   16  N   UNL     1     -39.601  52.275 -51.327  1.00  0.00    -0.364 N 
HETATM   17  C   UNL     1     -40.758  55.111 -49.213  1.00  0.00     0.002 A 
HETATM   18  C   UNL     1     -41.495  55.759 -50.200  1.00  0.00     0.001 A 
HETATM   19  H   UNL     1     -39.026  51.621 -50.810  1.00  0.00     0.165 HD
HETATM   20  C   UNL     1     -39.953  52.152 -52.644  1.00  0.00     0.102 A 
ENDBRANCH  10  11
ENDBRANCH   7   9
ENDBRANCH   3   7
BRANCH   1  21
HETATM   21  N   UNL     1     -43.314  56.878 -59.398  1.00  0.00    -0.210 N 
HETATM   22  C   UNL     1     -43.962  58.108 -59.864  1.00  0.00     0.169 C 
HETATM   23  C   UNL     1     -45.491  57.921 -59.933  1.00  0.00     0.254 C 
HETATM   24  N   UNL     1     -45.837  56.687 -60.780  1.00  0.00    -0.072 N 
HETATM   25  C   UNL     1     -47.316  56.485 -60.895  1.00  0.00     0.269 C 
HETATM   26  H   UNL     1     -45.475  56.864 -61.725  1.00  0.00     0.279 HD
HETATM   27  C   UNL     1     -45.119  55.426 -60.264  1.00  0.00     0.254 C 
HETATM   28  C   UNL     1     -43.596  55.679 -60.201  1.00  0.00     0.169 C 
ENDBRANCH   1  21
BRANCH   5  29
HETATM   29  N   UNL     1     -43.213  58.536 -54.996  1.00  0.00    -0.187 N 
HETATM   30  H   UNL     1     -43.636  59.361 -55.401  1.00  0.00     0.184 HD
BRANCH  29  31
HETATM   31  C   UNL     1     -42.503  58.729 -53.805  1.00  0.00     0.049 A 
HETATM   32  C   UNL     1     -43.129  59.010 -52.584  1.00  0.00     0.032 A 
HETATM   33  C   UNL     1     -42.386  59.226 -51.420  1.00  0.00     0.038 A 
HETATM   34  C   UNL     1     -40.989  59.190 -51.478  1.00  0.00     0.103 A 
HETATM   35  C   UNL     1     -40.339  58.934 -52.689  1.00  0.00     0.038 A 
HETATM   36  C   UNL     1     -41.100  58.708 -53.842  1.00  0.00     0.032 A 
BRANCH  34  37
HETATM   37  N   UNL     1     -40.206  59.422 -50.258  1.00  0.00    -0.116 N 
HETATM   38  O   UNL     1     -40.782  59.260 -49.172  1.00  0.00    -0.532 OA
HETATM   39  O   UNL     1     -39.026  59.770 -50.387  1.00  0.00    -0.532 OA
ENDBRANCH  34  37
ENDBRANCH  29  31
ENDBRANCH   5  29
TORSDOF 7
ENDMDL
MODEL 2
REMARK VINA RESULT:      -8.8      4.264      7.570
REMARK  7 active torsions:
REMARK  status: ('A' for Active; 'I' for Inactive)
REMARK    1  A    between atoms: N_6  and  C_7 
REMARK    2  A    between atoms: C_9  and  N_10 
REMARK    3  A    between atoms: N_10  and  N_11 
REMARK    4  A    between atoms: C_12  and  C_13 
REMARK    5  A    between atoms: C_24  and  N_25 
REMARK    6  A    between atoms: N_25  and  C_26 
REMARK    7  A    between atoms: C_29  and  N_30 
ROOT
HETATM    1  C   UNL     1     -44.441  57.688 -55.532  1.00  0.00     0.756 A 
HETATM    2  N   UNL     1     -43.582  56.692 -55.441  1.00  0.00     0.133 NA
HETATM    3  C   UNL     1     -43.126  56.178 -56.582  1.00  0.00     0.774 A 
HETATM    4  N   UNL     1     -43.452  56.646 -57.779  1.00  0.00     0.133 NA
HETATM    5  C   UNL     1     -44.248  57.704 -57.784  1.00  0.00     0.758 A 
HETATM    6  N   UNL     1     -44.742  58.268 -56.683  1.00  0.00     0.131 NA
ENDROOT
BRANCH   3   7
HETATM    7  N   UNL     1     -42.228  55.096 -56.557  1.00  0.00    -0.105 N 
HETATM    8  H   UNL     1     -42.343  54.560 -57.415  1.00  0.00     0.208 HD
BRANCH   7   9
HETATM    9  N   UNL     1     -42.049  54.448 -55.369  1.00  0.00    -0.171 NA
HETATM   10  C   UNL     1     -40.816  54.229 -55.044  1.00  0.00     0.153 C 
BRANCH  10  11
HETATM   11  C   UNL     1     -40.509  53.515 -53.823  1.00  0.00     0.011 A 
HETATM   12  C   UNL     1     -40.194  52.129 -53.628  1.00  0.00     0.004 A 
HETATM   13  C   UNL     1     -39.968  51.940 -52.263  1.00  0.00     0.043 A 
HETATM   14  C   UNL     1     -40.066  51.012 -54.483  1.00  0.00     0.014 A 
HETATM   15  C   UNL     1     -39.626  50.699 -51.713  1.00  0.00     0.030 A 
HETATM   16  N   UNL     1     -40.136  53.160 -51.650  1.00  0.00    -0.364 N 
HETATM   17  C   UNL     1     -39.506  49.613 -52.584  1.00  0.00     0.002 A 
HETATM   18  C   UNL     1     -39.721  49.764 -53.951  1.00  0.00     0.001 A 
HETATM   19  H   UNL     1     -40.025  53.320 -50.657  1.00  0.00     0.165 HD
HETATM   20  C   UNL     1     -40.456  54.115 -52.577  1.00  0.00     0.102 A 
ENDBRANCH  10  11
ENDBRANCH   7   9
ENDBRANCH   3   7
BRANCH   1  21
HETATM   21  N   UNL     1     -45.032  58.160 -54.358  1.00  0.00    -0.210 N 
HETATM   22  C   UNL     1     -45.173  59.615 -54.240  1.00  0.00     0.169 C 
HETATM   23  C   UNL     1     -43.853  60.249 -53.757  1.00  0.00     0.254 C 
HETATM   24  N   UNL     1     -43.382  59.572 -52.461  1.00  0.00    -0.072 N 
HETATM   25  C   UNL     1     -42.115  60.178 -51.943  1.00  0.00     0.269 C 
HETATM   26  H   UNL     1     -44.113  59.736 -51.758  1.00  0.00     0.279 HD
HETATM   27  C   UNL     1     -43.267  58.046 -52.629  1.00  0.00     0.254 C 
HETATM   28  C   UNL     1     -44.611  57.472 -53.129  1.00  0.00     0.169 C 
ENDBRANCH   1  21
BRANCH   5  29
HETATM   29  N   UNL     1     -44.591  58.197 -59.042  1.00  0.00    -0.187 N 
HETATM   30  H   UNL     1     -44.104  59.065 -59.227  1.00  0.00     0.184 HD
BRANCH  29  31
HETATM   31  C   UNL     1     -45.637  57.879 -59.916  1.00  0.00     0.049 A 
HETATM   32  C   UNL     1     -46.496  58.846 -60.456  1.00  0.00     0.032 A 
HETATM   33  C   UNL     1     -47.549  58.488 -61.303  1.00  0.00     0.038 A 
HETATM   34  C   UNL     1     -47.770  57.138 -61.596  1.00  0.00     0.103 A 
HETATM   35  C   UNL     1     -46.942  56.153 -61.051  1.00  0.00     0.038 A 
HETATM   36  C   UNL     1     -45.885  56.531 -60.215  1.00  0.00     0.032 A 
BRANCH  34  37
HETATM   37  N   UNL     1     -48.879  56.761 -62.480  1.00  0.00    -0.116 N 
HETATM   38  O   UNL     1     -50.020  57.115 -62.148  1.00  0.00    -0.532 OA
HETATM   39  O   UNL     1     -48.611  56.109 -63.497  1.00  0.00    -0.532 OA
ENDBRANCH  34  37
ENDBRANCH  29  31
ENDBRANCH   5  29
TORSDOF 7
ENDMDL
MODEL 3
REMARK VINA RESULT:      -8.7      3.776      7.123
REMARK  7 active torsions:
REMARK  status: ('A' for Active; 'I' for Inactive)
REMARK    1  A    between atoms: N_6  and  C_7 
REMARK    2  A    between atoms: C_9  and  N_10 
REMARK    3  A    between atoms: N_10  and  N_11 
REMARK    4  A    between atoms: C_12  and  C_13 
REMARK    5  A    between atoms: C_24  and  N_25 
REMARK    6  A    between atoms: N_25  and  C_26 
REMARK    7  A    between atoms: C_29  and  N_30 
ROOT
HETATM    1  C   UNL     1     -42.282  58.680 -53.889  1.00  0.00     0.756 A 
HETATM    2  N   UNL     1     -42.875  57.660 -53.301  1.00  0.00     0.133 NA
HETATM    3  C   UNL     1     -43.303  56.672 -54.085  1.00  0.00     0.774 A 
HETATM    4  N   UNL     1     -43.119  56.646 -55.398  1.00  0.00     0.133 NA
HETATM    5  C   UNL     1     -42.435  57.662 -55.902  1.00  0.00     0.758 A 
HETATM    6  N   UNL     1     -41.980  58.683 -55.178  1.00  0.00     0.131 NA
ENDROOT
BRANCH   3   7
HETATM    7  N   UNL     1     -43.969  55.567 -53.526  1.00  0.00    -0.105 N 
HETATM    8  H   UNL     1     -44.872  55.878 -53.173  1.00  0.00     0.208 HD
BRANCH   7   9
HETATM    9  N   UNL     1     -43.226  54.679 -52.803  1.00  0.00    -0.171 NA
HETATM   10  C   UNL     1     -42.032  54.467 -53.253  1.00  0.00     0.153 C 
BRANCH  10  11
HETATM   11  C   UNL     1     -41.169  53.514 -52.586  1.00  0.00     0.011 A 
HETATM   12  C   UNL     1     -40.657  52.260 -53.055  1.00  0.00     0.004 A 
HETATM   13  C   UNL     1     -39.862  51.726 -52.037  1.00  0.00     0.043 A 
HETATM   14  C   UNL     1     -40.780  51.525 -54.255  1.00  0.00     0.014 A 
HETATM   15  C   UNL     1     -39.193  50.502 -52.157  1.00  0.00     0.030 A 
HETATM   16  N   UNL     1     -39.887  52.619 -50.992  1.00  0.00    -0.364 N 
HETATM   17  C   UNL     1     -39.334  49.799 -53.356  1.00  0.00     0.002 A 
HETATM   18  C   UNL     1     -40.114  50.302 -54.394  1.00  0.00     0.001 A 
HETATM   19  H   UNL     1     -39.390  52.492 -50.120  1.00  0.00     0.165 HD
HETATM   20  C   UNL     1     -40.665  53.700 -51.311  1.00  0.00     0.102 A 
ENDBRANCH  10  11
ENDBRANCH   7   9
ENDBRANCH   3   7
BRANCH   1  21
HETATM   21  N   UNL     1     -41.938  59.785 -53.107  1.00  0.00    -0.210 N 
HETATM   22  C   UNL     1     -41.898  59.569 -51.657  1.00  0.00     0.169 C 
HETATM   23  C   UNL     1     -43.317  59.663 -51.058  1.00  0.00     0.254 C 
HETATM   24  N   UNL     1     -43.976  60.990 -51.462  1.00  0.00    -0.072 N 
HETATM   25  C   UNL     1     -45.347  61.134 -50.876  1.00  0.00     0.269 C 
HETATM   26  H   UNL     1     -43.394  61.743 -51.074  1.00  0.00     0.279 HD
HETATM   27  C   UNL     1     -43.977  61.180 -52.990  1.00  0.00     0.254 C 
HETATM   28  C   UNL     1     -42.536  61.059 -53.534  1.00  0.00     0.169 C 
ENDBRANCH   1  21
BRANCH   5  29
HETATM   29  N   UNL     1     -42.240  57.635 -57.282  1.00  0.00    -0.187 N 
HETATM   30  H   UNL     1     -41.502  58.273 -57.548  1.00  0.00     0.184 HD
BRANCH  29  31
HETATM   31  C   UNL     1     -43.026  57.133 -58.326  1.00  0.00     0.049 A 
HETATM   32  C   UNL     1     -43.876  57.940 -59.093  1.00  0.00     0.032 A 
HETATM   33  C   UNL     1     -44.669  57.399 -60.109  1.00  0.00     0.038 A 
HETATM   34  C   UNL     1     -44.636  56.021 -60.350  1.00  0.00     0.103 A 
HETATM   35  C   UNL     1     -43.813  55.191 -59.583  1.00  0.00     0.038 A 
HETATM   36  C   UNL     1     -43.017  55.752 -58.578  1.00  0.00     0.032 A 
BRANCH  34  37
HETATM   37  N   UNL     1     -45.471  55.451 -61.413  1.00  0.00    -0.116 N 
HETATM   38  O   UNL     1     -44.935  54.648 -62.191  1.00  0.00    -0.532 OA
HETATM   39  O   UNL     1     -46.655  55.807 -61.471  1.00  0.00    -0.532 OA
ENDBRANCH  34  37
ENDBRANCH  29  31
ENDBRANCH   5  29
TORSDOF 7
ENDMDL
MODEL 4
REMARK VINA RESULT:      -8.4      3.714      7.190
REMARK  7 active torsions:
REMARK  status: ('A' for Active; 'I' for Inactive)
REMARK    1  A    between atoms: N_6  and  C_7 
REMARK    2  A    between atoms: C_9  and  N_10 
REMARK    3  A    between atoms: N_10  and  N_11 
REMARK    4  A    between atoms: C_12  and  C_13 
REMARK    5  A    between atoms: C_24  and  N_25 
REMARK    6  A    between atoms: N_25  and  C_26 
REMARK    7  A    between atoms: C_29  and  N_30 
ROOT
HETATM    1  C   UNL     1     -43.512  59.712 -52.260  1.00  0.00     0.756 A 
HETATM    2  N   UNL     1     -43.708  58.666 -51.482  1.00  0.00     0.133 NA
HETATM    3  C   UNL     1     -44.418  57.660 -51.987  1.00  0.00     0.774 A 
HETATM    4  N   UNL     1     -44.886  57.641 -53.227  1.00  0.00     0.133 NA
HETATM    5  C   UNL     1     -44.571  58.688 -53.975  1.00  0.00     0.758 A 
HETATM    6  N   UNL     1     -43.866  59.729 -53.535  1.00  0.00     0.131 NA
ENDROOT
BRANCH   3   7
HETATM    7  N   UNL     1     -44.687  56.525 -51.201  1.00  0.00    -0.105 N 
HETATM    8  H   UNL     1     -45.407  56.764 -50.522  1.00  0.00     0.208 HD
BRANCH   7   9
HETATM    9  N   UNL     1     -43.629  55.749 -50.825  1.00  0.00    -0.171 NA
HETATM   10  C   UNL     1     -43.050  55.106 -51.787  1.00  0.00     0.153 C 
BRANCH  10  11
HETATM   11  C   UNL     1     -41.940  54.223 -51.497  1.00  0.00     0.011 A 
HETATM   12  C   UNL     1     -41.229  53.332 -52.366  1.00  0.00     0.004 A 
HETATM   13  C   UNL     1     -40.235  52.711 -51.607  1.00  0.00     0.043 A 
HETATM   14  C   UNL     1     -41.324  52.998 -53.736  1.00  0.00     0.014 A 
HETATM   15  C   UNL     1     -39.340  51.777 -52.142  1.00  0.00     0.030 A 
HETATM   16  N   UNL     1     -40.334  53.205 -50.327  1.00  0.00    -0.364 N 
HETATM   17  C   UNL     1     -39.459  51.467 -53.500  1.00  0.00     0.002 A 
HETATM   18  C   UNL     1     -40.435  52.069 -54.289  1.00  0.00     0.001 A 
HETATM   19  H   UNL     1     -39.729  52.933 -49.562  1.00  0.00     0.165 HD
HETATM   20  C   UNL     1     -41.351  54.118 -50.249  1.00  0.00     0.102 A 
ENDBRANCH  10  11
ENDBRANCH   7   9
ENDBRANCH   3   7
BRANCH   1  21
HETATM   21  N   UNL     1     -42.881  60.833 -51.715  1.00  0.00    -0.210 N 
HETATM   22  C   UNL     1     -42.755  60.861 -50.254  1.00  0.00     0.169 C 
HETATM   23  C   UNL     1     -44.063  61.361 -49.608  1.00  0.00     0.254 C 
HETATM   24  N   UNL     1     -44.473  62.711 -50.215  1.00  0.00    -0.072 N 
HETATM   25  C   UNL     1     -45.726  63.246 -49.594  1.00  0.00     0.269 C 
HETATM   26  H   UNL     1     -43.716  63.374 -50.003  1.00  0.00     0.279 HD
HETATM   27  C   UNL     1     -44.573  62.635 -51.749  1.00  0.00     0.254 C 
HETATM   28  C   UNL     1     -43.243  62.115 -52.336  1.00  0.00     0.169 C 
ENDBRANCH   1  21
BRANCH   5  29
HETATM   29  N   UNL     1     -45.062  58.670 -55.279  1.00  0.00    -0.187 N 
HETATM   30  H   UNL     1     -46.023  58.989 -55.301  1.00  0.00     0.184 HD
BRANCH  29  31
HETATM   31  C   UNL     1     -44.590  58.057 -56.445  1.00  0.00     0.049 A 
HETATM   32  C   UNL     1     -43.317  57.479 -56.537  1.00  0.00     0.032 A 
HETATM   33  C   UNL     1     -42.867  56.900 -57.728  1.00  0.00     0.038 A 
HETATM   34  C   UNL     1     -43.691  56.921 -58.858  1.00  0.00     0.103 A 
HETATM   35  C   UNL     1     -44.956  57.512 -58.799  1.00  0.00     0.038 A 
HETATM   36  C   UNL     1     -45.395  58.075 -57.595  1.00  0.00     0.032 A 
BRANCH  34  37
HETATM   37  N   UNL     1     -43.218  56.319 -60.111  1.00  0.00    -0.116 N 
HETATM   38  O   UNL     1     -41.996  56.322 -60.320  1.00  0.00    -0.532 OA
HETATM   39  O   UNL     1     -44.065  55.852 -60.883  1.00  0.00    -0.532 OA
ENDBRANCH  34  37
ENDBRANCH  29  31
ENDBRANCH   5  29
TORSDOF 7
ENDMDL
MODEL 5
REMARK VINA RESULT:      -8.3      3.504      8.403
REMARK  7 active torsions:
REMARK  status: ('A' for Active; 'I' for Inactive)
REMARK    1  A    between atoms: N_6  and  C_7 
REMARK    2  A    between atoms: C_9  and  N_10 
REMARK    3  A    between atoms: N_10  and  N_11 
REMARK    4  A    between atoms: C_12  and  C_13 
REMARK    5  A    between atoms: C_24  and  N_25 
REMARK    6  A    between atoms: N_25  and  C_26 
REMARK    7  A    between atoms: C_29  and  N_30 
ROOT
HETATM    1  C   UNL     1     -43.819  56.925 -54.023  1.00  0.00     0.756 A 
HETATM    2  N   UNL     1     -44.161  56.948 -55.296  1.00  0.00     0.133 NA
HETATM    3  C   UNL     1     -43.306  56.413 -56.165  1.00  0.00     0.774 A 
HETATM    4  N   UNL     1     -42.171  55.827 -55.810  1.00  0.00     0.133 NA
HETATM    5  C   UNL     1     -41.940  55.764 -54.507  1.00  0.00     0.758 A 
HETATM    6  N   UNL     1     -42.751  56.278 -53.584  1.00  0.00     0.131 NA
ENDROOT
BRANCH   3   7
HETATM    7  N   UNL     1     -43.597  56.428 -57.540  1.00  0.00    -0.105 N 
HETATM    8  H   UNL     1     -43.689  55.467 -57.863  1.00  0.00     0.208 HD
BRANCH   7   9
HETATM    9  N   UNL     1     -42.949  57.346 -58.316  1.00  0.00    -0.171 NA
HETATM   10  C   UNL     1     -43.702  58.274 -58.812  1.00  0.00     0.153 C 
BRANCH  10  11
HETATM   11  C   UNL     1     -43.126  59.280 -59.681  1.00  0.00     0.011 A 
HETATM   12  C   UNL     1     -42.182  60.316 -59.380  1.00  0.00     0.004 A 
HETATM   13  C   UNL     1     -41.937  61.015 -60.565  1.00  0.00     0.043 A 
HETATM   14  C   UNL     1     -41.497  60.725 -58.214  1.00  0.00     0.014 A 
HETATM   15  C   UNL     1     -41.052  62.097 -60.640  1.00  0.00     0.030 A 
HETATM   16  N   UNL     1     -42.699  60.428 -61.548  1.00  0.00    -0.364 N 
HETATM   17  C   UNL     1     -40.389  62.478 -59.471  1.00  0.00     0.002 A 
HETATM   18  C   UNL     1     -40.605  61.802 -58.273  1.00  0.00     0.001 A 
HETATM   19  H   UNL     1     -42.713  60.727 -62.514  1.00  0.00     0.165 HD
HETATM   20  C   UNL     1     -43.413  59.380 -61.031  1.00  0.00     0.102 A 
ENDBRANCH  10  11
ENDBRANCH   7   9
ENDBRANCH   3   7
BRANCH   1  21
HETATM   21  N   UNL     1     -44.636  57.591 -53.107  1.00  0.00    -0.210 N 
HETATM   22  C   UNL     1     -45.004  58.970 -53.446  1.00  0.00     0.169 C 
HETATM   23  C   UNL     1     -43.875  59.943 -53.053  1.00  0.00     0.254 C 
HETATM   24  N   UNL     1     -43.502  59.754 -51.574  1.00  0.00    -0.072 N 
HETATM   25  C   UNL     1     -42.426  60.702 -51.144  1.00  0.00     0.269 C 
HETATM   26  H   UNL     1     -44.343  59.972 -51.025  1.00  0.00     0.279 HD
HETATM   27  C   UNL     1     -43.142  58.290 -51.265  1.00  0.00     0.254 C 
HETATM   28  C   UNL     1     -44.301  57.363 -51.694  1.00  0.00     0.169 C 
ENDBRANCH   1  21
BRANCH   5  29
HETATM   29  N   UNL     1     -40.748  55.147 -54.132  1.00  0.00    -0.187 N 
HETATM   30  H   UNL     1     -39.955  55.649 -54.511  1.00  0.00     0.184 HD
BRANCH  29  31
HETATM   31  C   UNL     1     -40.479  53.879 -53.604  1.00  0.00     0.049 A 
HETATM   32  C   UNL     1     -40.370  53.637 -52.229  1.00  0.00     0.032 A 
HETATM   33  C   UNL     1     -40.071  52.362 -51.737  1.00  0.00     0.038 A 
HETATM   34  C   UNL     1     -39.849  51.313 -52.635  1.00  0.00     0.103 A 
HETATM   35  C   UNL     1     -39.930  51.534 -54.013  1.00  0.00     0.038 A 
HETATM   36  C   UNL     1     -40.242  52.814 -54.486  1.00  0.00     0.032 A 
BRANCH  34  37
HETATM   37  N   UNL     1     -39.530  49.975 -52.122  1.00  0.00    -0.116 N 
HETATM   38  O   UNL     1     -39.430  49.056 -52.948  1.00  0.00    -0.532 OA
HETATM   39  O   UNL     1     -39.386  49.844 -50.900  1.00  0.00    -0.532 OA
ENDBRANCH  34  37
ENDBRANCH  29  31
ENDBRANCH   5  29
TORSDOF 7
ENDMDL
MODEL 6
REMARK VINA RESULT:      -8.3      3.384      8.294
REMARK  7 active torsions:
REMARK  status: ('A' for Active; 'I' for Inactive)
REMARK    1  A    between atoms: N_6  and  C_7 
REMARK    2  A    between atoms: C_9  and  N_10 
REMARK    3  A    between atoms: N_10  and  N_11 
REMARK    4  A    between atoms: C_12  and  C_13 
REMARK    5  A    between atoms: C_24  and  N_25 
REMARK    6  A    between atoms: N_25  and  C_26 
REMARK    7  A    between atoms: C_29  and  N_30 
ROOT
HETATM    1  C   UNL     1     -41.870  58.282 -52.888  1.00  0.00     0.756 A 
HETATM    2  N   UNL     1     -42.828  58.043 -53.762  1.00  0.00     0.133 NA
HETATM    3  C   UNL     1     -43.076  56.769 -54.057  1.00  0.00     0.774 A 
HETATM    4  N   UNL     1     -42.450  55.749 -53.487  1.00  0.00     0.133 NA
HETATM    5  C   UNL     1     -41.566  56.067 -52.554  1.00  0.00     0.758 A 
HETATM    6  N   UNL     1     -41.267  57.318 -52.210  1.00  0.00     0.131 NA
ENDROOT
BRANCH   3   7
HETATM    7  N   UNL     1     -44.065  56.445 -55.002  1.00  0.00    -0.105 N 
HETATM    8  H   UNL     1     -44.292  55.457 -54.908  1.00  0.00     0.208 HD
BRANCH   7   9
HETATM    9  N   UNL     1     -43.964  57.004 -56.243  1.00  0.00    -0.171 NA
HETATM   10  C   UNL     1     -42.975  56.576 -56.960  1.00  0.00     0.153 C 
BRANCH  10  11
HETATM   11  C   UNL     1     -42.751  57.128 -58.279  1.00  0.00     0.011 A 
HETATM   12  C   UNL     1     -42.392  58.462 -58.664  1.00  0.00     0.004 A 
HETATM   13  C   UNL     1     -42.284  58.481 -60.056  1.00  0.00     0.043 A 
HETATM   14  C   UNL     1     -42.135  59.661 -57.961  1.00  0.00     0.014 A 
HETATM   15  C   UNL     1     -41.938  59.631 -60.777  1.00  0.00     0.030 A 
HETATM   16  N   UNL     1     -42.562  57.211 -60.503  1.00  0.00    -0.364 N 
HETATM   17  C   UNL     1     -41.690  60.801 -60.054  1.00  0.00     0.002 A 
HETATM   18  C   UNL     1     -41.784  60.819 -58.665  1.00  0.00     0.001 A 
HETATM   19  H   UNL     1     -42.551  56.933 -61.475  1.00  0.00     0.165 HD
HETATM   20  C   UNL     1     -42.839  56.387 -59.445  1.00  0.00     0.102 A 
ENDBRANCH  10  11
ENDBRANCH   7   9
ENDBRANCH   3   7
BRANCH   1  21
HETATM   21  N   UNL     1     -41.503  59.609 -52.655  1.00  0.00    -0.210 N 
HETATM   22  C   UNL     1     -41.161  59.957 -51.272  1.00  0.00     0.169 C 
HETATM   23  C   UNL     1     -42.438  60.232 -50.453  1.00  0.00     0.254 C 
HETATM   24  N   UNL     1     -43.302  61.290 -51.155  1.00  0.00    -0.072 N 
HETATM   25  C   UNL     1     -44.541  61.607 -50.377  1.00  0.00     0.269 C 
HETATM   26  H   UNL     1     -42.740  62.149 -51.204  1.00  0.00     0.279 HD
HETATM   27  C   UNL     1     -43.618  60.889 -52.608  1.00  0.00     0.254 C 
HETATM   28  C   UNL     1     -42.305  60.611 -53.372  1.00  0.00     0.169 C 
ENDBRANCH   1  21
BRANCH   5  29
HETATM   29  N   UNL     1     -40.907  54.995 -51.953  1.00  0.00    -0.187 N 
HETATM   30  H   UNL     1     -40.437  55.296 -51.109  1.00  0.00     0.184 HD
BRANCH  29  31
HETATM   31  C   UNL     1     -40.563  53.725 -52.431  1.00  0.00     0.049 A 
HETATM   32  C   UNL     1     -40.775  53.330 -53.758  1.00  0.00     0.032 A 
HETATM   33  C   UNL     1     -40.446  52.042 -54.194  1.00  0.00     0.038 A 
HETATM   34  C   UNL     1     -39.920  51.121 -53.283  1.00  0.00     0.103 A 
HETATM   35  C   UNL     1     -39.720  51.483 -51.947  1.00  0.00     0.038 A 
HETATM   36  C   UNL     1     -40.044  52.780 -51.532  1.00  0.00     0.032 A 
BRANCH  34  37
HETATM   37  N   UNL     1     -39.578  49.767 -53.736  1.00  0.00    -0.116 N 
HETATM   38  O   UNL     1     -39.598  49.553 -54.957  1.00  0.00    -0.532 OA
HETATM   39  O   UNL     1     -39.299  48.923 -52.876  1.00  0.00    -0.532 OA
ENDBRANCH  34  37
ENDBRANCH  29  31
ENDBRANCH   5  29
TORSDOF 7
ENDMDL
MODEL 7
REMARK VINA RESULT:      -8.3      3.703      7.050
REMARK  7 active torsions:
REMARK  status: ('A' for Active; 'I' for Inactive)
REMARK    1  A    between atoms: N_6  and  C_7 
REMARK    2  A    between atoms: C_9  and  N_10 
REMARK    3  A    between atoms: N_10  and  N_11 
REMARK    4  A    between atoms: C_12  and  C_13 
REMARK    5  A    between atoms: C_24  and  N_25 
REMARK    6  A    between atoms: N_25  and  C_26 
REMARK    7  A    between atoms: C_29  and  N_30 
ROOT
HETATM    1  C   UNL     1     -44.087  59.845 -52.529  1.00  0.00     0.756 A 
HETATM    2  N   UNL     1     -43.968  59.015 -51.511  1.00  0.00     0.133 NA
HETATM    3  C   UNL     1     -43.263  57.904 -51.713  1.00  0.00     0.774 A 
HETATM    4  N   UNL     1     -42.647  57.624 -52.853  1.00  0.00     0.133 NA
HETATM    5  C   UNL     1     -42.737  58.548 -53.797  1.00  0.00     0.758 A 
HETATM    6  N   UNL     1     -43.426  59.680 -53.664  1.00  0.00     0.131 NA
ENDROOT
BRANCH   3   7
HETATM    7  N   UNL     1     -43.121  56.964 -50.678  1.00  0.00    -0.105 N 
HETATM    8  H   UNL     1     -42.723  57.433 -49.866  1.00  0.00     0.208 HD
BRANCH   7   9
HETATM    9  N   UNL     1     -42.697  55.710 -51.013  1.00  0.00    -0.171 NA
HETATM   10  C   UNL     1     -41.517  55.396 -50.583  1.00  0.00     0.153 C 
BRANCH  10  11
HETATM   11  C   UNL     1     -40.952  54.104 -50.912  1.00  0.00     0.011 A 
HETATM   12  C   UNL     1     -40.661  53.533 -52.195  1.00  0.00     0.004 A 
HETATM   13  C   UNL     1     -40.113  52.268 -51.975  1.00  0.00     0.043 A 
HETATM   14  C   UNL     1     -40.799  53.974 -53.530  1.00  0.00     0.014 A 
HETATM   15  C   UNL     1     -39.704  51.424 -53.015  1.00  0.00     0.030 A 
HETATM   16  N   UNL     1     -40.070  52.075 -50.614  1.00  0.00    -0.364 N 
HETATM   17  C   UNL     1     -39.852  51.888 -54.325  1.00  0.00     0.002 A 
HETATM   18  C   UNL     1     -40.390  53.146 -54.582  1.00  0.00     0.001 A 
HETATM   19  H   UNL     1     -39.711  51.241 -50.167  1.00  0.00     0.165 HD
HETATM   20  C   UNL     1     -40.565  53.173 -49.964  1.00  0.00     0.102 A 
ENDBRANCH  10  11
ENDBRANCH   7   9
ENDBRANCH   3   7
BRANCH   1  21
HETATM   21  N   UNL     1     -44.925  60.953 -52.385  1.00  0.00    -0.210 N 
HETATM   22  C   UNL     1     -44.538  62.162 -53.120  1.00  0.00     0.169 C 
HETATM   23  C   UNL     1     -43.466  62.949 -52.339  1.00  0.00     0.254 C 
HETATM   24  N   UNL     1     -43.950  63.230 -50.909  1.00  0.00    -0.072 N 
HETATM   25  C   UNL     1     -42.948  64.018 -50.124  1.00  0.00     0.269 C 
HETATM   26  H   UNL     1     -44.799  63.803 -50.990  1.00  0.00     0.279 HD
HETATM   27  C   UNL     1     -44.362  61.934 -50.186  1.00  0.00     0.254 C 
HETATM   28  C   UNL     1     -45.423  61.183 -51.021  1.00  0.00     0.169 C 
ENDBRANCH   1  21
BRANCH   5  29
HETATM   29  N   UNL     1     -42.089  58.255 -54.995  1.00  0.00    -0.187 N 
HETATM   30  H   UNL     1     -41.255  58.820 -55.094  1.00  0.00     0.184 HD
BRANCH  29  31
HETATM   31  C   UNL     1     -42.511  57.573 -56.143  1.00  0.00     0.049 A 
HETATM   32  C   UNL     1     -43.042  58.228 -57.262  1.00  0.00     0.032 A 
HETATM   33  C   UNL     1     -43.481  57.512 -58.380  1.00  0.00     0.038 A 
HETATM   34  C   UNL     1     -43.416  56.115 -58.373  1.00  0.00     0.103 A 
HETATM   35  C   UNL     1     -42.911  55.437 -57.259  1.00  0.00     0.038 A 
HETATM   36  C   UNL     1     -42.465  56.171 -56.154  1.00  0.00     0.032 A 
BRANCH  34  37
HETATM   37  N   UNL     1     -43.881  55.361 -59.544  1.00  0.00    -0.116 N 
HETATM   38  O   UNL     1     -44.423  54.266 -59.338  1.00  0.00    -0.532 OA
HETATM   39  O   UNL     1     -43.701  55.861 -60.661  1.00  0.00    -0.532 OA
ENDBRANCH  34  37
ENDBRANCH  29  31
ENDBRANCH   5  29
TORSDOF 7
ENDMDL
MODEL 8
REMARK VINA RESULT:      -8.3      3.257      8.403
REMARK  7 active torsions:
REMARK  status: ('A' for Active; 'I' for Inactive)
REMARK    1  A    between atoms: N_6  and  C_7 
REMARK    2  A    between atoms: C_9  and  N_10 
REMARK    3  A    between atoms: N_10  and  N_11 
REMARK    4  A    between atoms: C_12  and  C_13 
REMARK    5  A    between atoms: C_24  and  N_25 
REMARK    6  A    between atoms: N_25  and  C_26 
REMARK    7  A    between atoms: C_29  and  N_30 
ROOT
HETATM    1  C   UNL     1     -43.301  57.756 -53.005  1.00  0.00     0.756 A 
HETATM    2  N   UNL     1     -43.268  57.860 -54.319  1.00  0.00     0.133 NA
HETATM    3  C   UNL     1     -42.410  57.076 -54.968  1.00  0.00     0.774 A 
HETATM    4  N   UNL     1     -41.639  56.180 -54.369  1.00  0.00     0.133 NA
HETATM    5  C   UNL     1     -41.795  56.072 -53.059  1.00  0.00     0.758 A 
HETATM    6  N   UNL     1     -42.632  56.824 -52.346  1.00  0.00     0.131 NA
ENDROOT
BRANCH   3   7
HETATM    7  N   UNL     1     -42.305  57.156 -56.368  1.00  0.00    -0.105 N 
HETATM    8  H   UNL     1     -41.840  58.029 -56.609  1.00  0.00     0.208 HD
BRANCH   7   9
HETATM    9  N   UNL     1     -43.366  56.724 -57.110  1.00  0.00    -0.171 NA
HETATM   10  C   UNL     1     -43.098  56.451 -58.346  1.00  0.00     0.153 C 
BRANCH  10  11
HETATM   11  C   UNL     1     -44.157  56.021 -59.234  1.00  0.00     0.011 A 
HETATM   12  C   UNL     1     -45.268  56.760 -59.759  1.00  0.00     0.004 A 
HETATM   13  C   UNL     1     -45.996  55.895 -60.579  1.00  0.00     0.043 A 
HETATM   14  C   UNL     1     -45.723  58.092 -59.627  1.00  0.00     0.014 A 
HETATM   15  C   UNL     1     -47.151  56.290 -61.265  1.00  0.00     0.030 A 
HETATM   16  N   UNL     1     -45.355  54.679 -60.557  1.00  0.00    -0.364 N 
HETATM   17  C   UNL     1     -47.576  57.613 -61.115  1.00  0.00     0.002 A 
HETATM   18  C   UNL     1     -46.873  58.504 -60.310  1.00  0.00     0.001 A 
HETATM   19  H   UNL     1     -45.661  53.863 -61.071  1.00  0.00     0.165 HD
HETATM   20  C   UNL     1     -44.245  54.743 -59.758  1.00  0.00     0.102 A 
ENDBRANCH  10  11
ENDBRANCH   7   9
ENDBRANCH   3   7
BRANCH   1  21
HETATM   21  N   UNL     1     -44.098  58.654 -52.291  1.00  0.00    -0.210 N 
HETATM   22  C   UNL     1     -45.111  59.381 -53.063  1.00  0.00     0.169 C 
HETATM   23  C   UNL     1     -44.482  60.598 -53.771  1.00  0.00     0.254 C 
HETATM   24  N   UNL     1     -43.739  61.478 -52.754  1.00  0.00    -0.072 N 
HETATM   25  C   UNL     1     -43.135  62.687 -53.397  1.00  0.00     0.269 C 
HETATM   26  H   UNL     1     -44.439  61.805 -52.076  1.00  0.00     0.279 HD
HETATM   27  C   UNL     1     -42.701  60.667 -51.956  1.00  0.00     0.254 C 
HETATM   28  C   UNL     1     -43.385  59.456 -51.285  1.00  0.00     0.169 C 
ENDBRANCH   1  21
BRANCH   5  29
HETATM   29  N   UNL     1     -40.985  55.129 -52.428  1.00  0.00    -0.187 N 
HETATM   30  H   UNL     1     -40.409  55.571 -51.723  1.00  0.00     0.184 HD
BRANCH  29  31
HETATM   31  C   UNL     1     -40.640  53.817 -52.771  1.00  0.00     0.049 A 
HETATM   32  C   UNL     1     -40.954  53.249 -54.013  1.00  0.00     0.032 A 
HETATM   33  C   UNL     1     -40.619  51.924 -54.311  1.00  0.00     0.038 A 
HETATM   34  C   UNL     1     -39.983  51.140 -53.343  1.00  0.00     0.103 A 
HETATM   35  C   UNL     1     -39.679  51.677 -52.088  1.00  0.00     0.038 A 
HETATM   36  C   UNL     1     -40.011  53.008 -51.812  1.00  0.00     0.032 A 
BRANCH  34  37
HETATM   37  N   UNL     1     -39.635  49.748 -53.651  1.00  0.00    -0.116 N 
HETATM   38  O   UNL     1     -39.659  49.405 -54.842  1.00  0.00    -0.532 OA
HETATM   39  O   UNL     1     -39.347  49.002 -52.707  1.00  0.00    -0.532 OA
ENDBRANCH  34  37
ENDBRANCH  29  31
ENDBRANCH   5  29
TORSDOF 7
ENDMDL
MODEL 9
REMARK VINA RESULT:      -8.2      2.282      5.300
REMARK  7 active torsions:
REMARK  status: ('A' for Active; 'I' for Inactive)
REMARK    1  A    between atoms: N_6  and  C_7 
REMARK    2  A    between atoms: C_9  and  N_10 
REMARK    3  A    between atoms: N_10  and  N_11 
REMARK    4  A    between atoms: C_12  and  C_13 
REMARK    5  A    between atoms: C_24  and  N_25 
REMARK    6  A    between atoms: N_25  and  C_26 
REMARK    7  A    between atoms: C_29  and  N_30 
ROOT
HETATM    1  C   UNL     1     -42.932  56.541 -58.261  1.00  0.00     0.756 A 
HETATM    2  N   UNL     1     -42.587  57.709 -57.757  1.00  0.00     0.133 NA
HETATM    3  C   UNL     1     -42.519  57.802 -56.431  1.00  0.00     0.774 A 
HETATM    4  N   UNL     1     -42.732  56.781 -55.612  1.00  0.00     0.133 NA
HETATM    5  C   UNL     1     -42.985  55.620 -56.197  1.00  0.00     0.758 A 
HETATM    6  N   UNL     1     -43.068  55.455 -57.516  1.00  0.00     0.131 NA
ENDROOT
BRANCH   3   7
HETATM    7  N   UNL     1     -42.183  59.027 -55.827  1.00  0.00    -0.105 N 
HETATM    8  H   UNL     1     -41.231  59.268 -56.093  1.00  0.00     0.208 HD
BRANCH   7   9
HETATM    9  N   UNL     1     -42.607  59.241 -54.547  1.00  0.00    -0.171 NA
HETATM   10  C   UNL     1     -41.726  59.765 -53.758  1.00  0.00     0.153 C 
BRANCH  10  11
HETATM   11  C   UNL     1     -42.055  60.001 -52.368  1.00  0.00     0.011 A 
HETATM   12  C   UNL     1     -43.066  60.844 -51.798  1.00  0.00     0.004 A 
HETATM   13  C   UNL     1     -42.983  60.714 -50.409  1.00  0.00     0.043 A 
HETATM   14  C   UNL     1     -44.058  61.699 -52.327  1.00  0.00     0.014 A 
HETATM   15  C   UNL     1     -43.833  61.396 -49.530  1.00  0.00     0.030 A 
HETATM   16  N   UNL     1     -41.966  59.829 -50.143  1.00  0.00    -0.364 N 
HETATM   17  C   UNL     1     -44.804  62.235 -50.083  1.00  0.00     0.002 A 
HETATM   18  C   UNL     1     -44.919  62.385 -51.463  1.00  0.00     0.001 A 
HETATM   19  H   UNL     1     -41.687  59.541 -49.214  1.00  0.00     0.165 HD
HETATM   20  C   UNL     1     -41.403  59.389 -51.312  1.00  0.00     0.102 A 
ENDBRANCH  10  11
ENDBRANCH   7   9
ENDBRANCH   3   7
BRANCH   1  21
HETATM   21  N   UNL     1     -43.135  56.449 -59.640  1.00  0.00    -0.210 N 
HETATM   22  C   UNL     1     -43.268  57.718 -60.363  1.00  0.00     0.169 C 
HETATM   23  C   UNL     1     -44.710  58.255 -60.250  1.00  0.00     0.254 C 
HETATM   24  N   UNL     1     -45.713  57.183 -60.701  1.00  0.00    -0.072 N 
HETATM   25  C   UNL     1     -47.125  57.674 -60.633  1.00  0.00     0.269 C 
HETATM   26  H   UNL     1     -45.505  56.977 -61.687  1.00  0.00     0.279 HD
HETATM   27  C   UNL     1     -45.520  55.865 -59.928  1.00  0.00     0.254 C 
HETATM   28  C   UNL     1     -44.058  55.387 -60.064  1.00  0.00     0.169 C 
ENDBRANCH   1  21
BRANCH   5  29
HETATM   29  N   UNL     1     -43.207  54.545 -55.337  1.00  0.00    -0.187 N 
HETATM   30  H   UNL     1     -44.147  54.189 -55.452  1.00  0.00     0.184 HD
BRANCH  29  31
HETATM   31  C   UNL     1     -42.508  54.088 -54.214  1.00  0.00     0.049 A 
HETATM   32  C   UNL     1     -42.917  54.360 -52.902  1.00  0.00     0.032 A 
HETATM   33  C   UNL     1     -42.177  53.911 -51.804  1.00  0.00     0.038 A 
HETATM   34  C   UNL     1     -40.991  53.201 -52.016  1.00  0.00     0.103 A 
HETATM   35  C   UNL     1     -40.549  52.937 -53.316  1.00  0.00     0.038 A 
HETATM   36  C   UNL     1     -41.309  53.383 -54.403  1.00  0.00     0.032 A 
BRANCH  34  37
HETATM   37  N   UNL     1     -40.210  52.734 -50.864  1.00  0.00    -0.116 N 
HETATM   38  O   UNL     1     -40.015  51.514 -50.764  1.00  0.00    -0.532 OA
HETATM   39  O   UNL     1     -39.799  53.583 -50.063  1.00  0.00    -0.532 OA
ENDBRANCH  34  37
ENDBRANCH  29  31
ENDBRANCH   5  29
TORSDOF 7
ENDMDL
MODEL 10
REMARK VINA RESULT:      -8.2      1.893      2.865
REMARK  7 active torsions:
REMARK  status: ('A' for Active; 'I' for Inactive)
REMARK    1  A    between atoms: N_6  and  C_7 
REMARK    2  A    between atoms: C_9  and  N_10 
REMARK    3  A    between atoms: N_10  and  N_11 
REMARK    4  A    between atoms: C_12  and  C_13 
REMARK    5  A    between atoms: C_24  and  N_25 
REMARK    6  A    between atoms: N_25  and  C_26 
REMARK    7  A    between atoms: C_29  and  N_30 
ROOT
HETATM    1  C   UNL     1     -42.791  57.473 -57.858  1.00  0.00     0.756 A 
HETATM    2  N   UNL     1     -43.338  56.477 -57.189  1.00  0.00     0.133 NA
HETATM    3  C   UNL     1     -43.320  56.557 -55.860  1.00  0.00     0.774 A 
HETATM    4  N   UNL     1     -42.833  57.595 -55.195  1.00  0.00     0.133 NA
HETATM    5  C   UNL     1     -42.384  58.594 -55.938  1.00  0.00     0.758 A 
HETATM    6  N   UNL     1     -42.369  58.581 -57.270  1.00  0.00     0.131 NA
ENDROOT
BRANCH   3   7
HETATM    7  N   UNL     1     -43.862  55.517 -55.086  1.00  0.00    -0.105 N 
HETATM    8  H   UNL     1     -44.846  55.717 -54.916  1.00  0.00     0.208 HD
BRANCH   7   9
HETATM    9  N   UNL     1     -43.091  55.004 -54.083  1.00  0.00    -0.171 NA
HETATM   10  C   UNL     1     -42.202  54.142 -54.459  1.00  0.00     0.153 C 
BRANCH  10  11
HETATM   11  C   UNL     1     -41.354  53.506 -53.474  1.00  0.00     0.011 A 
HETATM   12  C   UNL     1     -40.746  52.207 -53.492  1.00  0.00     0.004 A 
HETATM   13  C   UNL     1     -40.012  52.072 -52.311  1.00  0.00     0.043 A 
HETATM   14  C   UNL     1     -40.735  51.130 -54.407  1.00  0.00     0.014 A 
HETATM   15  C   UNL     1     -39.279  50.921 -51.999  1.00  0.00     0.030 A 
HETATM   16  N   UNL     1     -40.165  53.241 -51.602  1.00  0.00    -0.364 N 
HETATM   17  C   UNL     1     -39.287  49.873 -52.923  1.00  0.00     0.002 A 
HETATM   18  C   UNL     1     -40.003  49.974 -54.113  1.00  0.00     0.001 A 
HETATM   19  H   UNL     1     -39.735  53.424 -50.705  1.00  0.00     0.165 HD
HETATM   20  C   UNL     1     -40.964  54.112 -52.293  1.00  0.00     0.102 A 
ENDBRANCH  10  11
ENDBRANCH   7   9
ENDBRANCH   3   7
BRANCH   1  21
HETATM   21  N   UNL     1     -42.682  57.356 -59.246  1.00  0.00    -0.210 N 
HETATM   22  C   UNL     1     -43.443  58.323 -60.043  1.00  0.00     0.169 C 
HETATM   23  C   UNL     1     -44.911  57.871 -60.183  1.00  0.00     0.254 C 
HETATM   24  N   UNL     1     -44.975  56.438 -60.732  1.00  0.00    -0.072 N 
HETATM   25  C   UNL     1     -46.386  55.971 -60.910  1.00  0.00     0.269 C 
HETATM   26  H   UNL     1     -44.537  56.456 -61.662  1.00  0.00     0.279 HD
HETATM   27  C   UNL     1     -44.146  55.465 -59.874  1.00  0.00     0.254 C 
HETATM   28  C   UNL     1     -42.694  55.977 -59.757  1.00  0.00     0.169 C 
ENDBRANCH   1  21
BRANCH   5  29
HETATM   29  N   UNL     1     -41.871  59.686 -55.239  1.00  0.00    -0.187 N 
HETATM   30  H   UNL     1     -40.987  59.977 -55.636  1.00  0.00     0.184 HD
BRANCH  29  31
HETATM   31  C   UNL     1     -42.196  60.232 -53.992  1.00  0.00     0.049 A 
HETATM   32  C   UNL     1     -41.655  59.755 -52.790  1.00  0.00     0.032 A 
HETATM   33  C   UNL     1     -42.025  60.305 -51.559  1.00  0.00     0.038 A 
HETATM   34  C   UNL     1     -42.973  61.333 -51.521  1.00  0.00     0.103 A 
HETATM   35  C   UNL     1     -43.544  61.810 -52.704  1.00  0.00     0.038 A 
HETATM   36  C   UNL     1     -43.153  61.256 -53.928  1.00  0.00     0.032 A 
BRANCH  34  37
HETATM   37  N   UNL     1     -43.367  61.908 -50.229  1.00  0.00    -0.116 N 
HETATM   38  O   UNL     1     -42.972  63.054 -49.972  1.00  0.00    -0.532 OA
HETATM   39  O   UNL     1     -44.061  61.215 -49.476  1.00  0.00    -0.532 OA
ENDBRANCH  34  37
ENDBRANCH  29  31
ENDBRANCH   5  29
TORSDOF 7
ENDMDL
