MODEL 1
REMARK VINA RESULT:      -9.6      0.000      0.000
REMARK  6 active torsions:
REMARK  status: ('A' for Active; 'I' for Inactive)
REMARK    1  A    between atoms: C_2  and  O_3 
REMARK    2  A    between atoms: C_2  and  C_4 
REMARK    3  A    between atoms: C_6  and  N_7 
REMARK       I    between atoms: N_7  and  C_8 
REMARK    4  A    between atoms: C_8  and  C_9 
REMARK    5  A    between atoms: C_14  and  C_15 
REMARK    6  A    between atoms: C_23  and  C_24 
ROOT
HETATM    1  C   UNL     1     -43.834  57.790 -51.958  1.00  0.00     0.148 C 
HETATM    2  N   UNL     1     -44.391  57.143 -53.012  1.00  0.00    -0.165 NA
HETATM    3  N   UNL     1     -43.348  56.489 -53.551  1.00  0.00    -0.240 N 
HETATM    4  C   UNL     1     -42.204  56.556 -52.810  1.00  0.00     0.123 C 
HETATM    5  N   UNL     1     -41.133  55.797 -53.120  1.00  0.00    -0.366 N 
HETATM    6  C   UNL     1     -41.228  54.635 -54.009  1.00  0.00     0.118 C 
HETATM    7  C   UNL     1     -42.678  54.353 -54.464  1.00  0.00     0.066 C 
HETATM    8  C   UNL     1     -43.477  55.636 -54.714  1.00  0.00     0.221 C 
HETATM    9  C   UNL     1     -42.453  57.470 -51.823  1.00  0.00     0.089 C 
HETATM   10  H   UNL     1     -40.280  55.845 -52.563  1.00  0.00     0.161 HD
ENDROOT
BRANCH   1  11
HETATM   11  C   UNL     1     -44.629  58.650 -51.062  1.00  0.00     0.276 C 
HETATM   12  N   UNL     1     -43.895  59.731 -50.613  1.00  0.00    -0.322 N 
HETATM   13  H   UNL     1     -42.946  59.753 -50.980  1.00  0.00     0.169 HD
HETATM   14  O   UNL     1     -45.806  58.408 -50.820  1.00  0.00    -0.266 OA
BRANCH  12  15
HETATM   15  C   UNL     1     -44.314  60.793 -49.796  1.00  0.00     0.035 A 
HETATM   16  C   UNL     1     -45.141  60.633 -48.681  1.00  0.00     0.039 A 
HETATM   17  C   UNL     1     -45.523  61.739 -47.900  1.00  0.00    -0.028 A 
HETATM   18  C   UNL     1     -45.082  63.016 -48.272  1.00  0.00     0.010 A 
HETATM   19  C   UNL     1     -44.257  63.184 -49.382  1.00  0.00     0.003 A 
HETATM   20  C   UNL     1     -43.868  62.075 -50.134  1.00  0.00     0.029 A 
BRANCH  17  21
HETATM   21  C   UNL     1     -46.406  61.537 -46.688  1.00  0.00     0.147 C 
HETATM   22  C   UNL     1     -46.333  60.118 -46.145  1.00  0.00     0.044 C 
BRANCH  21  23
HETATM   23  O   UNL     1     -47.762  61.837 -47.017  1.00  0.00    -0.391 OA
HETATM   24  H   UNL     1     -47.874  61.624 -47.959  1.00  0.00     0.210 HD
ENDBRANCH  21  23
ENDBRANCH  17  21
ENDBRANCH  12  15
ENDBRANCH   1  11
BRANCH   8  25
HETATM   25  C   UNL     1     -43.032  56.374 -55.957  1.00  0.00     0.409 C 
HETATM   26  F   UNL     1     -44.055  57.003 -56.575  1.00  0.00    -0.169 F 
HETATM   27  F   UNL     1     -42.062  57.284 -55.732  1.00  0.00    -0.169 F 
HETATM   28  F   UNL     1     -42.525  55.487 -56.854  1.00  0.00    -0.169 F 
ENDBRANCH   8  25
BRANCH   6  29
HETATM   29  C   UNL     1     -40.661  53.412 -53.302  1.00  0.00    -0.035 A 
HETATM   30  C   UNL     1     -40.256  52.275 -54.034  1.00  0.00     0.012 A 
HETATM   31  C   UNL     1     -39.707  51.169 -53.387  1.00  0.00     0.043 A 
HETATM   32  C   UNL     1     -39.553  51.193 -52.009  1.00  0.00     0.116 A 
HETATM   33  F   UNL     1     -39.021  50.133 -51.384  1.00  0.00    -0.206 F 
HETATM   34  C   UNL     1     -39.939  52.302 -51.264  1.00  0.00     0.043 A 
HETATM   35  C   UNL     1     -40.493  53.411 -51.908  1.00  0.00     0.012 A 
ENDBRANCH   6  29
TORSDOF 6
ENDMDL
MODEL 2
REMARK VINA RESULT:      -9.5      5.946      9.446
REMARK  6 active torsions:
REMARK  status: ('A' for Active; 'I' for Inactive)
REMARK    1  A    between atoms: C_2  and  O_3 
REMARK    2  A    between atoms: C_2  and  C_4 
REMARK    3  A    between atoms: C_6  and  N_7 
REMARK       I    between atoms: N_7  and  C_8 
REMARK    4  A    between atoms: C_8  and  C_9 
REMARK    5  A    between atoms: C_14  and  C_15 
REMARK    6  A    between atoms: C_23  and  C_24 
ROOT
HETATM    1  C   UNL     1     -43.007  55.666 -55.831  1.00  0.00     0.148 C 
HETATM    2  N   UNL     1     -42.751  55.139 -57.054  1.00  0.00    -0.165 NA
HETATM    3  N   UNL     1     -43.116  56.126 -57.890  1.00  0.00    -0.240 N 
HETATM    4  C   UNL     1     -43.436  57.297 -57.266  1.00  0.00     0.123 C 
HETATM    5  N   UNL     1     -43.636  58.427 -57.974  1.00  0.00    -0.366 N 
HETATM    6  C   UNL     1     -43.196  58.567 -59.366  1.00  0.00     0.118 C 
HETATM    7  C   UNL     1     -42.426  57.326 -59.872  1.00  0.00     0.066 C 
HETATM    8  C   UNL     1     -43.002  56.013 -59.330  1.00  0.00     0.221 C 
HETATM    9  C   UNL     1     -43.471  57.008 -55.930  1.00  0.00     0.089 C 
HETATM   10  H   UNL     1     -43.871  59.302 -57.506  1.00  0.00     0.161 HD
ENDROOT
BRANCH   1  11
HETATM   11  C   UNL     1     -42.751  54.913 -54.589  1.00  0.00     0.276 C 
HETATM   12  N   UNL     1     -41.516  54.295 -54.614  1.00  0.00    -0.322 N 
HETATM   13  H   UNL     1     -40.996  54.471 -55.471  1.00  0.00     0.169 HD
HETATM   14  O   UNL     1     -43.556  54.910 -53.664  1.00  0.00    -0.266 OA
BRANCH  12  15
HETATM   15  C   UNL     1     -40.895  53.540 -53.607  1.00  0.00     0.035 A 
HETATM   16  C   UNL     1     -40.407  52.245 -53.798  1.00  0.00     0.039 A 
HETATM   17  C   UNL     1     -39.792  51.542 -52.747  1.00  0.00    -0.028 A 
HETATM   18  C   UNL     1     -39.696  52.151 -51.488  1.00  0.00     0.010 A 
HETATM   19  C   UNL     1     -40.179  53.443 -51.289  1.00  0.00     0.003 A 
HETATM   20  C   UNL     1     -40.768  54.137 -52.348  1.00  0.00     0.029 A 
BRANCH  17  21
HETATM   21  C   UNL     1     -39.256  50.147 -52.984  1.00  0.00     0.147 C 
HETATM   22  C   UNL     1     -39.628  49.608 -54.357  1.00  0.00     0.044 C 
BRANCH  21  23
HETATM   23  O   UNL     1     -39.757  49.256 -51.987  1.00  0.00    -0.391 OA
HETATM   24  H   UNL     1     -40.577  49.652 -51.646  1.00  0.00     0.210 HD
ENDBRANCH  21  23
ENDBRANCH  17  21
ENDBRANCH  12  15
ENDBRANCH   1  11
BRANCH   8  25
HETATM   25  C   UNL     1     -44.342  55.663 -59.936  1.00  0.00     0.409 C 
HETATM   26  F   UNL     1     -44.530  54.328 -60.027  1.00  0.00    -0.169 F 
HETATM   27  F   UNL     1     -45.393  56.185 -59.274  1.00  0.00    -0.169 F 
HETATM   28  F   UNL     1     -44.406  56.149 -61.204  1.00  0.00    -0.169 F 
ENDBRANCH   8  25
BRANCH   6  29
HETATM   29  C   UNL     1     -42.321  59.806 -59.496  1.00  0.00    -0.035 A 
HETATM   30  C   UNL     1     -42.118  60.421 -60.749  1.00  0.00     0.012 A 
HETATM   31  C   UNL     1     -41.342  61.574 -60.860  1.00  0.00     0.043 A 
HETATM   32  C   UNL     1     -40.771  62.124 -59.721  1.00  0.00     0.116 A 
HETATM   33  F   UNL     1     -40.030  63.235 -59.823  1.00  0.00    -0.206 F 
HETATM   34  C   UNL     1     -40.960  61.539 -58.473  1.00  0.00     0.043 A 
HETATM   35  C   UNL     1     -41.732  60.382 -58.358  1.00  0.00     0.012 A 
ENDBRANCH   6  29
TORSDOF 6
ENDMDL
MODEL 3
REMARK VINA RESULT:      -9.4      5.640      8.804
REMARK  6 active torsions:
REMARK  status: ('A' for Active; 'I' for Inactive)
REMARK    1  A    between atoms: C_2  and  O_3 
REMARK    2  A    between atoms: C_2  and  C_4 
REMARK    3  A    between atoms: C_6  and  N_7 
REMARK       I    between atoms: N_7  and  C_8 
REMARK    4  A    between atoms: C_8  and  C_9 
REMARK    5  A    between atoms: C_14  and  C_15 
REMARK    6  A    between atoms: C_23  and  C_24 
ROOT
HETATM    1  C   UNL     1     -43.046  55.583 -55.833  1.00  0.00     0.148 C 
HETATM    2  N   UNL     1     -42.759  55.064 -57.053  1.00  0.00    -0.165 NA
HETATM    3  N   UNL     1     -43.117  56.051 -57.893  1.00  0.00    -0.240 N 
HETATM    4  C   UNL     1     -43.462  57.215 -57.271  1.00  0.00     0.123 C 
HETATM    5  N   UNL     1     -43.659  58.346 -57.979  1.00  0.00    -0.366 N 
HETATM    6  C   UNL     1     -43.191  58.497 -59.360  1.00  0.00     0.118 C 
HETATM    7  C   UNL     1     -42.397  57.266 -59.855  1.00  0.00     0.066 C 
HETATM    8  C   UNL     1     -42.971  55.945 -59.330  1.00  0.00     0.221 C 
HETATM    9  C   UNL     1     -43.522  56.921 -55.936  1.00  0.00     0.089 C 
HETATM   10  H   UNL     1     -43.913  59.217 -57.512  1.00  0.00     0.161 HD
ENDROOT
BRANCH   1  11
HETATM   11  C   UNL     1     -42.809  54.827 -54.590  1.00  0.00     0.276 C 
HETATM   12  N   UNL     1     -41.549  54.261 -54.572  1.00  0.00    -0.322 N 
HETATM   13  H   UNL     1     -41.003  54.468 -55.405  1.00  0.00     0.169 HD
HETATM   14  O   UNL     1     -43.649  54.781 -53.698  1.00  0.00    -0.266 OA
BRANCH  12  15
HETATM   15  C   UNL     1     -40.937  53.521 -53.547  1.00  0.00     0.035 A 
HETATM   16  C   UNL     1     -40.928  53.915 -52.207  1.00  0.00     0.039 A 
HETATM   17  C   UNL     1     -40.300  53.127 -51.226  1.00  0.00    -0.028 A 
HETATM   18  C   UNL     1     -39.656  51.945 -51.617  1.00  0.00     0.010 A 
HETATM   19  C   UNL     1     -39.661  51.545 -52.951  1.00  0.00     0.003 A 
HETATM   20  C   UNL     1     -40.307  52.326 -53.910  1.00  0.00     0.029 A 
BRANCH  17  21
HETATM   21  C   UNL     1     -40.319  53.567 -49.778  1.00  0.00     0.147 C 
HETATM   22  C   UNL     1     -41.550  54.393 -49.438  1.00  0.00     0.044 C 
BRANCH  21  23
HETATM   23  O   UNL     1     -39.152  54.335 -49.487  1.00  0.00    -0.391 OA
HETATM   24  H   UNL     1     -38.591  53.785 -48.913  1.00  0.00     0.210 HD
ENDBRANCH  21  23
ENDBRANCH  17  21
ENDBRANCH  12  15
ENDBRANCH   1  11
BRANCH   8  25
HETATM   25  C   UNL     1     -44.294  55.584 -59.966  1.00  0.00     0.409 C 
HETATM   26  F   UNL     1     -44.461  54.248 -60.078  1.00  0.00    -0.169 F 
HETATM   27  F   UNL     1     -45.366  56.082 -59.317  1.00  0.00    -0.169 F 
HETATM   28  F   UNL     1     -44.342  56.085 -61.229  1.00  0.00    -0.169 F 
ENDBRANCH   8  25
BRANCH   6  29
HETATM   29  C   UNL     1     -42.327  59.746 -59.466  1.00  0.00    -0.035 A 
HETATM   30  C   UNL     1     -42.100  60.366 -60.713  1.00  0.00     0.012 A 
HETATM   31  C   UNL     1     -41.334  61.528 -60.803  1.00  0.00     0.043 A 
HETATM   32  C   UNL     1     -40.797  62.080 -59.650  1.00  0.00     0.116 A 
HETATM   33  F   UNL     1     -40.065  63.200 -59.732  1.00  0.00    -0.206 F 
HETATM   34  C   UNL     1     -41.008  61.491 -58.408  1.00  0.00     0.043 A 
HETATM   35  C   UNL     1     -41.771  60.325 -58.314  1.00  0.00     0.012 A 
ENDBRANCH   6  29
TORSDOF 6
ENDMDL
MODEL 4
REMARK VINA RESULT:      -9.1      5.926      9.765
REMARK  6 active torsions:
REMARK  status: ('A' for Active; 'I' for Inactive)
REMARK    1  A    between atoms: C_2  and  O_3 
REMARK    2  A    between atoms: C_2  and  C_4 
REMARK    3  A    between atoms: C_6  and  N_7 
REMARK       I    between atoms: N_7  and  C_8 
REMARK    4  A    between atoms: C_8  and  C_9 
REMARK    5  A    between atoms: C_14  and  C_15 
REMARK    6  A    between atoms: C_23  and  C_24 
ROOT
HETATM    1  C   UNL     1     -42.961  55.782 -55.800  1.00  0.00     0.148 C 
HETATM    2  N   UNL     1     -43.163  57.107 -55.596  1.00  0.00    -0.165 NA
HETATM    3  N   UNL     1     -43.333  57.582 -56.841  1.00  0.00    -0.240 N 
HETATM    4  C   UNL     1     -43.408  56.616 -57.802  1.00  0.00     0.123 C 
HETATM    5  N   UNL     1     -43.766  56.922 -59.066  1.00  0.00    -0.366 N 
HETATM    6  C   UNL     1     -44.419  58.189 -59.410  1.00  0.00     0.118 C 
HETATM    7  C   UNL     1     -44.710  59.062 -58.168  1.00  0.00     0.066 C 
HETATM    8  C   UNL     1     -43.599  58.979 -57.115  1.00  0.00     0.221 C 
HETATM    9  C   UNL     1     -43.073  55.445 -57.179  1.00  0.00     0.089 C 
HETATM   10  H   UNL     1     -43.825  56.198 -59.782  1.00  0.00     0.161 HD
ENDROOT
BRANCH   1  11
HETATM   11  C   UNL     1     -42.724  54.848 -54.683  1.00  0.00     0.276 C 
HETATM   12  N   UNL     1     -41.430  54.364 -54.691  1.00  0.00    -0.322 N 
HETATM   13  H   UNL     1     -40.865  54.738 -55.451  1.00  0.00     0.169 HD
HETATM   14  O   UNL     1     -43.595  54.606 -53.856  1.00  0.00    -0.266 OA
BRANCH  12  15
HETATM   15  C   UNL     1     -40.813  53.505 -53.768  1.00  0.00     0.035 A 
HETATM   16  C   UNL     1     -40.329  52.236 -54.095  1.00  0.00     0.039 A 
HETATM   17  C   UNL     1     -39.717  51.423 -53.124  1.00  0.00    -0.028 A 
HETATM   18  C   UNL     1     -39.620  51.896 -51.808  1.00  0.00     0.010 A 
HETATM   19  C   UNL     1     -40.098  53.161 -51.474  1.00  0.00     0.003 A 
HETATM   20  C   UNL     1     -40.684  53.965 -52.453  1.00  0.00     0.029 A 
BRANCH  17  21
HETATM   21  C   UNL     1     -39.187  50.059 -53.507  1.00  0.00     0.147 C 
HETATM   22  C   UNL     1     -39.717  49.587 -54.853  1.00  0.00     0.044 C 
BRANCH  21  23
HETATM   23  O   UNL     1     -39.540  49.101 -52.510  1.00  0.00    -0.391 OA
HETATM   24  H   UNL     1     -39.747  48.274 -52.978  1.00  0.00     0.210 HD
ENDBRANCH  21  23
ENDBRANCH  17  21
ENDBRANCH  12  15
ENDBRANCH   1  11
BRANCH   8  25
HETATM   25  C   UNL     1     -42.329  59.680 -57.544  1.00  0.00     0.409 C 
HETATM   26  F   UNL     1     -41.410  58.820 -58.034  1.00  0.00    -0.169 F 
HETATM   27  F   UNL     1     -42.524  60.646 -58.464  1.00  0.00    -0.169 F 
HETATM   28  F   UNL     1     -41.759  60.283 -56.468  1.00  0.00    -0.169 F 
ENDBRANCH   8  25
BRANCH   6  29
HETATM   29  C   UNL     1     -45.715  57.902 -60.155  1.00  0.00    -0.035 A 
HETATM   30  C   UNL     1     -46.523  58.953 -60.635  1.00  0.00     0.012 A 
HETATM   31  C   UNL     1     -47.693  58.687 -61.345  1.00  0.00     0.043 A 
HETATM   32  C   UNL     1     -48.060  57.371 -61.585  1.00  0.00     0.116 A 
HETATM   33  F   UNL     1     -49.181  57.112 -62.272  1.00  0.00    -0.206 F 
HETATM   34  C   UNL     1     -47.279  56.316 -61.126  1.00  0.00     0.043 A 
HETATM   35  C   UNL     1     -46.108  56.578 -60.411  1.00  0.00     0.012 A 
ENDBRANCH   6  29
TORSDOF 6
ENDMDL
MODEL 5
REMARK VINA RESULT:      -8.9      4.407      7.319
REMARK  6 active torsions:
REMARK  status: ('A' for Active; 'I' for Inactive)
REMARK    1  A    between atoms: C_2  and  O_3 
REMARK    2  A    between atoms: C_2  and  C_4 
REMARK    3  A    between atoms: C_6  and  N_7 
REMARK       I    between atoms: N_7  and  C_8 
REMARK    4  A    between atoms: C_8  and  C_9 
REMARK    5  A    between atoms: C_14  and  C_15 
REMARK    6  A    between atoms: C_23  and  C_24 
ROOT
HETATM    1  C   UNL     1     -43.051  57.538 -55.558  1.00  0.00     0.148 C 
HETATM    2  N   UNL     1     -42.356  57.935 -54.463  1.00  0.00    -0.165 NA
HETATM    3  N   UNL     1     -42.393  56.849 -53.672  1.00  0.00    -0.240 N 
HETATM    4  C   UNL     1     -42.929  55.744 -54.266  1.00  0.00     0.123 C 
HETATM    5  N   UNL     1     -42.860  54.536 -53.670  1.00  0.00    -0.366 N 
HETATM    6  C   UNL     1     -41.937  54.259 -52.565  1.00  0.00     0.118 C 
HETATM    7  C   UNL     1     -41.025  55.464 -52.238  1.00  0.00     0.066 C 
HETATM    8  C   UNL     1     -41.752  56.807 -52.374  1.00  0.00     0.221 C 
HETATM    9  C   UNL     1     -43.455  56.177 -55.452  1.00  0.00     0.089 C 
HETATM   10  H   UNL     1     -43.257  53.710 -54.117  1.00  0.00     0.161 HD
ENDROOT
BRANCH   1  11
HETATM   11  C   UNL     1     -43.268  58.433 -56.710  1.00  0.00     0.276 C 
HETATM   12  N   UNL     1     -42.075  58.920 -57.208  1.00  0.00    -0.322 N 
HETATM   13  H   UNL     1     -41.260  58.574 -56.706  1.00  0.00     0.169 HD
HETATM   14  O   UNL     1     -44.391  58.644 -57.153  1.00  0.00    -0.266 OA
BRANCH  12  15
HETATM   15  C   UNL     1     -41.866  59.748 -58.322  1.00  0.00     0.035 A 
HETATM   16  C   UNL     1     -41.363  61.048 -58.237  1.00  0.00     0.039 A 
HETATM   17  C   UNL     1     -41.173  61.827 -59.392  1.00  0.00    -0.028 A 
HETATM   18  C   UNL     1     -41.521  61.287 -60.638  1.00  0.00     0.010 A 
HETATM   19  C   UNL     1     -42.022  59.991 -60.732  1.00  0.00     0.003 A 
HETATM   20  C   UNL     1     -42.185  59.222 -59.578  1.00  0.00     0.029 A 
BRANCH  17  21
HETATM   21  C   UNL     1     -40.611  63.227 -59.275  1.00  0.00     0.147 C 
HETATM   22  C   UNL     1     -39.237  63.356 -59.916  1.00  0.00     0.044 C 
BRANCH  21  23
HETATM   23  O   UNL     1     -40.517  63.602 -57.901  1.00  0.00    -0.391 OA
HETATM   24  H   UNL     1     -41.024  64.425 -57.801  1.00  0.00     0.210 HD
ENDBRANCH  21  23
ENDBRANCH  17  21
ENDBRANCH  12  15
ENDBRANCH   1  11
BRANCH   8  25
HETATM   25  C   UNL     1     -42.769  57.038 -51.279  1.00  0.00     0.409 C 
HETATM   26  F   UNL     1     -44.031  56.789 -51.691  1.00  0.00    -0.169 F 
HETATM   27  F   UNL     1     -42.546  56.312 -50.165  1.00  0.00    -0.169 F 
HETATM   28  F   UNL     1     -42.738  58.343 -50.900  1.00  0.00    -0.169 F 
ENDBRANCH   8  25
BRANCH   6  29
HETATM   29  C   UNL     1     -41.084  53.046 -52.912  1.00  0.00    -0.035 A 
HETATM   30  C   UNL     1     -40.196  52.491 -51.968  1.00  0.00     0.012 A 
HETATM   31  C   UNL     1     -39.440  51.361 -52.278  1.00  0.00     0.043 A 
HETATM   32  C   UNL     1     -39.572  50.775 -53.528  1.00  0.00     0.116 A 
HETATM   33  F   UNL     1     -38.851  49.686 -53.827  1.00  0.00    -0.206 F 
HETATM   34  C   UNL     1     -40.444  51.300 -54.476  1.00  0.00     0.043 A 
HETATM   35  C   UNL     1     -41.200  52.434 -54.171  1.00  0.00     0.012 A 
ENDBRANCH   6  29
TORSDOF 6
ENDMDL
MODEL 6
REMARK VINA RESULT:      -8.9      1.510      2.052
REMARK  6 active torsions:
REMARK  status: ('A' for Active; 'I' for Inactive)
REMARK    1  A    between atoms: C_2  and  O_3 
REMARK    2  A    between atoms: C_2  and  C_4 
REMARK    3  A    between atoms: C_6  and  N_7 
REMARK       I    between atoms: N_7  and  C_8 
REMARK    4  A    between atoms: C_8  and  C_9 
REMARK    5  A    between atoms: C_14  and  C_15 
REMARK    6  A    between atoms: C_23  and  C_24 
ROOT
HETATM    1  C   UNL     1     -43.760  57.495 -52.176  1.00  0.00     0.148 C 
HETATM    2  N   UNL     1     -44.301  56.848 -53.238  1.00  0.00    -0.165 NA
HETATM    3  N   UNL     1     -43.247  56.203 -53.768  1.00  0.00    -0.240 N 
HETATM    4  C   UNL     1     -42.112  56.276 -53.014  1.00  0.00     0.123 C 
HETATM    5  N   UNL     1     -41.032  55.526 -53.314  1.00  0.00    -0.366 N 
HETATM    6  C   UNL     1     -41.108  54.367 -54.209  1.00  0.00     0.118 C 
HETATM    7  C   UNL     1     -42.551  54.076 -54.681  1.00  0.00     0.066 C 
HETATM    8  C   UNL     1     -43.357  55.354 -54.936  1.00  0.00     0.221 C 
HETATM    9  C   UNL     1     -42.378  57.184 -52.026  1.00  0.00     0.089 C 
HETATM   10  H   UNL     1     -40.185  55.579 -52.747  1.00  0.00     0.161 HD
ENDROOT
BRANCH   1  11
HETATM   11  C   UNL     1     -44.571  58.346 -51.286  1.00  0.00     0.276 C 
HETATM   12  N   UNL     1     -44.196  59.673 -51.370  1.00  0.00    -0.322 N 
HETATM   13  H   UNL     1     -43.440  59.835 -52.032  1.00  0.00     0.169 HD
HETATM   14  O   UNL     1     -45.483  57.881 -50.611  1.00  0.00    -0.266 OA
BRANCH  12  15
HETATM   15  C   UNL     1     -44.761  60.784 -50.726  1.00  0.00     0.035 A 
HETATM   16  C   UNL     1     -45.815  61.533 -51.255  1.00  0.00     0.039 A 
HETATM   17  C   UNL     1     -46.340  62.636 -50.557  1.00  0.00    -0.028 A 
HETATM   18  C   UNL     1     -45.772  62.992 -49.326  1.00  0.00     0.010 A 
HETATM   19  C   UNL     1     -44.721  62.250 -48.791  1.00  0.00     0.003 A 
HETATM   20  C   UNL     1     -44.225  61.145 -49.485  1.00  0.00     0.029 A 
BRANCH  17  21
HETATM   21  C   UNL     1     -47.493  63.421 -51.144  1.00  0.00     0.147 C 
HETATM   22  C   UNL     1     -48.460  63.916 -50.078  1.00  0.00     0.044 C 
BRANCH  21  23
HETATM   23  O   UNL     1     -48.209  62.613 -52.077  1.00  0.00    -0.391 OA
HETATM   24  H   UNL     1     -47.701  62.628 -52.906  1.00  0.00     0.210 HD
ENDBRANCH  21  23
ENDBRANCH  17  21
ENDBRANCH  12  15
ENDBRANCH   1  11
BRANCH   8  25
HETATM   25  C   UNL     1     -42.902  56.100 -56.170  1.00  0.00     0.409 C 
HETATM   26  F   UNL     1     -43.896  56.829 -56.724  1.00  0.00    -0.169 F 
HETATM   27  F   UNL     1     -41.856  56.923 -55.956  1.00  0.00    -0.169 F 
HETATM   28  F   UNL     1     -42.504  55.210 -57.117  1.00  0.00    -0.169 F 
ENDBRANCH   8  25
BRANCH   6  29
HETATM   29  C   UNL     1     -40.540  53.145 -53.501  1.00  0.00    -0.035 A 
HETATM   30  C   UNL     1     -40.329  53.149 -52.106  1.00  0.00     0.012 A 
HETATM   31  C   UNL     1     -39.838  52.017 -51.456  1.00  0.00     0.043 A 
HETATM   32  C   UNL     1     -39.564  50.874 -52.192  1.00  0.00     0.116 A 
HETATM   33  F   UNL     1     -39.098  49.783 -51.569  1.00  0.00    -0.206 F 
HETATM   34  C   UNL     1     -39.767  50.842 -53.567  1.00  0.00     0.043 A 
HETATM   35  C   UNL     1     -40.254  51.975 -54.223  1.00  0.00     0.012 A 
ENDBRANCH   6  29
TORSDOF 6
ENDMDL
MODEL 7
REMARK VINA RESULT:      -8.8      1.639      2.030
REMARK  6 active torsions:
REMARK  status: ('A' for Active; 'I' for Inactive)
REMARK    1  A    between atoms: C_2  and  O_3 
REMARK    2  A    between atoms: C_2  and  C_4 
REMARK    3  A    between atoms: C_6  and  N_7 
REMARK       I    between atoms: N_7  and  C_8 
REMARK    4  A    between atoms: C_8  and  C_9 
REMARK    5  A    between atoms: C_14  and  C_15 
REMARK    6  A    between atoms: C_23  and  C_24 
ROOT
HETATM    1  C   UNL     1     -42.727  58.744 -53.279  1.00  0.00     0.148 C 
HETATM    2  N   UNL     1     -43.575  57.971 -54.001  1.00  0.00    -0.165 NA
HETATM    3  N   UNL     1     -42.771  57.008 -54.482  1.00  0.00    -0.240 N 
HETATM    4  C   UNL     1     -41.503  57.036 -53.979  1.00  0.00     0.123 C 
HETATM    5  N   UNL     1     -40.640  56.027 -54.217  1.00  0.00    -0.366 N 
HETATM    6  C   UNL     1     -41.083  54.718 -54.707  1.00  0.00     0.118 C 
HETATM    7  C   UNL     1     -42.620  54.620 -54.831  1.00  0.00     0.066 C 
HETATM    8  C   UNL     1     -43.257  55.927 -55.315  1.00  0.00     0.221 C 
HETATM    9  C   UNL     1     -41.409  58.204 -53.272  1.00  0.00     0.089 C 
HETATM   10  H   UNL     1     -39.694  56.048 -53.837  1.00  0.00     0.161 HD
ENDROOT
BRANCH   1  11
HETATM   11  C   UNL     1     -43.188  59.945 -52.559  1.00  0.00     0.276 C 
HETATM   12  N   UNL     1     -44.326  59.688 -51.819  1.00  0.00    -0.322 N 
HETATM   13  H   UNL     1     -44.642  58.723 -51.890  1.00  0.00     0.169 HD
HETATM   14  O   UNL     1     -42.569  61.002 -52.613  1.00  0.00    -0.266 OA
BRANCH  12  15
HETATM   15  C   UNL     1     -45.027  60.554 -50.964  1.00  0.00     0.035 A 
HETATM   16  C   UNL     1     -44.896  60.543 -49.574  1.00  0.00     0.039 A 
HETATM   17  C   UNL     1     -45.626  61.438 -48.772  1.00  0.00    -0.028 A 
HETATM   18  C   UNL     1     -46.512  62.333 -49.388  1.00  0.00     0.010 A 
HETATM   19  C   UNL     1     -46.647  62.351 -50.774  1.00  0.00     0.003 A 
HETATM   20  C   UNL     1     -45.901  61.471 -51.559  1.00  0.00     0.029 A 
BRANCH  17  21
HETATM   21  C   UNL     1     -45.453  61.418 -47.269  1.00  0.00     0.147 C 
HETATM   22  C   UNL     1     -45.241  62.808 -46.689  1.00  0.00     0.044 C 
BRANCH  21  23
HETATM   23  O   UNL     1     -44.341  60.596 -46.916  1.00  0.00    -0.391 OA
HETATM   24  H   UNL     1     -44.705  59.800 -46.493  1.00  0.00     0.210 HD
ENDBRANCH  21  23
ENDBRANCH  17  21
ENDBRANCH  12  15
ENDBRANCH   1  11
BRANCH   8  25
HETATM   25  C   UNL     1     -42.970  56.218 -56.771  1.00  0.00     0.409 C 
HETATM   26  F   UNL     1     -42.010  57.155 -56.927  1.00  0.00    -0.169 F 
HETATM   27  F   UNL     1     -42.607  55.131 -57.482  1.00  0.00    -0.169 F 
HETATM   28  F   UNL     1     -44.089  56.709 -57.365  1.00  0.00    -0.169 F 
ENDBRANCH   8  25
BRANCH   6  29
HETATM   29  C   UNL     1     -40.569  53.631 -53.774  1.00  0.00    -0.035 A 
HETATM   30  C   UNL     1     -40.541  53.828 -52.377  1.00  0.00     0.012 A 
HETATM   31  C   UNL     1     -40.100  52.819 -51.523  1.00  0.00     0.043 A 
HETATM   32  C   UNL     1     -39.694  51.604 -52.055  1.00  0.00     0.116 A 
HETATM   33  F   UNL     1     -39.275  50.630 -51.237  1.00  0.00    -0.206 F 
HETATM   34  C   UNL     1     -39.717  51.382 -53.428  1.00  0.00     0.043 A 
HETATM   35  C   UNL     1     -40.153  52.392 -54.288  1.00  0.00     0.012 A 
ENDBRANCH   6  29
TORSDOF 6
ENDMDL
MODEL 8
REMARK VINA RESULT:      -8.7      5.193      8.243
REMARK  6 active torsions:
REMARK  status: ('A' for Active; 'I' for Inactive)
REMARK    1  A    between atoms: C_2  and  O_3 
REMARK    2  A    between atoms: C_2  and  C_4 
REMARK    3  A    between atoms: C_6  and  N_7 
REMARK       I    between atoms: N_7  and  C_8 
REMARK    4  A    between atoms: C_8  and  C_9 
REMARK    5  A    between atoms: C_14  and  C_15 
REMARK    6  A    between atoms: C_23  and  C_24 
ROOT
HETATM    1  C   UNL     1     -42.597  57.288 -57.731  1.00  0.00     0.148 C 
HETATM    2  N   UNL     1     -42.635  58.007 -56.582  1.00  0.00    -0.165 NA
HETATM    3  N   UNL     1     -42.966  57.087 -55.660  1.00  0.00    -0.240 N 
HETATM    4  C   UNL     1     -42.982  55.806 -56.131  1.00  0.00     0.123 C 
HETATM    5  N   UNL     1     -43.108  54.760 -55.288  1.00  0.00    -0.366 N 
HETATM    6  C   UNL     1     -42.886  54.886 -53.845  1.00  0.00     0.118 C 
HETATM    7  C   UNL     1     -42.424  56.304 -53.438  1.00  0.00     0.066 C 
HETATM    8  C   UNL     1     -43.110  57.405 -54.254  1.00  0.00     0.221 C 
HETATM    9  C   UNL     1     -42.844  55.907 -57.488  1.00  0.00     0.089 C 
HETATM   10  H   UNL     1     -43.116  53.803 -55.641  1.00  0.00     0.161 HD
ENDROOT
BRANCH   1  11
HETATM   11  C   UNL     1     -42.267  57.907 -59.028  1.00  0.00     0.276 C 
HETATM   12  N   UNL     1     -42.519  59.266 -59.020  1.00  0.00    -0.322 N 
HETATM   13  H   UNL     1     -42.874  59.604 -58.129  1.00  0.00     0.169 HD
HETATM   14  O   UNL     1     -41.790  57.252 -59.947  1.00  0.00    -0.266 OA
BRANCH  12  15
HETATM   15  C   UNL     1     -42.284  60.203 -60.038  1.00  0.00     0.035 A 
HETATM   16  C   UNL     1     -41.325  61.216 -59.953  1.00  0.00     0.039 A 
HETATM   17  C   UNL     1     -41.137  62.124 -61.010  1.00  0.00    -0.028 A 
HETATM   18  C   UNL     1     -41.947  62.016 -62.149  1.00  0.00     0.010 A 
HETATM   19  C   UNL     1     -42.904  61.008 -62.243  1.00  0.00     0.003 A 
HETATM   20  C   UNL     1     -43.065  60.101 -61.194  1.00  0.00     0.029 A 
BRANCH  17  21
HETATM   21  C   UNL     1     -40.080  63.201 -60.901  1.00  0.00     0.147 C 
HETATM   22  C   UNL     1     -39.149  63.225 -62.103  1.00  0.00     0.044 C 
BRANCH  21  23
HETATM   23  O   UNL     1     -39.303  63.004 -59.719  1.00  0.00    -0.391 OA
HETATM   24  H   UNL     1     -39.891  63.187 -58.966  1.00  0.00     0.210 HD
ENDBRANCH  21  23
ENDBRANCH  17  21
ENDBRANCH  12  15
ENDBRANCH   1  11
BRANCH   8  25
HETATM   25  C   UNL     1     -44.571  57.575 -53.902  1.00  0.00     0.409 C 
HETATM   26  F   UNL     1     -44.988  58.852 -54.048  1.00  0.00    -0.169 F 
HETATM   27  F   UNL     1     -45.399  56.785 -54.614  1.00  0.00    -0.169 F 
HETATM   28  F   UNL     1     -44.762  57.254 -52.595  1.00  0.00    -0.169 F 
ENDBRANCH   8  25
BRANCH   6  29
HETATM   29  C   UNL     1     -41.853  53.859 -53.402  1.00  0.00    -0.035 A 
HETATM   30  C   UNL     1     -41.354  52.898 -54.304  1.00  0.00     0.012 A 
HETATM   31  C   UNL     1     -40.384  51.979 -53.905  1.00  0.00     0.043 A 
HETATM   32  C   UNL     1     -39.902  52.020 -52.604  1.00  0.00     0.116 A 
HETATM   33  F   UNL     1     -38.966  51.142 -52.218  1.00  0.00    -0.206 F 
HETATM   34  C   UNL     1     -40.374  52.961 -51.695  1.00  0.00     0.043 A 
HETATM   35  C   UNL     1     -41.349  53.880 -52.091  1.00  0.00     0.012 A 
ENDBRANCH   6  29
TORSDOF 6
ENDMDL
MODEL 9
REMARK VINA RESULT:      -8.7      4.316      7.380
REMARK  6 active torsions:
REMARK  status: ('A' for Active; 'I' for Inactive)
REMARK    1  A    between atoms: C_2  and  O_3 
REMARK    2  A    between atoms: C_2  and  C_4 
REMARK    3  A    between atoms: C_6  and  N_7 
REMARK       I    between atoms: N_7  and  C_8 
REMARK    4  A    between atoms: C_8  and  C_9 
REMARK    5  A    between atoms: C_14  and  C_15 
REMARK    6  A    between atoms: C_23  and  C_24 
ROOT
HETATM    1  C   UNL     1     -43.855  57.174 -54.659  1.00  0.00     0.148 C 
HETATM    2  N   UNL     1     -42.820  57.674 -53.938  1.00  0.00    -0.165 NA
HETATM    3  N   UNL     1     -42.511  56.661 -53.111  1.00  0.00    -0.240 N 
HETATM    4  C   UNL     1     -43.181  55.501 -53.374  1.00  0.00     0.123 C 
HETATM    5  N   UNL     1     -42.841  54.351 -52.756  1.00  0.00    -0.366 N 
HETATM    6  C   UNL     1     -41.562  54.183 -52.061  1.00  0.00     0.118 C 
HETATM    7  C   UNL     1     -40.648  55.423 -52.193  1.00  0.00     0.066 C 
HETATM    8  C   UNL     1     -41.431  56.740 -52.148  1.00  0.00     0.221 C 
HETATM    9  C   UNL     1     -44.129  55.822 -54.305  1.00  0.00     0.089 C 
HETATM   10  H   UNL     1     -43.340  53.484 -52.956  1.00  0.00     0.161 HD
ENDROOT
BRANCH   1  11
HETATM   11  C   UNL     1     -44.525  57.961 -55.710  1.00  0.00     0.276 C 
HETATM   12  N   UNL     1     -44.017  57.673 -56.962  1.00  0.00    -0.322 N 
HETATM   13  H   UNL     1     -43.283  56.968 -56.946  1.00  0.00     0.169 HD
HETATM   14  O   UNL     1     -45.445  58.728 -55.448  1.00  0.00    -0.266 OA
BRANCH  12  15
HETATM   15  C   UNL     1     -44.429  58.172 -58.208  1.00  0.00     0.035 A 
HETATM   16  C   UNL     1     -45.611  57.786 -58.845  1.00  0.00     0.039 A 
HETATM   17  C   UNL     1     -45.970  58.325 -60.093  1.00  0.00    -0.028 A 
HETATM   18  C   UNL     1     -45.106  59.243 -60.708  1.00  0.00     0.010 A 
HETATM   19  C   UNL     1     -43.926  59.634 -60.080  1.00  0.00     0.003 A 
HETATM   20  C   UNL     1     -43.595  59.106 -58.831  1.00  0.00     0.029 A 
BRANCH  17  21
HETATM   21  C   UNL     1     -47.264  57.904 -60.754  1.00  0.00     0.147 C 
HETATM   22  C   UNL     1     -47.310  56.411 -61.042  1.00  0.00     0.044 C 
BRANCH  21  23
HETATM   23  O   UNL     1     -47.440  58.615 -61.979  1.00  0.00    -0.391 OA
HETATM   24  H   UNL     1     -46.933  58.136 -62.656  1.00  0.00     0.210 HD
ENDBRANCH  21  23
ENDBRANCH  17  21
ENDBRANCH  12  15
ENDBRANCH   1  11
BRANCH   8  25
HETATM   25  C   UNL     1     -41.977  57.054 -50.773  1.00  0.00     0.409 C 
HETATM   26  F   UNL     1     -43.278  56.712 -50.647  1.00  0.00    -0.169 F 
HETATM   27  F   UNL     1     -41.295  56.466 -49.769  1.00  0.00    -0.169 F 
HETATM   28  F   UNL     1     -41.907  58.394 -50.553  1.00  0.00    -0.169 F 
ENDBRANCH   8  25
BRANCH   6  29
HETATM   29  C   UNL     1     -40.847  52.955 -52.608  1.00  0.00    -0.035 A 
HETATM   30  C   UNL     1     -40.077  52.129 -51.764  1.00  0.00     0.012 A 
HETATM   31  C   UNL     1     -39.450  50.988 -52.261  1.00  0.00     0.043 A 
HETATM   32  C   UNL     1     -39.595  50.660 -53.601  1.00  0.00     0.116 A 
HETATM   33  F   UNL     1     -38.999  49.560 -54.081  1.00  0.00    -0.206 F 
HETATM   34  C   UNL     1     -40.353  51.455 -54.454  1.00  0.00     0.043 A 
HETATM   35  C   UNL     1     -40.979  52.601 -53.961  1.00  0.00     0.012 A 
ENDBRANCH   6  29
TORSDOF 6
ENDMDL
MODEL 10
REMARK VINA RESULT:      -8.5      5.919      9.141
REMARK  6 active torsions:
REMARK  status: ('A' for Active; 'I' for Inactive)
REMARK    1  A    between atoms: C_2  and  O_3 
REMARK    2  A    between atoms: C_2  and  C_4 
REMARK    3  A    between atoms: C_6  and  N_7 
REMARK       I    between atoms: N_7  and  C_8 
REMARK    4  A    between atoms: C_8  and  C_9 
REMARK    5  A    between atoms: C_14  and  C_15 
REMARK    6  A    between atoms: C_23  and  C_24 
ROOT
HETATM    1  C   UNL     1     -43.026  55.744 -56.062  1.00  0.00     0.148 C 
HETATM    2  N   UNL     1     -43.109  57.088 -55.903  1.00  0.00    -0.165 NA
HETATM    3  N   UNL     1     -43.302  57.530 -57.157  1.00  0.00    -0.240 N 
HETATM    4  C   UNL     1     -43.505  56.539 -58.073  1.00  0.00     0.123 C 
HETATM    5  N   UNL     1     -43.900  56.829 -59.329  1.00  0.00    -0.366 N 
HETATM    6  C   UNL     1     -44.463  58.132 -59.693  1.00  0.00     0.118 C 
HETATM    7  C   UNL     1     -44.618  59.072 -58.475  1.00  0.00     0.066 C 
HETATM    8  C   UNL     1     -43.465  58.934 -57.474  1.00  0.00     0.221 C 
HETATM    9  C   UNL     1     -43.237  55.368 -57.419  1.00  0.00     0.089 C 
HETATM   10  H   UNL     1     -44.055  56.086 -60.012  1.00  0.00     0.161 HD
ENDROOT
BRANCH   1  11
HETATM   11  C   UNL     1     -42.811  54.835 -54.921  1.00  0.00     0.276 C 
HETATM   12  N   UNL     1     -41.469  54.574 -54.726  1.00  0.00    -0.322 N 
HETATM   13  H   UNL     1     -40.865  55.056 -55.389  1.00  0.00     0.169 HD
HETATM   14  O   UNL     1     -43.746  54.430 -54.240  1.00  0.00    -0.266 OA
BRANCH  12  15
HETATM   15  C   UNL     1     -40.865  53.806 -53.717  1.00  0.00     0.035 A 
HETATM   16  C   UNL     1     -40.664  54.262 -52.413  1.00  0.00     0.039 A 
HETATM   17  C   UNL     1     -40.055  53.443 -51.446  1.00  0.00    -0.028 A 
HETATM   18  C   UNL     1     -39.626  52.161 -51.817  1.00  0.00     0.010 A 
HETATM   19  C   UNL     1     -39.824  51.698 -53.116  1.00  0.00     0.003 A 
HETATM   20  C   UNL     1     -40.449  52.515 -54.059  1.00  0.00     0.029 A 
BRANCH  17  21
HETATM   21  C   UNL     1     -39.864  53.954 -50.034  1.00  0.00     0.147 C 
HETATM   22  C   UNL     1     -40.625  53.127 -49.009  1.00  0.00     0.044 C 
BRANCH  21  23
HETATM   23  O   UNL     1     -40.295  55.312 -49.945  1.00  0.00    -0.391 OA
HETATM   24  H   UNL     1     -39.583  55.856 -50.321  1.00  0.00     0.210 HD
ENDBRANCH  21  23
ENDBRANCH  17  21
ENDBRANCH  12  15
ENDBRANCH   1  11
BRANCH   8  25
HETATM   25  C   UNL     1     -42.165  59.509 -57.991  1.00  0.00     0.409 C 
HETATM   26  F   UNL     1     -41.335  58.555 -58.465  1.00  0.00    -0.169 F 
HETATM   27  F   UNL     1     -42.325  60.435 -58.958  1.00  0.00    -0.169 F 
HETATM   28  F   UNL     1     -41.506  60.124 -56.974  1.00  0.00    -0.169 F 
ENDBRANCH   8  25
BRANCH   6  29
HETATM   29  C   UNL     1     -45.815  57.929 -60.363  1.00  0.00    -0.035 A 
HETATM   30  C   UNL     1     -46.573  59.030 -60.814  1.00  0.00     0.012 A 
HETATM   31  C   UNL     1     -47.796  58.839 -61.456  1.00  0.00     0.043 A 
HETATM   32  C   UNL     1     -48.266  57.549 -61.657  1.00  0.00     0.116 A 
HETATM   33  F   UNL     1     -49.438  57.362 -62.279  1.00  0.00    -0.206 F 
HETATM   34  C   UNL     1     -47.536  56.446 -61.226  1.00  0.00     0.043 A 
HETATM   35  C   UNL     1     -46.312  56.634 -60.579  1.00  0.00     0.012 A 
ENDBRANCH   6  29
TORSDOF 6
ENDMDL
