MODEL 1
REMARK VINA RESULT:      -8.2      0.000      0.000
REMARK  3 active torsions:
REMARK  status: ('A' for Active; 'I' for Inactive)
REMARK    1  A    between atoms: C_5  and  N_6 
REMARK       I    between atoms: N_6  and  C_7 
REMARK    2  A    between atoms: C_7  and  C_8 
REMARK    3  A    between atoms: C_9  and  C_10 
ROOT
HETATM    1  C   UNL     1     -42.220  56.241 -55.676  1.00  0.00     0.062 A 
HETATM    2  C   UNL     1     -41.852  57.520 -54.923  1.00  0.00     0.199 A 
HETATM    3  N   UNL     1     -42.083  58.706 -55.744  1.00  0.00    -0.092 N 
HETATM    4  C   UNL     1     -42.539  58.684 -57.030  1.00  0.00     0.735 A 
HETATM    5  N   UNL     1     -42.858  57.502 -57.593  1.00  0.00    -0.191 N 
HETATM    6  N   UNL     1     -41.693  59.947 -55.413  1.00  0.00     0.012 NA
HETATM    7  N   UNL     1     -42.009  60.687 -56.471  1.00  0.00     0.033 NA
HETATM    8  N   UNL     1     -42.533  59.911 -57.488  1.00  0.00     0.030 NA
HETATM    9  C   UNL     1     -42.705  56.282 -56.943  1.00  0.00     0.037 A 
HETATM   10  C   UNL     1     -43.088  55.063 -57.750  1.00  0.00     0.070 C 
HETATM   11  H   UNL     1     -43.206  57.487 -58.549  1.00  0.00     0.184 HD
ENDROOT
BRANCH   1  12
HETATM   12  C   UNL     1     -42.152  54.947 -54.935  1.00  0.00     0.256 C 
HETATM   13  N   UNL     1     -40.877  54.576 -54.570  1.00  0.00    -0.323 N 
HETATM   14  H   UNL     1     -40.102  55.166 -54.837  1.00  0.00     0.169 HD
HETATM   15  O   UNL     1     -43.193  54.351 -54.687  1.00  0.00    -0.267 OA
BRANCH  13  16
HETATM   16  C   UNL     1     -40.509  53.432 -53.825  1.00  0.00     0.035 A 
HETATM   17  C   UNL     1     -40.193  52.197 -54.391  1.00  0.00     0.030 A 
HETATM   18  C   UNL     1     -39.836  51.113 -53.581  1.00  0.00     0.009 A 
HETATM   19  C   UNL     1     -39.787  51.246 -52.190  1.00  0.00    -0.062 A 
HETATM   20  C   UNL     1     -39.448  50.068 -51.328  1.00  0.00     0.048 C 
HETATM   21  C   UNL     1     -40.119  52.478 -51.620  1.00  0.00     0.009 A 
HETATM   22  C   UNL     1     -40.465  53.564 -52.431  1.00  0.00     0.030 A 
ENDBRANCH  13  16
ENDBRANCH   1  12
BRANCH   2  23
HETATM   23  C   UNL     1     -42.530  57.678 -53.576  1.00  0.00    -0.011 A 
HETATM   24  C   UNL     1     -43.916  57.829 -53.510  1.00  0.00     0.125 A 
HETATM   25  N   UNL     1     -44.611  57.998 -52.366  1.00  0.00    -0.272 NA
HETATM   26  C   UNL     1     -43.902  57.995 -51.218  1.00  0.00     0.116 A 
HETATM   27  C   UNL     1     -42.530  57.827 -51.164  1.00  0.00     0.020 A 
HETATM   28  C   UNL     1     -41.836  57.661 -52.361  1.00  0.00     0.012 A 
ENDBRANCH   2  23
TORSDOF 3
ENDMDL
MODEL 2
REMARK VINA RESULT:      -8.1      1.595      4.306
REMARK  3 active torsions:
REMARK  status: ('A' for Active; 'I' for Inactive)
REMARK    1  A    between atoms: C_5  and  N_6 
REMARK       I    between atoms: N_6  and  C_7 
REMARK    2  A    between atoms: C_7  and  C_8 
REMARK    3  A    between atoms: C_9  and  C_10 
ROOT
HETATM    1  C   UNL     1     -42.388  57.301 -52.513  1.00  0.00     0.062 A 
HETATM    2  C   UNL     1     -43.504  57.788 -53.437  1.00  0.00     0.199 A 
HETATM    3  N   UNL     1     -44.211  58.929 -52.862  1.00  0.00    -0.092 N 
HETATM    4  C   UNL     1     -43.938  59.478 -51.642  1.00  0.00     0.735 A 
HETATM    5  N   UNL     1     -42.915  58.987 -50.916  1.00  0.00    -0.191 N 
HETATM    6  N   UNL     1     -45.340  59.456 -53.363  1.00  0.00     0.012 NA
HETATM    7  N   UNL     1     -45.687  60.393 -52.486  1.00  0.00     0.033 NA
HETATM    8  N   UNL     1     -44.824  60.413 -51.406  1.00  0.00     0.030 NA
HETATM    9  C   UNL     1     -42.137  57.910 -51.326  1.00  0.00     0.037 A 
HETATM   10  C   UNL     1     -41.054  57.485 -50.361  1.00  0.00     0.070 C 
HETATM   11  H   UNL     1     -42.706  59.403 -50.011  1.00  0.00     0.184 HD
ENDROOT
BRANCH   1  12
HETATM   12  C   UNL     1     -41.493  56.213 -53.007  1.00  0.00     0.256 C 
HETATM   13  N   UNL     1     -41.848  54.955 -52.574  1.00  0.00    -0.323 N 
HETATM   14  H   UNL     1     -42.643  54.857 -51.958  1.00  0.00     0.169 HD
HETATM   15  O   UNL     1     -40.567  56.501 -53.756  1.00  0.00    -0.267 OA
BRANCH  13  16
HETATM   16  C   UNL     1     -41.220  53.734 -52.914  1.00  0.00     0.035 A 
HETATM   17  C   UNL     1     -40.306  53.070 -52.096  1.00  0.00     0.030 A 
HETATM   18  C   UNL     1     -39.730  51.862 -52.507  1.00  0.00     0.009 A 
HETATM   19  C   UNL     1     -40.061  51.297 -53.742  1.00  0.00    -0.062 A 
HETATM   20  C   UNL     1     -39.404  50.027 -54.193  1.00  0.00     0.048 C 
HETATM   21  C   UNL     1     -40.963  51.969 -54.570  1.00  0.00     0.009 A 
HETATM   22  C   UNL     1     -41.547  53.170 -54.153  1.00  0.00     0.030 A 
ENDBRANCH  13  16
ENDBRANCH   1  12
BRANCH   2  23
HETATM   23  C   UNL     1     -43.060  58.109 -54.851  1.00  0.00    -0.011 A 
HETATM   24  C   UNL     1     -42.274  59.236 -55.092  1.00  0.00     0.125 A 
HETATM   25  N   UNL     1     -41.846  59.620 -56.313  1.00  0.00    -0.272 NA
HETATM   26  C   UNL     1     -42.194  58.835 -57.354  1.00  0.00     0.116 A 
HETATM   27  C   UNL     1     -42.947  57.682 -57.227  1.00  0.00     0.020 A 
HETATM   28  C   UNL     1     -43.382  57.312 -55.956  1.00  0.00     0.012 A 
ENDBRANCH   2  23
TORSDOF 3
ENDMDL
MODEL 3
REMARK VINA RESULT:      -7.9      2.553      6.328
REMARK  3 active torsions:
REMARK  status: ('A' for Active; 'I' for Inactive)
REMARK    1  A    between atoms: C_5  and  N_6 
REMARK       I    between atoms: N_6  and  C_7 
REMARK    2  A    between atoms: C_7  and  C_8 
REMARK    3  A    between atoms: C_9  and  C_10 
ROOT
HETATM    1  C   UNL     1     -42.201  54.304 -52.891  1.00  0.00     0.062 A 
HETATM    2  C   UNL     1     -42.543  54.939 -51.544  1.00  0.00     0.199 A 
HETATM    3  N   UNL     1     -41.707  54.400 -50.474  1.00  0.00    -0.092 N 
HETATM    4  C   UNL     1     -40.761  53.430 -50.641  1.00  0.00     0.735 A 
HETATM    5  N   UNL     1     -40.520  52.954 -51.878  1.00  0.00    -0.191 N 
HETATM    6  N   UNL     1     -41.895  54.641 -49.167  1.00  0.00     0.012 NA
HETATM    7  N   UNL     1     -40.989  53.886 -48.556  1.00  0.00     0.033 NA
HETATM    8  N   UNL     1     -40.278  53.122 -49.463  1.00  0.00     0.030 NA
HETATM    9  C   UNL     1     -41.223  53.369 -53.005  1.00  0.00     0.037 A 
HETATM   10  C   UNL     1     -40.830  52.697 -54.300  1.00  0.00     0.070 C 
HETATM   11  H   UNL     1     -39.809  52.238 -52.003  1.00  0.00     0.184 HD
ENDROOT
BRANCH   1  12
HETATM   12  C   UNL     1     -42.886  54.830 -54.109  1.00  0.00     0.256 C 
HETATM   13  N   UNL     1     -42.084  55.617 -54.907  1.00  0.00    -0.323 N 
HETATM   14  H   UNL     1     -41.133  55.797 -54.616  1.00  0.00     0.169 HD
HETATM   15  O   UNL     1     -44.049  54.512 -54.320  1.00  0.00    -0.267 OA
BRANCH  13  16
HETATM   16  C   UNL     1     -42.439  56.211 -56.139  1.00  0.00     0.035 A 
HETATM   17  C   UNL     1     -42.426  57.585 -56.378  1.00  0.00     0.030 A 
HETATM   18  C   UNL     1     -42.791  58.094 -57.630  1.00  0.00     0.009 A 
HETATM   19  C   UNL     1     -43.173  57.236 -58.666  1.00  0.00    -0.062 A 
HETATM   20  C   UNL     1     -43.607  57.792 -59.989  1.00  0.00     0.048 C 
HETATM   21  C   UNL     1     -43.203  55.860 -58.424  1.00  0.00     0.009 A 
HETATM   22  C   UNL     1     -42.827  55.352 -57.176  1.00  0.00     0.030 A 
ENDBRANCH  13  16
ENDBRANCH   1  12
BRANCH   2  23
HETATM   23  C   UNL     1     -42.496  56.454 -51.528  1.00  0.00    -0.011 A 
HETATM   24  C   UNL     1     -43.670  57.183 -51.340  1.00  0.00     0.125 A 
HETATM   25  N   UNL     1     -43.738  58.531 -51.331  1.00  0.00    -0.272 NA
HETATM   26  C   UNL     1     -42.578  59.200 -51.495  1.00  0.00     0.116 A 
HETATM   27  C   UNL     1     -41.353  58.579 -51.663  1.00  0.00     0.020 A 
HETATM   28  C   UNL     1     -41.311  57.187 -51.675  1.00  0.00     0.012 A 
ENDBRANCH   2  23
TORSDOF 3
ENDMDL
MODEL 4
REMARK VINA RESULT:      -7.8      2.725      4.736
REMARK  3 active torsions:
REMARK  status: ('A' for Active; 'I' for Inactive)
REMARK    1  A    between atoms: C_5  and  N_6 
REMARK       I    between atoms: N_6  and  C_7 
REMARK    2  A    between atoms: C_7  and  C_8 
REMARK    3  A    between atoms: C_9  and  C_10 
ROOT
HETATM    1  C   UNL     1     -41.910  58.385 -51.657  1.00  0.00     0.062 A 
HETATM    2  C   UNL     1     -43.424  58.580 -51.730  1.00  0.00     0.199 A 
HETATM    3  N   UNL     1     -43.843  59.765 -50.986  1.00  0.00    -0.092 N 
HETATM    4  C   UNL     1     -43.003  60.582 -50.287  1.00  0.00     0.735 A 
HETATM    5  N   UNL     1     -41.679  60.334 -50.308  1.00  0.00    -0.191 N 
HETATM    6  N   UNL     1     -45.121  60.090 -50.731  1.00  0.00     0.012 NA
HETATM    7  N   UNL     1     -45.042  61.166 -49.956  1.00  0.00     0.033 NA
HETATM    8  N   UNL     1     -43.727  61.480 -49.667  1.00  0.00     0.030 NA
HETATM    9  C   UNL     1     -41.116  59.251 -50.976  1.00  0.00     0.037 A 
HETATM   10  C   UNL     1     -39.615  59.123 -50.859  1.00  0.00     0.070 C 
HETATM   11  H   UNL     1     -41.052  60.948 -49.794  1.00  0.00     0.184 HD
ENDROOT
BRANCH   1  12
HETATM   12  C   UNL     1     -41.304  57.283 -52.463  1.00  0.00     0.256 C 
HETATM   13  N   UNL     1     -41.577  56.021 -51.981  1.00  0.00    -0.323 N 
HETATM   14  H   UNL     1     -42.126  55.930 -51.138  1.00  0.00     0.169 HD
HETATM   15  O   UNL     1     -40.665  57.566 -53.469  1.00  0.00    -0.267 OA
BRANCH  13  16
HETATM   16  C   UNL     1     -41.182  54.792 -52.556  1.00  0.00     0.035 A 
HETATM   17  C   UNL     1     -41.401  54.445 -53.889  1.00  0.00     0.030 A 
HETATM   18  C   UNL     1     -40.975  53.206 -54.381  1.00  0.00     0.009 A 
HETATM   19  C   UNL     1     -40.322  52.292 -53.549  1.00  0.00    -0.062 A 
HETATM   20  C   UNL     1     -39.911  50.949 -54.073  1.00  0.00     0.048 C 
HETATM   21  C   UNL     1     -40.117  52.631 -52.209  1.00  0.00     0.009 A 
HETATM   22  C   UNL     1     -40.532  53.874 -51.721  1.00  0.00     0.030 A 
ENDBRANCH  13  16
ENDBRANCH   1  12
BRANCH   2  23
HETATM   23  C   UNL     1     -43.990  58.620 -53.136  1.00  0.00    -0.011 A 
HETATM   24  C   UNL     1     -44.726  57.537 -53.618  1.00  0.00     0.125 A 
HETATM   25  N   UNL     1     -45.253  57.466 -54.859  1.00  0.00    -0.272 NA
HETATM   26  C   UNL     1     -45.062  58.532 -55.663  1.00  0.00     0.116 A 
HETATM   27  C   UNL     1     -44.372  59.668 -55.280  1.00  0.00     0.020 A 
HETATM   28  C   UNL     1     -43.833  59.714 -53.996  1.00  0.00     0.012 A 
ENDBRANCH   2  23
TORSDOF 3
ENDMDL
MODEL 5
REMARK VINA RESULT:      -7.8      1.561      2.142
REMARK  3 active torsions:
REMARK  status: ('A' for Active; 'I' for Inactive)
REMARK    1  A    between atoms: C_5  and  N_6 
REMARK       I    between atoms: N_6  and  C_7 
REMARK    2  A    between atoms: C_7  and  C_8 
REMARK    3  A    between atoms: C_9  and  C_10 
ROOT
HETATM    1  C   UNL     1     -42.370  57.082 -56.677  1.00  0.00     0.062 A 
HETATM    2  C   UNL     1     -41.863  58.467 -56.277  1.00  0.00     0.199 A 
HETATM    3  N   UNL     1     -42.040  59.431 -57.360  1.00  0.00    -0.092 N 
HETATM    4  C   UNL     1     -42.562  59.135 -58.586  1.00  0.00     0.735 A 
HETATM    5  N   UNL     1     -43.003  57.886 -58.827  1.00  0.00    -0.191 N 
HETATM    6  N   UNL     1     -41.535  60.675 -57.361  1.00  0.00     0.012 NA
HETATM    7  N   UNL     1     -41.845  61.158 -58.559  1.00  0.00     0.033 NA
HETATM    8  N   UNL     1     -42.481  60.207 -59.334  1.00  0.00     0.030 NA
HETATM    9  C   UNL     1     -42.915  56.853 -57.899  1.00  0.00     0.037 A 
HETATM   10  C   UNL     1     -43.436  55.514 -58.365  1.00  0.00     0.070 C 
HETATM   11  H   UNL     1     -43.400  57.669 -59.738  1.00  0.00     0.184 HD
ENDROOT
BRANCH   1  12
HETATM   12  C   UNL     1     -42.368  56.008 -55.639  1.00  0.00     0.256 C 
HETATM   13  N   UNL     1     -41.115  55.517 -55.342  1.00  0.00    -0.323 N 
HETATM   14  H   UNL     1     -40.317  55.885 -55.841  1.00  0.00     0.169 HD
HETATM   15  O   UNL     1     -43.430  55.678 -55.126  1.00  0.00    -0.267 OA
BRANCH  13  16
HETATM   16  C   UNL     1     -40.798  54.537 -54.375  1.00  0.00     0.035 A 
HETATM   17  C   UNL     1     -40.888  54.739 -52.997  1.00  0.00     0.030 A 
HETATM   18  C   UNL     1     -40.556  53.713 -52.105  1.00  0.00     0.009 A 
HETATM   19  C   UNL     1     -40.130  52.467 -52.574  1.00  0.00    -0.062 A 
HETATM   20  C   UNL     1     -39.732  51.390 -51.610  1.00  0.00     0.048 C 
HETATM   21  C   UNL     1     -40.023  52.268 -53.953  1.00  0.00     0.009 A 
HETATM   22  C   UNL     1     -40.366  53.290 -54.845  1.00  0.00     0.030 A 
ENDBRANCH  13  16
ENDBRANCH   1  12
BRANCH   2  23
HETATM   23  C   UNL     1     -42.455  59.012 -54.992  1.00  0.00    -0.011 A 
HETATM   24  C   UNL     1     -41.618  59.333 -53.924  1.00  0.00     0.125 A 
HETATM   25  N   UNL     1     -42.047  59.803 -52.733  1.00  0.00    -0.272 NA
HETATM   26  C   UNL     1     -43.376  59.988 -52.596  1.00  0.00     0.116 A 
HETATM   27  C   UNL     1     -44.294  59.728 -53.598  1.00  0.00     0.020 A 
HETATM   28  C   UNL     1     -43.825  59.238 -54.815  1.00  0.00     0.012 A 
ENDBRANCH   2  23
TORSDOF 3
ENDMDL
MODEL 6
REMARK VINA RESULT:      -7.6     15.987     19.365
REMARK  3 active torsions:
REMARK  status: ('A' for Active; 'I' for Inactive)
REMARK    1  A    between atoms: C_5  and  N_6 
REMARK       I    between atoms: N_6  and  C_7 
REMARK    2  A    between atoms: C_7  and  C_8 
REMARK    3  A    between atoms: C_9  and  C_10 
ROOT
HETATM    1  C   UNL     1     -34.423  39.630 -51.952  1.00  0.00     0.062 A 
HETATM    2  C   UNL     1     -32.910  39.844 -51.910  1.00  0.00     0.199 A 
HETATM    3  N   UNL     1     -32.380  39.635 -50.565  1.00  0.00    -0.092 N 
HETATM    4  C   UNL     1     -33.135  39.319 -49.473  1.00  0.00     0.735 A 
HETATM    5  N   UNL     1     -34.460  39.127 -49.624  1.00  0.00    -0.191 N 
HETATM    6  N   UNL     1     -31.122  39.918 -50.191  1.00  0.00     0.012 NA
HETATM    7  N   UNL     1     -31.101  39.673 -48.885  1.00  0.00     0.033 NA
HETATM    8  N   UNL     1     -32.350  39.304 -48.424  1.00  0.00     0.030 NA
HETATM    9  C   UNL     1     -35.119  39.279 -50.839  1.00  0.00     0.037 A 
HETATM   10  C   UNL     1     -36.612  39.052 -50.802  1.00  0.00     0.070 C 
HETATM   11  H   UNL     1     -35.020  38.883 -48.811  1.00  0.00     0.184 HD
ENDROOT
BRANCH   1  12
HETATM   12  C   UNL     1     -35.104  39.691 -53.279  1.00  0.00     0.256 C 
HETATM   13  N   UNL     1     -35.151  40.955 -53.827  1.00  0.00    -0.323 N 
HETATM   14  H   UNL     1     -34.758  41.726 -53.307  1.00  0.00     0.169 HD
HETATM   15  O   UNL     1     -35.525  38.655 -53.778  1.00  0.00    -0.267 OA
BRANCH  13  16
HETATM   16  C   UNL     1     -35.687  41.312 -55.085  1.00  0.00     0.035 A 
HETATM   17  C   UNL     1     -37.003  41.725 -55.286  1.00  0.00     0.030 A 
HETATM   18  C   UNL     1     -37.456  42.064 -56.567  1.00  0.00     0.009 A 
HETATM   19  C   UNL     1     -36.597  41.997 -57.669  1.00  0.00    -0.062 A 
HETATM   20  C   UNL     1     -37.103  42.317 -59.043  1.00  0.00     0.048 C 
HETATM   21  C   UNL     1     -35.283  41.567 -57.472  1.00  0.00     0.009 A 
HETATM   22  C   UNL     1     -34.829  41.239 -56.190  1.00  0.00     0.030 A 
ENDBRANCH  13  16
ENDBRANCH   1  12
BRANCH   2  23
HETATM   23  C   UNL     1     -32.127  39.020 -52.913  1.00  0.00    -0.011 A 
HETATM   24  C   UNL     1     -31.841  37.682 -52.640  1.00  0.00     0.125 A 
HETATM   25  N   UNL     1     -31.135  36.871 -53.456  1.00  0.00    -0.272 NA
HETATM   26  C   UNL     1     -30.703  37.404 -54.618  1.00  0.00     0.116 A 
HETATM   27  C   UNL     1     -30.951  38.709 -55.002  1.00  0.00     0.020 A 
HETATM   28  C   UNL     1     -31.678  39.527 -54.139  1.00  0.00     0.012 A 
ENDBRANCH   2  23
TORSDOF 3
ENDMDL
MODEL 7
REMARK VINA RESULT:      -7.4      2.090      2.926
REMARK  3 active torsions:
REMARK  status: ('A' for Active; 'I' for Inactive)
REMARK    1  A    between atoms: C_5  and  N_6 
REMARK       I    between atoms: N_6  and  C_7 
REMARK    2  A    between atoms: C_7  and  C_8 
REMARK    3  A    between atoms: C_9  and  C_10 
ROOT
HETATM    1  C   UNL     1     -42.351  56.993 -55.025  1.00  0.00     0.062 A 
HETATM    2  C   UNL     1     -42.079  58.496 -55.067  1.00  0.00     0.199 A 
HETATM    3  N   UNL     1     -42.071  58.997 -56.439  1.00  0.00    -0.092 N 
HETATM    4  C   UNL     1     -42.252  58.224 -57.549  1.00  0.00     0.735 A 
HETATM    5  N   UNL     1     -42.511  56.911 -57.400  1.00  0.00    -0.191 N 
HETATM    6  N   UNL     1     -41.691  60.234 -56.795  1.00  0.00     0.012 NA
HETATM    7  N   UNL     1     -41.742  60.228 -58.123  1.00  0.00     0.033 NA
HETATM    8  N   UNL     1     -42.085  58.980 -58.606  1.00  0.00     0.030 NA
HETATM    9  C   UNL     1     -42.562  56.280 -56.161  1.00  0.00     0.037 A 
HETATM   10  C   UNL     1     -42.835  54.794 -56.198  1.00  0.00     0.070 C 
HETATM   11  H   UNL     1     -42.655  56.337 -58.227  1.00  0.00     0.184 HD
ENDROOT
BRANCH   1  12
HETATM   12  C   UNL     1     -42.508  56.345 -53.689  1.00  0.00     0.256 C 
HETATM   13  N   UNL     1     -41.318  56.111 -53.036  1.00  0.00    -0.323 N 
HETATM   14  H   UNL     1     -40.453  56.360 -53.495  1.00  0.00     0.169 HD
HETATM   15  O   UNL     1     -43.636  56.110 -53.272  1.00  0.00    -0.267 OA
BRANCH  13  16
HETATM   16  C   UNL     1     -41.154  55.557 -51.746  1.00  0.00     0.035 A 
HETATM   17  C   UNL     1     -41.433  56.239 -50.561  1.00  0.00     0.030 A 
HETATM   18  C   UNL     1     -41.246  55.617 -49.321  1.00  0.00     0.009 A 
HETATM   19  C   UNL     1     -40.778  54.301 -49.245  1.00  0.00    -0.062 A 
HETATM   20  C   UNL     1     -40.536  53.660 -47.912  1.00  0.00     0.048 C 
HETATM   21  C   UNL     1     -40.482  53.623 -50.430  1.00  0.00     0.009 A 
HETATM   22  C   UNL     1     -40.680  54.242 -51.669  1.00  0.00     0.030 A 
ENDBRANCH  13  16
ENDBRANCH   1  12
BRANCH   2  23
HETATM   23  C   UNL     1     -43.011  59.333 -54.212  1.00  0.00    -0.011 A 
HETATM   24  C   UNL     1     -42.493  60.100 -53.169  1.00  0.00     0.125 A 
HETATM   25  N   UNL     1     -43.238  60.861 -52.339  1.00  0.00    -0.272 NA
HETATM   26  C   UNL     1     -44.568  60.883 -52.565  1.00  0.00     0.116 A 
HETATM   27  C   UNL     1     -45.184  60.182 -53.586  1.00  0.00     0.020 A 
HETATM   28  C   UNL     1     -44.393  59.400 -54.424  1.00  0.00     0.012 A 
ENDBRANCH   2  23
TORSDOF 3
ENDMDL
MODEL 8
REMARK VINA RESULT:      -7.2     16.009     18.321
REMARK  3 active torsions:
REMARK  status: ('A' for Active; 'I' for Inactive)
REMARK    1  A    between atoms: C_5  and  N_6 
REMARK       I    between atoms: N_6  and  C_7 
REMARK    2  A    between atoms: C_7  and  C_8 
REMARK    3  A    between atoms: C_9  and  C_10 
ROOT
HETATM    1  C   UNL     1     -36.270  40.673 -52.073  1.00  0.00     0.062 A 
HETATM    2  C   UNL     1     -34.917  40.314 -51.461  1.00  0.00     0.199 A 
HETATM    3  N   UNL     1     -35.075  39.491 -50.265  1.00  0.00    -0.092 N 
HETATM    4  C   UNL     1     -36.275  39.112 -49.736  1.00  0.00     0.735 A 
HETATM    5  N   UNL     1     -37.411  39.462 -50.369  1.00  0.00    -0.191 N 
HETATM    6  N   UNL     1     -34.078  39.169 -49.426  1.00  0.00     0.012 NA
HETATM    7  N   UNL     1     -34.675  38.507 -48.439  1.00  0.00     0.033 NA
HETATM    8  N   UNL     1     -36.045  38.469 -48.618  1.00  0.00     0.030 NA
HETATM    9  C   UNL     1     -37.433  40.236 -51.524  1.00  0.00     0.037 A 
HETATM   10  C   UNL     1     -38.806  40.551 -52.070  1.00  0.00     0.070 C 
HETATM   11  H   UNL     1     -38.305  39.171 -49.979  1.00  0.00     0.184 HD
ENDROOT
BRANCH   1  12
HETATM   12  C   UNL     1     -36.280  41.414 -53.369  1.00  0.00     0.256 C 
HETATM   13  N   UNL     1     -36.548  40.624 -54.465  1.00  0.00    -0.323 N 
HETATM   14  H   UNL     1     -36.691  39.633 -54.328  1.00  0.00     0.169 HD
HETATM   15  O   UNL     1     -36.091  42.624 -53.362  1.00  0.00    -0.267 OA
BRANCH  13  16
HETATM   16  C   UNL     1     -36.669  41.050 -55.807  1.00  0.00     0.035 A 
HETATM   17  C   UNL     1     -35.692  41.777 -56.488  1.00  0.00     0.030 A 
HETATM   18  C   UNL     1     -35.889  42.160 -57.820  1.00  0.00     0.009 A 
HETATM   19  C   UNL     1     -37.066  41.821 -58.494  1.00  0.00    -0.062 A 
HETATM   20  C   UNL     1     -37.287  42.275 -59.906  1.00  0.00     0.048 C 
HETATM   21  C   UNL     1     -38.052  41.107 -57.809  1.00  0.00     0.009 A 
HETATM   22  C   UNL     1     -37.850  40.715 -56.482  1.00  0.00     0.030 A 
ENDBRANCH  13  16
ENDBRANCH   1  12
BRANCH   2  23
HETATM   23  C   UNL     1     -33.943  39.657 -52.420  1.00  0.00    -0.011 A 
HETATM   24  C   UNL     1     -34.180  38.357 -52.868  1.00  0.00     0.125 A 
HETATM   25  N   UNL     1     -33.366  37.678 -53.703  1.00  0.00    -0.272 NA
HETATM   26  C   UNL     1     -32.266  38.325 -54.140  1.00  0.00     0.116 A 
HETATM   27  C   UNL     1     -31.947  39.623 -53.782  1.00  0.00     0.020 A 
HETATM   28  C   UNL     1     -32.801  40.300 -52.914  1.00  0.00     0.012 A 
ENDBRANCH   2  23
TORSDOF 3
ENDMDL
MODEL 9
REMARK VINA RESULT:      -7.1      2.807      4.996
REMARK  3 active torsions:
REMARK  status: ('A' for Active; 'I' for Inactive)
REMARK    1  A    between atoms: C_5  and  N_6 
REMARK       I    between atoms: N_6  and  C_7 
REMARK    2  A    between atoms: C_7  and  C_8 
REMARK    3  A    between atoms: C_9  and  C_10 
ROOT
HETATM    1  C   UNL     1     -44.451  58.037 -56.025  1.00  0.00     0.062 A 
HETATM    2  C   UNL     1     -44.866  57.720 -57.462  1.00  0.00     0.199 A 
HETATM    3  N   UNL     1     -45.943  58.598 -57.910  1.00  0.00    -0.092 N 
HETATM    4  C   UNL     1     -46.532  59.561 -57.142  1.00  0.00     0.735 A 
HETATM    5  N   UNL     1     -46.073  59.776 -55.894  1.00  0.00    -0.191 N 
HETATM    6  N   UNL     1     -46.624  58.443 -59.057  1.00  0.00     0.012 NA
HETATM    7  N   UNL     1     -47.562  59.383 -59.017  1.00  0.00     0.033 NA
HETATM    8  N   UNL     1     -47.519  60.084 -57.827  1.00  0.00     0.030 NA
HETATM    9  C   UNL     1     -45.047  59.033 -55.320  1.00  0.00     0.037 A 
HETATM   10  C   UNL     1     -44.693  59.403 -53.899  1.00  0.00     0.070 C 
HETATM   11  H   UNL     1     -46.506  60.500 -55.326  1.00  0.00     0.184 HD
ENDROOT
BRANCH   1  12
HETATM   12  C   UNL     1     -43.281  57.306 -55.455  1.00  0.00     0.256 C 
HETATM   13  N   UNL     1     -43.499  55.959 -55.269  1.00  0.00    -0.323 N 
HETATM   14  H   UNL     1     -44.404  55.575 -55.498  1.00  0.00     0.169 HD
HETATM   15  O   UNL     1     -42.246  57.923 -55.235  1.00  0.00    -0.267 OA
BRANCH  13  16
HETATM   16  C   UNL     1     -42.566  55.009 -54.792  1.00  0.00     0.035 A 
HETATM   17  C   UNL     1     -41.440  54.594 -55.502  1.00  0.00     0.030 A 
HETATM   18  C   UNL     1     -40.563  53.648 -54.958  1.00  0.00     0.009 A 
HETATM   19  C   UNL     1     -40.798  53.102 -53.692  1.00  0.00    -0.062 A 
HETATM   20  C   UNL     1     -39.879  52.055 -53.137  1.00  0.00     0.048 C 
HETATM   21  C   UNL     1     -41.935  53.504 -52.987  1.00  0.00     0.009 A 
HETATM   22  C   UNL     1     -42.804  54.457 -53.527  1.00  0.00     0.030 A 
ENDBRANCH  13  16
ENDBRANCH   1  12
BRANCH   2  23
HETATM   23  C   UNL     1     -43.730  57.734 -58.466  1.00  0.00    -0.011 A 
HETATM   24  C   UNL     1     -43.096  58.936 -58.780  1.00  0.00     0.125 A 
HETATM   25  N   UNL     1     -42.092  59.058 -59.674  1.00  0.00    -0.272 NA
HETATM   26  C   UNL     1     -41.674  57.926 -60.277  1.00  0.00     0.116 A 
HETATM   27  C   UNL     1     -42.213  56.677 -60.022  1.00  0.00     0.020 A 
HETATM   28  C   UNL     1     -43.252  56.580 -59.099  1.00  0.00     0.012 A 
ENDBRANCH   2  23
TORSDOF 3
ENDMDL
MODEL 10
REMARK VINA RESULT:      -6.8      2.797      6.129
REMARK  3 active torsions:
REMARK  status: ('A' for Active; 'I' for Inactive)
REMARK    1  A    between atoms: C_5  and  N_6 
REMARK       I    between atoms: N_6  and  C_7 
REMARK    2  A    between atoms: C_7  and  C_8 
REMARK    3  A    between atoms: C_9  and  C_10 
ROOT
HETATM    1  C   UNL     1     -42.141  59.301 -54.400  1.00  0.00     0.062 A 
HETATM    2  C   UNL     1     -41.251  58.497 -53.453  1.00  0.00     0.199 A 
HETATM    3  N   UNL     1     -41.296  59.036 -52.096  1.00  0.00    -0.092 N 
HETATM    4  C   UNL     1     -42.012  60.135 -51.719  1.00  0.00     0.735 A 
HETATM    5  N   UNL     1     -42.786  60.757 -52.630  1.00  0.00    -0.191 N 
HETATM    6  N   UNL     1     -40.490  58.646 -51.096  1.00  0.00     0.012 NA
HETATM    7  N   UNL     1     -40.799  59.453 -50.086  1.00  0.00     0.033 NA
HETATM    8  N   UNL     1     -41.743  60.389 -50.463  1.00  0.00     0.030 NA
HETATM    9  C   UNL     1     -42.863  60.364 -53.962  1.00  0.00     0.037 A 
HETATM   10  C   UNL     1     -43.762  61.205 -54.837  1.00  0.00     0.070 C 
HETATM   11  H   UNL     1     -43.327  61.571 -52.346  1.00  0.00     0.184 HD
ENDROOT
BRANCH   1  12
HETATM   12  C   UNL     1     -42.299  58.809 -55.801  1.00  0.00     0.256 C 
HETATM   13  N   UNL     1     -43.246  57.818 -55.943  1.00  0.00    -0.323 N 
HETATM   14  H   UNL     1     -43.734  57.488 -55.123  1.00  0.00     0.169 HD
HETATM   15  O   UNL     1     -41.630  59.321 -56.689  1.00  0.00    -0.267 OA
BRANCH  13  16
HETATM   16  C   UNL     1     -43.646  57.196 -57.149  1.00  0.00     0.035 A 
HETATM   17  C   UNL     1     -43.061  56.039 -57.663  1.00  0.00     0.030 A 
HETATM   18  C   UNL     1     -43.517  55.484 -58.864  1.00  0.00     0.009 A 
HETATM   19  C   UNL     1     -44.568  56.077 -59.571  1.00  0.00    -0.062 A 
HETATM   20  C   UNL     1     -45.019  55.502 -60.880  1.00  0.00     0.048 C 
HETATM   21  C   UNL     1     -45.144  57.246 -59.066  1.00  0.00     0.009 A 
HETATM   22  C   UNL     1     -44.694  57.792 -57.860  1.00  0.00     0.030 A 
ENDBRANCH  13  16
ENDBRANCH   1  12
BRANCH   2  23
HETATM   23  C   UNL     1     -41.533  57.008 -53.431  1.00  0.00    -0.011 A 
HETATM   24  C   UNL     1     -40.629  56.122 -54.019  1.00  0.00     0.125 A 
HETATM   25  N   UNL     1     -40.797  54.784 -54.071  1.00  0.00    -0.272 NA
HETATM   26  C   UNL     1     -41.909  54.287 -53.490  1.00  0.00     0.116 A 
HETATM   27  C   UNL     1     -42.857  55.070 -52.856  1.00  0.00     0.020 A 
HETATM   28  C   UNL     1     -42.663  56.449 -52.822  1.00  0.00     0.012 A 
ENDBRANCH   2  23
TORSDOF 3
ENDMDL
