MODEL 1
REMARK VINA RESULT:      -9.0      0.000      0.000
REMARK  7 active torsions:
REMARK  status: ('A' for Active; 'I' for Inactive)
REMARK    1  A    between atoms: C_4  and  C_14 
REMARK    2  A    between atoms: C_7  and  C_8 
REMARK       I    between atoms: C_14  and  N_16 
REMARK    3  A    between atoms: N_16  and  C_17 
REMARK    4  A    between atoms: C_17  and  C_18 
REMARK    5  A    between atoms: C_22  and  C_24 
REMARK       I    between atoms: C_24  and  N_26 
REMARK    6  A    between atoms: N_26  and  C_27 
REMARK    7  A    between atoms: C_27  and  C_28 
ROOT
HETATM    1  C   UNL     1     -41.684  59.500 -51.727  1.00  0.00    -0.040 A 
HETATM    2  C   UNL     1     -42.473  60.616 -51.423  1.00  0.00     0.009 A 
HETATM    3  C   UNL     1     -43.059  61.365 -52.443  1.00  0.00     0.002 A 
HETATM    4  C   UNL     1     -42.880  60.994 -53.776  1.00  0.00     0.017 A 
HETATM    5  C   UNL     1     -42.113  59.868 -54.097  1.00  0.00     0.032 A 
HETATM    6  C   UNL     1     -41.501  59.139 -53.072  1.00  0.00     0.026 A 
ENDROOT
BRANCH   1   7
HETATM    7  C   UNL     1     -41.079  58.654 -50.634  1.00  0.00     0.161 C 
BRANCH   7   8
HETATM    8  N   UNL     1     -40.855  57.305 -51.099  1.00  0.00    -0.353 N 
HETATM    9  C   UNL     1     -41.013  56.210 -50.279  1.00  0.00     0.251 C 
HETATM   10  O   UNL     1     -41.365  56.269 -49.107  1.00  0.00    -0.268 OA
HETATM   11  H   UNL     1     -40.602  57.174 -52.070  1.00  0.00     0.163 HD
BRANCH   9  12
HETATM   12  C   UNL     1     -40.730  54.897 -50.907  1.00  0.00     0.032 A 
HETATM   13  C   UNL     1     -41.008  54.671 -52.261  1.00  0.00     0.024 A 
HETATM   14  C   UNL     1     -40.726  53.426 -52.853  1.00  0.00    -0.050 A 
HETATM   15  C   UNL     1     -41.029  53.235 -54.316  1.00  0.00     0.049 C 
HETATM   16  C   UNL     1     -40.143  52.410 -52.066  1.00  0.00    -0.017 A 
HETATM   17  C   UNL     1     -39.864  52.653 -50.710  1.00  0.00     0.014 A 
HETATM   18  C   UNL     1     -40.148  53.893 -50.133  1.00  0.00     0.018 A 
BRANCH  16  19
HETATM   19  C   UNL     1     -39.798  51.115 -52.618  1.00  0.00     0.011 A 
HETATM   20  C   UNL     1     -39.616  50.693 -53.953  1.00  0.00     0.152 A 
HETATM   21  N   UNL     1     -39.301  49.399 -54.042  1.00  0.00    -0.187 NA
HETATM   22  N   UNL     1     -39.272  48.991 -52.762  1.00  0.00    -0.289 N 
HETATM   23  H   UNL     1     -39.050  48.019 -52.572  1.00  0.00     0.188 HD
HETATM   24  C   UNL     1     -39.558  49.984 -51.869  1.00  0.00     0.123 A 
ENDBRANCH  16  19
ENDBRANCH   9  12
ENDBRANCH   7   8
ENDBRANCH   1   7
BRANCH   5  25
HETATM   25  C   UNL     1     -41.972  59.493 -55.532  1.00  0.00     0.251 C 
HETATM   26  O   UNL     1     -41.588  60.308 -56.371  1.00  0.00    -0.268 OA
HETATM   27  N   UNL     1     -42.291  58.201 -55.898  1.00  0.00    -0.355 N 
HETATM   28  H   UNL     1     -42.789  57.632 -55.217  1.00  0.00     0.162 HD
BRANCH  27  29
HETATM   29  C   UNL     1     -42.413  57.794 -57.294  1.00  0.00     0.155 C 
BRANCH  29  30
HETATM   30  C   UNL     1     -43.770  57.140 -57.660  1.00  0.00     0.203 C 
HETATM   31  C   UNL     1     -44.343  57.669 -58.971  1.00  0.00     0.036 C 
HETATM   32  C   UNL     1     -43.740  56.760 -60.027  1.00  0.00     0.029 C 
HETATM   33  C   UNL     1     -43.802  55.390 -59.385  1.00  0.00     0.233 C 
HETATM   34  N   UNL     1     -43.616  55.663 -57.931  1.00  0.00    -0.069 N 
HETATM   35  H   UNL     1     -42.667  55.351 -57.623  1.00  0.00     0.277 HD
HETATM   36  H   UNL     1     -44.252  55.105 -57.351  1.00  0.00     0.277 HD
ENDBRANCH  29  30
ENDBRANCH  27  29
ENDBRANCH   5  25
TORSDOF 7
ENDMDL
MODEL 2
REMARK VINA RESULT:      -8.8      1.079      1.252
REMARK  7 active torsions:
REMARK  status: ('A' for Active; 'I' for Inactive)
REMARK    1  A    between atoms: C_4  and  C_14 
REMARK    2  A    between atoms: C_7  and  C_8 
REMARK       I    between atoms: C_14  and  N_16 
REMARK    3  A    between atoms: N_16  and  C_17 
REMARK    4  A    between atoms: C_17  and  C_18 
REMARK    5  A    between atoms: C_22  and  C_24 
REMARK       I    between atoms: C_24  and  N_26 
REMARK    6  A    between atoms: N_26  and  C_27 
REMARK    7  A    between atoms: C_27  and  C_28 
ROOT
HETATM    1  C   UNL     1     -41.829  59.884 -53.085  1.00  0.00    -0.040 A 
HETATM    2  C   UNL     1     -42.564  61.069 -52.958  1.00  0.00     0.009 A 
HETATM    3  C   UNL     1     -43.153  61.657 -54.078  1.00  0.00     0.002 A 
HETATM    4  C   UNL     1     -43.031  61.056 -55.331  1.00  0.00     0.017 A 
HETATM    5  C   UNL     1     -42.319  59.859 -55.472  1.00  0.00     0.032 A 
HETATM    6  C   UNL     1     -41.703  59.291 -54.352  1.00  0.00     0.026 A 
ENDROOT
BRANCH   1   7
HETATM    7  C   UNL     1     -41.223  59.213 -51.878  1.00  0.00     0.161 C 
BRANCH   7   8
HETATM    8  N   UNL     1     -40.955  57.820 -52.151  1.00  0.00    -0.353 N 
HETATM    9  C   UNL     1     -41.721  56.807 -51.619  1.00  0.00     0.251 C 
HETATM   10  O   UNL     1     -42.691  56.983 -50.891  1.00  0.00    -0.268 OA
HETATM   11  H   UNL     1     -40.193  57.598 -52.778  1.00  0.00     0.163 HD
BRANCH   9  12
HETATM   12  C   UNL     1     -41.304  55.432 -51.985  1.00  0.00     0.032 A 
HETATM   13  C   UNL     1     -40.945  55.115 -53.301  1.00  0.00     0.024 A 
HETATM   14  C   UNL     1     -40.539  53.811 -53.639  1.00  0.00    -0.050 A 
HETATM   15  C   UNL     1     -40.149  53.522 -55.066  1.00  0.00     0.049 C 
HETATM   16  C   UNL     1     -40.484  52.827 -52.629  1.00  0.00    -0.017 A 
HETATM   17  C   UNL     1     -40.842  53.162 -51.312  1.00  0.00     0.014 A 
HETATM   18  C   UNL     1     -41.243  54.460 -50.988  1.00  0.00     0.018 A 
BRANCH  16  19
HETATM   19  C   UNL     1     -40.046  51.473 -52.901  1.00  0.00     0.011 A 
HETATM   20  C   UNL     1     -39.967  50.747 -54.109  1.00  0.00     0.152 A 
HETATM   21  N   UNL     1     -39.506  49.507 -53.932  1.00  0.00    -0.187 NA
HETATM   22  N   UNL     1     -39.280  49.439 -52.609  1.00  0.00    -0.289 N 
HETATM   23  H   UNL     1     -38.918  48.571 -52.226  1.00  0.00     0.188 HD
HETATM   24  C   UNL     1     -39.583  50.594 -51.946  1.00  0.00     0.123 A 
ENDBRANCH  16  19
ENDBRANCH   9  12
ENDBRANCH   7   8
ENDBRANCH   1   7
BRANCH   5  25
HETATM   25  C   UNL     1     -42.238  59.238 -56.824  1.00  0.00     0.251 C 
HETATM   26  O   UNL     1     -41.805  59.865 -57.790  1.00  0.00    -0.268 OA
HETATM   27  N   UNL     1     -42.669  57.934 -56.964  1.00  0.00    -0.355 N 
HETATM   28  H   UNL     1     -43.198  57.532 -56.193  1.00  0.00     0.162 HD
BRANCH  27  29
HETATM   29  C   UNL     1     -42.853  57.311 -58.270  1.00  0.00     0.155 C 
BRANCH  29  30
HETATM   30  C   UNL     1     -44.224  56.614 -58.467  1.00  0.00     0.203 C 
HETATM   31  C   UNL     1     -44.870  56.957 -59.806  1.00  0.00     0.036 C 
HETATM   32  C   UNL     1     -44.320  55.908 -60.757  1.00  0.00     0.029 C 
HETATM   33  C   UNL     1     -44.339  54.641 -59.927  1.00  0.00     0.233 C 
HETATM   34  N   UNL     1     -44.076  55.114 -58.538  1.00  0.00    -0.069 N 
HETATM   35  H   UNL     1     -43.110  54.846 -58.241  1.00  0.00     0.277 HD
HETATM   36  H   UNL     1     -44.677  54.643 -57.852  1.00  0.00     0.277 HD
ENDBRANCH  29  30
ENDBRANCH  27  29
ENDBRANCH   5  25
TORSDOF 7
ENDMDL
MODEL 3
REMARK VINA RESULT:      -8.6      1.585      1.695
REMARK  7 active torsions:
REMARK  status: ('A' for Active; 'I' for Inactive)
REMARK    1  A    between atoms: C_4  and  C_14 
REMARK    2  A    between atoms: C_7  and  C_8 
REMARK       I    between atoms: C_14  and  N_16 
REMARK    3  A    between atoms: N_16  and  C_17 
REMARK    4  A    between atoms: C_17  and  C_18 
REMARK    5  A    between atoms: C_22  and  C_24 
REMARK       I    between atoms: C_24  and  N_26 
REMARK    6  A    between atoms: N_26  and  C_27 
REMARK    7  A    between atoms: C_27  and  C_28 
ROOT
HETATM    1  C   UNL     1     -43.036  59.072 -51.815  1.00  0.00    -0.040 A 
HETATM    2  C   UNL     1     -43.772  60.198 -51.426  1.00  0.00     0.009 A 
HETATM    3  C   UNL     1     -44.803  60.681 -52.232  1.00  0.00     0.002 A 
HETATM    4  C   UNL     1     -45.123  60.030 -53.425  1.00  0.00     0.017 A 
HETATM    5  C   UNL     1     -44.413  58.890 -53.818  1.00  0.00     0.032 A 
HETATM    6  C   UNL     1     -43.359  58.429 -53.022  1.00  0.00     0.026 A 
ENDROOT
BRANCH   1   7
HETATM    7  C   UNL     1     -41.948  58.512 -50.934  1.00  0.00     0.161 C 
BRANCH   7   8
HETATM    8  N   UNL     1     -41.602  57.170 -51.343  1.00  0.00    -0.353 N 
HETATM    9  C   UNL     1     -41.261  56.192 -50.436  1.00  0.00     0.251 C 
HETATM   10  O   UNL     1     -41.233  56.354 -49.222  1.00  0.00    -0.268 OA
HETATM   11  H   UNL     1     -41.643  56.949 -52.329  1.00  0.00     0.163 HD
BRANCH   9  12
HETATM   12  C   UNL     1     -40.919  54.872 -51.020  1.00  0.00     0.032 A 
HETATM   13  C   UNL     1     -40.976  54.660 -52.403  1.00  0.00     0.024 A 
HETATM   14  C   UNL     1     -40.638  53.409 -52.951  1.00  0.00    -0.050 A 
HETATM   15  C   UNL     1     -40.701  53.233 -54.446  1.00  0.00     0.049 C 
HETATM   16  C   UNL     1     -40.226  52.372 -52.088  1.00  0.00    -0.017 A 
HETATM   17  C   UNL     1     -40.169  52.601 -50.702  1.00  0.00     0.014 A 
HETATM   18  C   UNL     1     -40.505  53.847 -50.169  1.00  0.00     0.018 A 
BRANCH  16  19
HETATM   19  C   UNL     1     -39.835  51.068 -52.586  1.00  0.00     0.011 A 
HETATM   20  C   UNL     1     -39.638  50.598 -53.903  1.00  0.00     0.152 A 
HETATM   21  N   UNL     1     -39.277  49.314 -53.939  1.00  0.00    -0.187 NA
HETATM   22  N   UNL     1     -39.233  48.961 -52.643  1.00  0.00    -0.289 N 
HETATM   23  H   UNL     1     -38.975  48.006 -52.414  1.00  0.00     0.188 HD
HETATM   24  C   UNL     1     -39.553  49.979 -51.792  1.00  0.00     0.123 A 
ENDBRANCH  16  19
ENDBRANCH   9  12
ENDBRANCH   7   8
ENDBRANCH   1   7
BRANCH   5  25
HETATM   25  C   UNL     1     -44.808  58.212 -55.085  1.00  0.00     0.251 C 
HETATM   26  O   UNL     1     -45.731  57.399 -55.114  1.00  0.00    -0.268 OA
HETATM   27  N   UNL     1     -44.102  58.520 -56.230  1.00  0.00    -0.355 N 
HETATM   28  H   UNL     1     -43.232  59.036 -56.119  1.00  0.00     0.162 HD
BRANCH  27  29
HETATM   29  C   UNL     1     -44.244  57.753 -57.463  1.00  0.00     0.155 C 
BRANCH  29  30
HETATM   30  C   UNL     1     -43.037  56.842 -57.802  1.00  0.00     0.203 C 
HETATM   31  C   UNL     1     -43.420  55.668 -58.698  1.00  0.00     0.036 C 
HETATM   32  C   UNL     1     -43.264  56.218 -60.106  1.00  0.00     0.029 C 
HETATM   33  C   UNL     1     -41.999  57.044 -60.019  1.00  0.00     0.233 C 
HETATM   34  N   UNL     1     -42.006  57.574 -58.626  1.00  0.00    -0.069 N 
HETATM   35  H   UNL     1     -42.226  58.596 -58.628  1.00  0.00     0.277 HD
HETATM   36  H   UNL     1     -41.077  57.529 -58.193  1.00  0.00     0.277 HD
ENDBRANCH  29  30
ENDBRANCH  27  29
ENDBRANCH   5  25
TORSDOF 7
ENDMDL
MODEL 4
REMARK VINA RESULT:      -8.5      4.325      7.463
REMARK  7 active torsions:
REMARK  status: ('A' for Active; 'I' for Inactive)
REMARK    1  A    between atoms: C_4  and  C_14 
REMARK    2  A    between atoms: C_7  and  C_8 
REMARK       I    between atoms: C_14  and  N_16 
REMARK    3  A    between atoms: N_16  and  C_17 
REMARK    4  A    between atoms: C_17  and  C_18 
REMARK    5  A    between atoms: C_22  and  C_24 
REMARK       I    between atoms: C_24  and  N_26 
REMARK    6  A    between atoms: N_26  and  C_27 
REMARK    7  A    between atoms: C_27  and  C_28 
ROOT
HETATM    1  C   UNL     1     -43.001  59.351 -51.359  1.00  0.00    -0.040 A 
HETATM    2  C   UNL     1     -44.008  58.397 -51.557  1.00  0.00     0.009 A 
HETATM    3  C   UNL     1     -45.275  58.584 -51.006  1.00  0.00     0.002 A 
HETATM    4  C   UNL     1     -45.557  59.736 -50.270  1.00  0.00     0.017 A 
HETATM    5  C   UNL     1     -44.570  60.710 -50.082  1.00  0.00     0.032 A 
HETATM    6  C   UNL     1     -43.291  60.503 -50.609  1.00  0.00     0.026 A 
ENDROOT
BRANCH   1   7
HETATM    7  C   UNL     1     -41.639  59.185 -51.984  1.00  0.00     0.161 C 
BRANCH   7   8
HETATM    8  N   UNL     1     -41.321  57.785 -52.148  1.00  0.00    -0.353 N 
HETATM    9  C   UNL     1     -41.301  57.176 -53.382  1.00  0.00     0.251 C 
HETATM   10  O   UNL     1     -41.532  57.750 -54.440  1.00  0.00    -0.268 OA
HETATM   11  H   UNL     1     -41.079  57.254 -51.321  1.00  0.00     0.163 HD
BRANCH   9  12
HETATM   12  C   UNL     1     -40.970  55.730 -53.375  1.00  0.00     0.032 A 
HETATM   13  C   UNL     1     -41.077  54.972 -52.202  1.00  0.00     0.024 A 
HETATM   14  C   UNL     1     -40.772  53.599 -52.206  1.00  0.00    -0.050 A 
HETATM   15  C   UNL     1     -40.917  52.822 -50.923  1.00  0.00     0.049 C 
HETATM   16  C   UNL     1     -40.370  52.990 -53.414  1.00  0.00    -0.017 A 
HETATM   17  C   UNL     1     -40.272  53.762 -54.584  1.00  0.00     0.014 A 
HETATM   18  C   UNL     1     -40.578  55.124 -54.569  1.00  0.00     0.018 A 
BRANCH  16  19
HETATM   19  C   UNL     1     -40.070  51.574 -53.496  1.00  0.00     0.011 A 
HETATM   20  C   UNL     1     -39.493  50.691 -52.559  1.00  0.00     0.152 A 
HETATM   21  N   UNL     1     -39.384  49.446 -53.028  1.00  0.00    -0.187 NA
HETATM   22  N   UNL     1     -39.901  49.528 -54.266  1.00  0.00    -0.289 N 
HETATM   23  H   UNL     1     -39.927  48.686 -54.833  1.00  0.00     0.188 HD
HETATM   24  C   UNL     1     -40.332  50.782 -54.592  1.00  0.00     0.123 A 
ENDBRANCH  16  19
ENDBRANCH   9  12
ENDBRANCH   7   8
ENDBRANCH   1   7
BRANCH   5  25
HETATM   25  C   UNL     1     -44.923  61.937 -49.313  1.00  0.00     0.251 C 
HETATM   26  O   UNL     1     -44.106  62.840 -49.142  1.00  0.00    -0.268 OA
HETATM   27  N   UNL     1     -46.198  62.029 -48.792  1.00  0.00    -0.355 N 
HETATM   28  H   UNL     1     -46.763  61.183 -48.787  1.00  0.00     0.162 HD
BRANCH  27  29
HETATM   29  C   UNL     1     -46.576  63.064 -47.836  1.00  0.00     0.155 C 
BRANCH  29  30
HETATM   30  C   UNL     1     -46.772  62.562 -46.383  1.00  0.00     0.203 C 
HETATM   31  C   UNL     1     -45.521  62.732 -45.527  1.00  0.00     0.036 C 
HETATM   32  C   UNL     1     -45.660  64.131 -44.951  1.00  0.00     0.029 C 
HETATM   33  C   UNL     1     -47.131  64.221 -44.606  1.00  0.00     0.233 C 
HETATM   34  N   UNL     1     -47.799  63.389 -45.647  1.00  0.00    -0.069 N 
HETATM   35  H   UNL     1     -48.306  63.999 -46.328  1.00  0.00     0.277 HD
HETATM   36  H   UNL     1     -48.542  62.802 -45.252  1.00  0.00     0.277 HD
ENDBRANCH  29  30
ENDBRANCH  27  29
ENDBRANCH   5  25
TORSDOF 7
ENDMDL
MODEL 5
REMARK VINA RESULT:      -8.5      3.418      5.424
REMARK  7 active torsions:
REMARK  status: ('A' for Active; 'I' for Inactive)
REMARK    1  A    between atoms: C_4  and  C_14 
REMARK    2  A    between atoms: C_7  and  C_8 
REMARK       I    between atoms: C_14  and  N_16 
REMARK    3  A    between atoms: N_16  and  C_17 
REMARK    4  A    between atoms: C_17  and  C_18 
REMARK    5  A    between atoms: C_22  and  C_24 
REMARK       I    between atoms: C_24  and  N_26 
REMARK    6  A    between atoms: N_26  and  C_27 
REMARK    7  A    between atoms: C_27  and  C_28 
ROOT
HETATM    1  C   UNL     1     -42.661  57.881 -57.563  1.00  0.00    -0.040 A 
HETATM    2  C   UNL     1     -42.774  56.672 -58.260  1.00  0.00     0.009 A 
HETATM    3  C   UNL     1     -42.746  56.655 -59.654  1.00  0.00     0.002 A 
HETATM    4  C   UNL     1     -42.584  57.844 -60.366  1.00  0.00     0.017 A 
HETATM    5  C   UNL     1     -42.447  59.060 -59.686  1.00  0.00     0.032 A 
HETATM    6  C   UNL     1     -42.508  59.075 -58.288  1.00  0.00     0.026 A 
ENDROOT
BRANCH   1   7
HETATM    7  C   UNL     1     -42.646  57.912 -56.055  1.00  0.00     0.161 C 
BRANCH   7   8
HETATM    8  N   UNL     1     -42.180  56.651 -55.525  1.00  0.00    -0.353 N 
HETATM    9  C   UNL     1     -41.390  56.575 -54.400  1.00  0.00     0.251 C 
HETATM   10  O   UNL     1     -41.025  57.544 -53.745  1.00  0.00    -0.268 OA
HETATM   11  H   UNL     1     -42.476  55.803 -55.990  1.00  0.00     0.163 HD
BRANCH   9  12
HETATM   12  C   UNL     1     -40.986  55.207 -53.996  1.00  0.00     0.032 A 
HETATM   13  C   UNL     1     -41.094  54.787 -52.664  1.00  0.00     0.024 A 
HETATM   14  C   UNL     1     -40.720  53.484 -52.290  1.00  0.00    -0.050 A 
HETATM   15  C   UNL     1     -40.868  53.074 -50.848  1.00  0.00     0.049 C 
HETATM   16  C   UNL     1     -40.246  52.596 -53.280  1.00  0.00    -0.017 A 
HETATM   17  C   UNL     1     -40.148  53.030 -54.614  1.00  0.00     0.014 A 
HETATM   18  C   UNL     1     -40.523  54.326 -54.974  1.00  0.00     0.018 A 
BRANCH  16  19
HETATM   19  C   UNL     1     -39.872  51.231 -52.971  1.00  0.00     0.011 A 
HETATM   20  C   UNL     1     -39.765  50.088 -53.793  1.00  0.00     0.152 A 
HETATM   21  N   UNL     1     -39.387  49.003 -53.114  1.00  0.00    -0.187 NA
HETATM   22  N   UNL     1     -39.244  49.451 -51.855  1.00  0.00    -0.289 N 
HETATM   23  H   UNL     1     -38.956  48.791 -51.139  1.00  0.00     0.188 HD
HETATM   24  C   UNL     1     -39.518  50.781 -51.718  1.00  0.00     0.123 A 
ENDBRANCH  16  19
ENDBRANCH   9  12
ENDBRANCH   7   8
ENDBRANCH   1   7
BRANCH   5  25
HETATM   25  C   UNL     1     -42.249  60.301 -60.486  1.00  0.00     0.251 C 
HETATM   26  O   UNL     1     -41.694  60.271 -61.584  1.00  0.00    -0.268 OA
HETATM   27  N   UNL     1     -42.702  61.492 -59.956  1.00  0.00    -0.355 N 
HETATM   28  H   UNL     1     -42.966  61.496 -58.973  1.00  0.00     0.162 HD
BRANCH  27  29
HETATM   29  C   UNL     1     -42.356  62.785 -60.537  1.00  0.00     0.155 C 
BRANCH  29  30
HETATM   30  C   UNL     1     -41.574  63.731 -59.591  1.00  0.00     0.203 C 
HETATM   31  C   UNL     1     -40.608  62.983 -58.677  1.00  0.00     0.036 C 
HETATM   32  C   UNL     1     -39.325  62.905 -59.488  1.00  0.00     0.029 C 
HETATM   33  C   UNL     1     -39.240  64.271 -60.137  1.00  0.00     0.233 C 
HETATM   34  N   UNL     1     -40.663  64.654 -60.363  1.00  0.00    -0.069 N 
HETATM   35  H   UNL     1     -40.895  64.600 -61.380  1.00  0.00     0.277 HD
HETATM   36  H   UNL     1     -40.837  65.638 -60.129  1.00  0.00     0.277 HD
ENDBRANCH  29  30
ENDBRANCH  27  29
ENDBRANCH   5  25
TORSDOF 7
ENDMDL
MODEL 6
REMARK VINA RESULT:      -8.4      2.571      8.474
REMARK  7 active torsions:
REMARK  status: ('A' for Active; 'I' for Inactive)
REMARK    1  A    between atoms: C_4  and  C_14 
REMARK    2  A    between atoms: C_7  and  C_8 
REMARK       I    between atoms: C_14  and  N_16 
REMARK    3  A    between atoms: N_16  and  C_17 
REMARK    4  A    between atoms: C_17  and  C_18 
REMARK    5  A    between atoms: C_22  and  C_24 
REMARK       I    between atoms: C_24  and  N_26 
REMARK    6  A    between atoms: N_26  and  C_27 
REMARK    7  A    between atoms: C_27  and  C_28 
ROOT
HETATM    1  C   UNL     1     -40.490  53.253 -53.423  1.00  0.00    -0.040 A 
HETATM    2  C   UNL     1     -39.989  52.189 -52.664  1.00  0.00     0.009 A 
HETATM    3  C   UNL     1     -39.867  52.305 -51.279  1.00  0.00     0.002 A 
HETATM    4  C   UNL     1     -40.265  53.478 -50.637  1.00  0.00     0.017 A 
HETATM    5  C   UNL     1     -40.789  54.544 -51.377  1.00  0.00     0.032 A 
HETATM    6  C   UNL     1     -40.878  54.434 -52.769  1.00  0.00     0.026 A 
ENDROOT
BRANCH   1   7
HETATM    7  C   UNL     1     -40.668  53.128 -54.915  1.00  0.00     0.161 C 
BRANCH   7   8
HETATM    8  N   UNL     1     -41.042  54.398 -55.492  1.00  0.00    -0.353 N 
HETATM    9  C   UNL     1     -42.348  54.708 -55.800  1.00  0.00     0.251 C 
HETATM   10  O   UNL     1     -43.300  53.961 -55.606  1.00  0.00    -0.268 OA
HETATM   11  H   UNL     1     -40.314  55.084 -55.643  1.00  0.00     0.163 HD
BRANCH   9  12
HETATM   12  C   UNL     1     -42.561  56.048 -56.400  1.00  0.00     0.032 A 
HETATM   13  C   UNL     1     -42.291  57.214 -55.673  1.00  0.00     0.024 A 
HETATM   14  C   UNL     1     -42.484  58.481 -56.252  1.00  0.00    -0.050 A 
HETATM   15  C   UNL     1     -42.165  59.706 -55.435  1.00  0.00     0.049 C 
HETATM   16  C   UNL     1     -42.942  58.563 -57.584  1.00  0.00    -0.017 A 
HETATM   17  C   UNL     1     -43.205  57.384 -58.303  1.00  0.00     0.014 A 
HETATM   18  C   UNL     1     -43.008  56.131 -57.718  1.00  0.00     0.018 A 
BRANCH  16  19
HETATM   19  C   UNL     1     -43.134  59.834 -58.253  1.00  0.00     0.011 A 
HETATM   20  C   UNL     1     -44.241  60.709 -58.284  1.00  0.00     0.152 A 
HETATM   21  N   UNL     1     -44.015  61.794 -59.029  1.00  0.00    -0.187 NA
HETATM   22  N   UNL     1     -42.758  61.619 -59.469  1.00  0.00    -0.289 N 
HETATM   23  H   UNL     1     -42.355  62.332 -60.069  1.00  0.00     0.188 HD
HETATM   24  C   UNL     1     -42.184  60.462 -59.028  1.00  0.00     0.123 A 
ENDBRANCH  16  19
ENDBRANCH   9  12
ENDBRANCH   7   8
ENDBRANCH   1   7
BRANCH   5  25
HETATM   25  C   UNL     1     -41.226  55.767 -50.647  1.00  0.00     0.251 C 
HETATM   26  O   UNL     1     -41.687  55.700 -49.508  1.00  0.00    -0.268 OA
HETATM   27  N   UNL     1     -41.104  56.983 -51.289  1.00  0.00    -0.355 N 
HETATM   28  H   UNL     1     -40.910  56.966 -52.288  1.00  0.00     0.162 HD
BRANCH  27  29
HETATM   29  C   UNL     1     -41.710  58.203 -50.768  1.00  0.00     0.155 C 
BRANCH  29  30
HETATM   30  C   UNL     1     -42.850  58.783 -51.642  1.00  0.00     0.203 C 
HETATM   31  C   UNL     1     -43.717  57.698 -52.274  1.00  0.00     0.036 C 
HETATM   32  C   UNL     1     -44.792  57.436 -51.233  1.00  0.00     0.029 C 
HETATM   33  C   UNL     1     -45.129  58.822 -50.724  1.00  0.00     0.233 C 
HETATM   34  N   UNL     1     -43.840  59.565 -50.811  1.00  0.00    -0.069 N 
HETATM   35  H   UNL     1     -43.445  59.719 -49.856  1.00  0.00     0.277 HD
HETATM   36  H   UNL     1     -43.968  60.516 -51.175  1.00  0.00     0.277 HD
ENDBRANCH  29  30
ENDBRANCH  27  29
ENDBRANCH   5  25
TORSDOF 7
ENDMDL
MODEL 7
REMARK VINA RESULT:      -8.4      2.231      6.909
REMARK  7 active torsions:
REMARK  status: ('A' for Active; 'I' for Inactive)
REMARK    1  A    between atoms: C_4  and  C_14 
REMARK    2  A    between atoms: C_7  and  C_8 
REMARK       I    between atoms: C_14  and  N_16 
REMARK    3  A    between atoms: N_16  and  C_17 
REMARK    4  A    between atoms: C_17  and  C_18 
REMARK    5  A    between atoms: C_22  and  C_24 
REMARK       I    between atoms: C_24  and  N_26 
REMARK    6  A    between atoms: N_26  and  C_27 
REMARK    7  A    between atoms: C_27  and  C_28 
ROOT
HETATM    1  C   UNL     1     -42.329  59.645 -52.130  1.00  0.00    -0.040 A 
HETATM    2  C   UNL     1     -41.656  60.295 -51.089  1.00  0.00     0.009 A 
HETATM    3  C   UNL     1     -40.988  59.558 -50.111  1.00  0.00     0.002 A 
HETATM    4  C   UNL     1     -40.966  58.165 -50.176  1.00  0.00     0.017 A 
HETATM    5  C   UNL     1     -41.614  57.498 -51.223  1.00  0.00     0.032 A 
HETATM    6  C   UNL     1     -42.311  58.241 -52.182  1.00  0.00     0.026 A 
ENDROOT
BRANCH   1   7
HETATM    7  C   UNL     1     -43.020  60.427 -53.218  1.00  0.00     0.161 C 
BRANCH   7   8
HETATM    8  N   UNL     1     -43.298  59.582 -54.356  1.00  0.00    -0.353 N 
HETATM    9  C   UNL     1     -42.548  59.632 -55.509  1.00  0.00     0.251 C 
HETATM   10  O   UNL     1     -41.585  60.371 -55.676  1.00  0.00    -0.268 OA
HETATM   11  H   UNL     1     -44.055  58.915 -54.277  1.00  0.00     0.163 HD
BRANCH   9  12
HETATM   12  C   UNL     1     -42.974  58.708 -56.588  1.00  0.00     0.032 A 
HETATM   13  C   UNL     1     -42.194  58.535 -57.738  1.00  0.00     0.024 A 
HETATM   14  C   UNL     1     -42.598  57.648 -58.753  1.00  0.00    -0.050 A 
HETATM   15  C   UNL     1     -41.718  57.485 -59.964  1.00  0.00     0.049 C 
HETATM   16  C   UNL     1     -43.797  56.922 -58.589  1.00  0.00    -0.017 A 
HETATM   17  C   UNL     1     -44.567  57.102 -57.428  1.00  0.00     0.014 A 
HETATM   18  C   UNL     1     -44.156  57.985 -56.427  1.00  0.00     0.018 A 
BRANCH  16  19
HETATM   19  C   UNL     1     -44.258  55.969 -59.580  1.00  0.00     0.011 A 
HETATM   20  C   UNL     1     -44.868  56.160 -60.838  1.00  0.00     0.152 A 
HETATM   21  N   UNL     1     -45.146  55.008 -61.452  1.00  0.00    -0.187 NA
HETATM   22  N   UNL     1     -44.705  54.076 -60.590  1.00  0.00    -0.289 N 
HETATM   23  H   UNL     1     -44.810  53.098 -60.844  1.00  0.00     0.188 HD
HETATM   24  C   UNL     1     -44.159  54.601 -59.455  1.00  0.00     0.123 A 
ENDBRANCH  16  19
ENDBRANCH   9  12
ENDBRANCH   7   8
ENDBRANCH   1   7
BRANCH   5  25
HETATM   25  C   UNL     1     -41.543  56.011 -51.267  1.00  0.00     0.251 C 
HETATM   26  O   UNL     1     -40.722  55.390 -50.592  1.00  0.00    -0.268 OA
HETATM   27  N   UNL     1     -42.423  55.345 -52.095  1.00  0.00    -0.355 N 
HETATM   28  H   UNL     1     -42.937  55.901 -52.775  1.00  0.00     0.162 HD
BRANCH  27  29
HETATM   29  C   UNL     1     -42.289  53.923 -52.393  1.00  0.00     0.155 C 
BRANCH  29  30
HETATM   30  C   UNL     1     -42.261  53.578 -53.904  1.00  0.00     0.203 C 
HETATM   31  C   UNL     1     -42.128  54.815 -54.787  1.00  0.00     0.036 C 
HETATM   32  C   UNL     1     -40.627  55.015 -54.913  1.00  0.00     0.029 C 
HETATM   33  C   UNL     1     -40.100  53.604 -55.074  1.00  0.00     0.233 C 
HETATM   34  N   UNL     1     -41.035  52.773 -54.264  1.00  0.00    -0.069 N 
HETATM   35  H   UNL     1     -40.565  52.447 -53.389  1.00  0.00     0.277 HD
HETATM   36  H   UNL     1     -41.286  51.900 -54.742  1.00  0.00     0.277 HD
ENDBRANCH  29  30
ENDBRANCH  27  29
ENDBRANCH   5  25
TORSDOF 7
ENDMDL
MODEL 8
REMARK VINA RESULT:      -8.3     15.771     19.889
REMARK  7 active torsions:
REMARK  status: ('A' for Active; 'I' for Inactive)
REMARK    1  A    between atoms: C_4  and  C_14 
REMARK    2  A    between atoms: C_7  and  C_8 
REMARK       I    between atoms: C_14  and  N_16 
REMARK    3  A    between atoms: N_16  and  C_17 
REMARK    4  A    between atoms: C_17  and  C_18 
REMARK    5  A    between atoms: C_22  and  C_24 
REMARK       I    between atoms: C_24  and  N_26 
REMARK    6  A    between atoms: N_26  and  C_27 
REMARK    7  A    between atoms: C_27  and  C_28 
ROOT
HETATM    1  C   UNL     1     -34.244  40.710 -50.713  1.00  0.00    -0.040 A 
HETATM    2  C   UNL     1     -35.410  39.956 -50.532  1.00  0.00     0.009 A 
HETATM    3  C   UNL     1     -35.420  38.871 -49.655  1.00  0.00     0.002 A 
HETATM    4  C   UNL     1     -34.272  38.542 -48.933  1.00  0.00     0.017 A 
HETATM    5  C   UNL     1     -33.104  39.299 -49.084  1.00  0.00     0.032 A 
HETATM    6  C   UNL     1     -33.090  40.365 -49.990  1.00  0.00     0.026 A 
ENDROOT
BRANCH   1   7
HETATM    7  C   UNL     1     -34.228  41.911 -51.624  1.00  0.00     0.161 C 
BRANCH   7   8
HETATM    8  N   UNL     1     -34.555  41.528 -52.978  1.00  0.00    -0.353 N 
HETATM    9  C   UNL     1     -35.715  41.937 -53.596  1.00  0.00     0.251 C 
HETATM   10  O   UNL     1     -36.558  42.660 -53.077  1.00  0.00    -0.268 OA
HETATM   11  H   UNL     1     -33.887  40.964 -53.485  1.00  0.00     0.163 HD
BRANCH   9  12
HETATM   12  C   UNL     1     -35.907  41.444 -54.982  1.00  0.00     0.032 A 
HETATM   13  C   UNL     1     -36.466  40.184 -55.227  1.00  0.00     0.024 A 
HETATM   14  C   UNL     1     -36.656  39.728 -56.545  1.00  0.00    -0.050 A 
HETATM   15  C   UNL     1     -37.274  38.370 -56.758  1.00  0.00     0.049 C 
HETATM   16  C   UNL     1     -36.289  40.566 -57.619  1.00  0.00    -0.017 A 
HETATM   17  C   UNL     1     -35.734  41.830 -57.357  1.00  0.00     0.014 A 
HETATM   18  C   UNL     1     -35.551  42.273 -56.046  1.00  0.00     0.018 A 
BRANCH  16  19
HETATM   19  C   UNL     1     -36.485  40.172 -59.000  1.00  0.00     0.011 A 
HETATM   20  C   UNL     1     -35.909  39.132 -59.760  1.00  0.00     0.152 A 
HETATM   21  N   UNL     1     -36.360  39.105 -61.016  1.00  0.00    -0.187 NA
HETATM   22  N   UNL     1     -37.233  40.126 -61.060  1.00  0.00    -0.289 N 
HETATM   23  H   UNL     1     -37.716  40.308 -61.935  1.00  0.00     0.188 HD
HETATM   24  C   UNL     1     -37.349  40.793 -59.875  1.00  0.00     0.123 A 
ENDBRANCH  16  19
ENDBRANCH   9  12
ENDBRANCH   7   8
ENDBRANCH   1   7
BRANCH   5  25
HETATM   25  C   UNL     1     -31.910  38.928 -48.274  1.00  0.00     0.251 C 
HETATM   26  O   UNL     1     -31.608  37.750 -48.083  1.00  0.00    -0.268 OA
HETATM   27  N   UNL     1     -31.151  39.947 -47.736  1.00  0.00    -0.355 N 
HETATM   28  H   UNL     1     -31.549  40.884 -47.751  1.00  0.00     0.162 HD
BRANCH  27  29
HETATM   29  C   UNL     1     -30.110  39.703 -46.743  1.00  0.00     0.155 C 
BRANCH  29  30
HETATM   30  C   UNL     1     -30.488  40.109 -45.296  1.00  0.00     0.203 C 
HETATM   31  C   UNL     1     -30.845  38.910 -44.423  1.00  0.00     0.036 C 
HETATM   32  C   UNL     1     -29.513  38.473 -43.840  1.00  0.00     0.029 C 
HETATM   33  C   UNL     1     -28.828  39.783 -43.514  1.00  0.00     0.233 C 
HETATM   34  N   UNL     1     -29.313  40.718 -44.569  1.00  0.00    -0.069 N 
HETATM   35  H   UNL     1     -28.549  40.920 -45.253  1.00  0.00     0.277 HD
HETATM   36  H   UNL     1     -29.544  41.642 -44.187  1.00  0.00     0.277 HD
ENDBRANCH  29  30
ENDBRANCH  27  29
ENDBRANCH   5  25
TORSDOF 7
ENDMDL
MODEL 9
REMARK VINA RESULT:      -8.3      3.625      5.802
REMARK  7 active torsions:
REMARK  status: ('A' for Active; 'I' for Inactive)
REMARK    1  A    between atoms: C_4  and  C_14 
REMARK    2  A    between atoms: C_7  and  C_8 
REMARK       I    between atoms: C_14  and  N_16 
REMARK    3  A    between atoms: N_16  and  C_17 
REMARK    4  A    between atoms: C_17  and  C_18 
REMARK    5  A    between atoms: C_22  and  C_24 
REMARK       I    between atoms: C_24  and  N_26 
REMARK    6  A    between atoms: N_26  and  C_27 
REMARK    7  A    between atoms: C_27  and  C_28 
ROOT
HETATM    1  C   UNL     1     -43.242  56.963 -57.961  1.00  0.00    -0.040 A 
HETATM    2  C   UNL     1     -43.219  55.661 -58.476  1.00  0.00     0.009 A 
HETATM    3  C   UNL     1     -44.031  55.316 -59.557  1.00  0.00     0.002 A 
HETATM    4  C   UNL     1     -44.857  56.274 -60.147  1.00  0.00     0.017 A 
HETATM    5  C   UNL     1     -44.874  57.586 -59.660  1.00  0.00     0.032 A 
HETATM    6  C   UNL     1     -44.083  57.918 -58.555  1.00  0.00     0.026 A 
ENDROOT
BRANCH   1   7
HETATM    7  C   UNL     1     -42.339  57.364 -56.821  1.00  0.00     0.161 C 
BRANCH   7   8
HETATM    8  N   UNL     1     -41.908  56.201 -56.080  1.00  0.00    -0.353 N 
HETATM    9  C   UNL     1     -41.421  56.289 -54.795  1.00  0.00     0.251 C 
HETATM   10  O   UNL     1     -41.320  57.335 -54.164  1.00  0.00    -0.268 OA
HETATM   11  H   UNL     1     -42.000  55.296 -56.522  1.00  0.00     0.163 HD
BRANCH   9  12
HETATM   12  C   UNL     1     -41.008  55.005 -54.180  1.00  0.00     0.032 A 
HETATM   13  C   UNL     1     -41.120  54.798 -52.799  1.00  0.00     0.024 A 
HETATM   14  C   UNL     1     -40.738  53.572 -52.224  1.00  0.00    -0.050 A 
HETATM   15  C   UNL     1     -40.890  53.393 -50.736  1.00  0.00     0.049 C 
HETATM   16  C   UNL     1     -40.253  52.545 -53.061  1.00  0.00    -0.017 A 
HETATM   17  C   UNL     1     -40.151  52.765 -54.445  1.00  0.00     0.014 A 
HETATM   18  C   UNL     1     -40.534  53.985 -55.005  1.00  0.00     0.018 A 
BRANCH  16  19
HETATM   19  C   UNL     1     -39.870  51.248 -52.540  1.00  0.00     0.011 A 
HETATM   20  C   UNL     1     -39.584  50.823 -51.224  1.00  0.00     0.152 A 
HETATM   21  N   UNL     1     -39.265  49.529 -51.163  1.00  0.00    -0.187 NA
HETATM   22  N   UNL     1     -39.354  49.119 -52.440  1.00  0.00    -0.289 N 
HETATM   23  H   UNL     1     -39.151  48.146 -52.648  1.00  0.00     0.188 HD
HETATM   24  C   UNL     1     -39.719  50.111 -53.303  1.00  0.00     0.123 A 
ENDBRANCH  16  19
ENDBRANCH   9  12
ENDBRANCH   7   8
ENDBRANCH   1   7
BRANCH   5  25
HETATM   25  C   UNL     1     -45.751  58.581 -60.338  1.00  0.00     0.251 C 
HETATM   26  O   UNL     1     -45.542  59.790 -60.236  1.00  0.00    -0.268 OA
HETATM   27  N   UNL     1     -46.811  58.109 -61.084  1.00  0.00    -0.355 N 
HETATM   28  H   UNL     1     -47.059  57.127 -60.975  1.00  0.00     0.162 HD
BRANCH  27  29
HETATM   29  C   UNL     1     -47.859  58.987 -61.593  1.00  0.00     0.155 C 
BRANCH  29  30
HETATM   30  C   UNL     1     -48.580  58.467 -62.863  1.00  0.00     0.203 C 
HETATM   31  C   UNL     1     -49.986  57.951 -62.571  1.00  0.00     0.036 C 
HETATM   32  C   UNL     1     -50.863  59.184 -62.707  1.00  0.00     0.029 C 
HETATM   33  C   UNL     1     -50.283  59.893 -63.913  1.00  0.00     0.233 C 
HETATM   34  N   UNL     1     -48.827  59.580 -63.852  1.00  0.00    -0.069 N 
HETATM   35  H   UNL     1     -48.286  60.426 -63.564  1.00  0.00     0.277 HD
HETATM   36  H   UNL     1     -48.443  59.353 -64.777  1.00  0.00     0.277 HD
ENDBRANCH  29  30
ENDBRANCH  27  29
ENDBRANCH   5  25
TORSDOF 7
ENDMDL
MODEL 10
REMARK VINA RESULT:      -8.2      3.056      9.066
REMARK  7 active torsions:
REMARK  status: ('A' for Active; 'I' for Inactive)
REMARK    1  A    between atoms: C_4  and  C_14 
REMARK    2  A    between atoms: C_7  and  C_8 
REMARK       I    between atoms: C_14  and  N_16 
REMARK    3  A    between atoms: N_16  and  C_17 
REMARK    4  A    between atoms: C_17  and  C_18 
REMARK    5  A    between atoms: C_22  and  C_24 
REMARK       I    between atoms: C_24  and  N_26 
REMARK    6  A    between atoms: N_26  and  C_27 
REMARK    7  A    between atoms: C_27  and  C_28 
ROOT
HETATM    1  C   UNL     1     -43.914  56.838 -52.510  1.00  0.00    -0.040 A 
HETATM    2  C   UNL     1     -43.927  56.554 -51.139  1.00  0.00     0.009 A 
HETATM    3  C   UNL     1     -43.391  55.359 -50.660  1.00  0.00     0.002 A 
HETATM    4  C   UNL     1     -42.818  54.444 -51.544  1.00  0.00     0.017 A 
HETATM    5  C   UNL     1     -42.776  54.721 -52.916  1.00  0.00     0.032 A 
HETATM    6  C   UNL     1     -43.344  55.907 -53.394  1.00  0.00     0.026 A 
ENDROOT
BRANCH   1   7
HETATM    7  C   UNL     1     -44.450  58.144 -53.039  1.00  0.00     0.161 C 
BRANCH   7   8
HETATM    8  N   UNL     1     -44.955  57.981 -54.383  1.00  0.00    -0.353 N 
HETATM    9  C   UNL     1     -44.341  58.556 -55.472  1.00  0.00     0.251 C 
HETATM   10  O   UNL     1     -43.321  59.234 -55.414  1.00  0.00    -0.268 OA
HETATM   11  H   UNL     1     -45.772  57.400 -54.515  1.00  0.00     0.163 HD
BRANCH   9  12
HETATM   12  C   UNL     1     -44.994  58.304 -56.780  1.00  0.00     0.032 A 
HETATM   13  C   UNL     1     -44.233  58.109 -57.939  1.00  0.00     0.024 A 
HETATM   14  C   UNL     1     -44.860  57.859 -59.174  1.00  0.00    -0.050 A 
HETATM   15  C   UNL     1     -43.998  57.641 -60.391  1.00  0.00     0.049 C 
HETATM   16  C   UNL     1     -46.268  57.791 -59.226  1.00  0.00    -0.017 A 
HETATM   17  C   UNL     1     -47.018  57.984 -58.053  1.00  0.00     0.014 A 
HETATM   18  C   UNL     1     -46.386  58.231 -56.833  1.00  0.00     0.018 A 
BRANCH  16  19
HETATM   19  C   UNL     1     -46.977  57.507 -60.458  1.00  0.00     0.011 A 
HETATM   20  C   UNL     1     -47.274  56.284 -61.098  1.00  0.00     0.152 A 
HETATM   21  N   UNL     1     -47.954  56.452 -62.233  1.00  0.00    -0.187 NA
HETATM   22  N   UNL     1     -48.102  57.785 -62.319  1.00  0.00    -0.289 N 
HETATM   23  H   UNL     1     -48.600  58.163 -63.119  1.00  0.00     0.188 HD
HETATM   24  C   UNL     1     -47.539  58.462 -61.276  1.00  0.00     0.123 A 
ENDBRANCH  16  19
ENDBRANCH   9  12
ENDBRANCH   7   8
ENDBRANCH   1   7
BRANCH   5  25
HETATM   25  C   UNL     1     -42.130  53.728 -53.819  1.00  0.00     0.251 C 
HETATM   26  O   UNL     1     -42.533  53.554 -54.969  1.00  0.00    -0.268 OA
HETATM   27  N   UNL     1     -41.064  53.002 -53.327  1.00  0.00    -0.355 N 
HETATM   28  H   UNL     1     -40.899  53.036 -52.324  1.00  0.00     0.162 HD
BRANCH  27  29
HETATM   29  C   UNL     1     -40.512  51.852 -54.035  1.00  0.00     0.155 C 
BRANCH  29  30
HETATM   30  C   UNL     1     -39.311  51.173 -53.327  1.00  0.00     0.203 C 
HETATM   31  C   UNL     1     -39.084  51.703 -51.915  1.00  0.00     0.036 C 
HETATM   32  C   UNL     1     -39.961  50.817 -51.047  1.00  0.00     0.029 C 
HETATM   33  C   UNL     1     -39.766  49.440 -51.646  1.00  0.00     0.233 C 
HETATM   34  N   UNL     1     -39.564  49.702 -53.100  1.00  0.00    -0.069 N 
HETATM   35  H   UNL     1     -40.409  49.408 -53.641  1.00  0.00     0.277 HD
HETATM   36  H   UNL     1     -38.813  49.125 -53.493  1.00  0.00     0.277 HD
ENDBRANCH  29  30
ENDBRANCH  27  29
ENDBRANCH   5  25
TORSDOF 7
ENDMDL
