MODEL 1
REMARK VINA RESULT:      -8.2      0.000      0.000
REMARK  8 active torsions:
REMARK  status: ('A' for Active; 'I' for Inactive)
REMARK    1  A    between atoms: O_2  and  C_3 
REMARK    2  A    between atoms: C_11  and  C_12 
REMARK       I    between atoms: C_12  and  N_13 
REMARK    3  A    between atoms: N_13  and  C_14 
REMARK    4  A    between atoms: C_14  and  C_15 
REMARK    5  A    between atoms: C_15  and  C_16 
REMARK    6  A    between atoms: C_16  and  C_17 
REMARK    7  A    between atoms: C_17  and  O_18 
REMARK    8  A    between atoms: O_18  and  C_19 
ROOT
HETATM    1  C   UNL     1     -42.104  58.438 -54.379  1.00  0.00     0.268 C 
HETATM    2  N   UNL     1     -43.226  58.598 -53.607  1.00  0.00    -0.345 N 
HETATM    3  O   UNL     1     -40.972  58.433 -53.903  1.00  0.00    -0.266 OA
HETATM    4  H   UNL     1     -44.132  58.681 -54.045  1.00  0.00     0.163 HD
ENDROOT
BRANCH   2   5
HETATM    5  C   UNL     1     -43.118  58.880 -52.203  1.00  0.00     0.217 C 
BRANCH   5   6
HETATM    6  C   UNL     1     -42.692  57.626 -51.456  1.00  0.00    -0.085 C 
BRANCH   6   7
HETATM    7  C   UNL     1     -42.327  56.550 -50.816  1.00  0.00    -0.078 C 
BRANCH   7   8
HETATM    8  C   UNL     1     -41.903  55.296 -50.071  1.00  0.00     0.269 C 
BRANCH   8   9
HETATM    9  O   UNL     1     -40.575  54.966 -50.471  1.00  0.00    -0.339 OA
BRANCH   9  10
HETATM   10  C   UNL     1     -40.433  53.950 -51.376  1.00  0.00     0.072 A 
HETATM   11  C   UNL     1     -40.049  52.637 -51.090  1.00  0.00     0.069 A 
HETATM   12  C   UNL     1     -39.930  51.678 -52.088  1.00  0.00     0.069 A 
HETATM   13  C   UNL     1     -40.207  52.051 -53.420  1.00  0.00    -0.007 A 
HETATM   14  N   UNL     1     -39.553  50.430 -51.757  1.00  0.00    -0.260 NA
HETATM   15  C   UNL     1     -40.597  53.366 -53.717  1.00  0.00     0.016 A 
HETATM   16  C   UNL     1     -40.083  51.075 -54.418  1.00  0.00     0.015 A 
HETATM   17  C   UNL     1     -40.708  54.307 -52.696  1.00  0.00     0.038 A 
HETATM   18  C   UNL     1     -39.693  49.786 -54.078  1.00  0.00     0.020 A 
HETATM   19  C   UNL     1     -39.443  49.516 -52.746  1.00  0.00     0.117 A 
ENDBRANCH   9  10
ENDBRANCH   8   9
ENDBRANCH   7   8
ENDBRANCH   6   7
ENDBRANCH   5   6
ENDBRANCH   2   5
BRANCH   1  20
HETATM   20  C   UNL     1     -42.336  58.271 -55.795  1.00  0.00     0.102 A 
HETATM   21  N   UNL     1     -42.805  57.075 -56.298  1.00  0.00    -0.351 N 
HETATM   22  C   UNL     1     -42.966  57.137 -57.661  1.00  0.00     0.045 A 
HETATM   23  H   UNL     1     -43.006  56.270 -55.719  1.00  0.00     0.166 HD
HETATM   24  C   UNL     1     -43.432  56.167 -58.562  1.00  0.00     0.067 A 
HETATM   25  C   UNL     1     -42.566  58.409 -58.058  1.00  0.00    -0.007 A 
HETATM   26  C   UNL     1     -43.488  56.512 -59.916  1.00  0.00     0.070 A 
HETATM   27  C   UNL     1     -43.075  57.778 -60.337  1.00  0.00     0.038 A 
HETATM   28  C   UNL     1     -42.615  58.737 -59.424  1.00  0.00     0.016 A 
HETATM   29  C   UNL     1     -42.178  59.114 -56.882  1.00  0.00     0.049 A 
BRANCH  26  30
HETATM   30  O   UNL     1     -43.921  55.695 -60.928  1.00  0.00    -0.356 OA
HETATM   31  C   UNL     1     -45.020  54.840 -60.635  1.00  0.00     0.210 C 
ENDBRANCH  26  30
ENDBRANCH   1  20
TORSDOF 8
ENDMDL
MODEL 2
REMARK VINA RESULT:      -8.1      5.074      8.946
REMARK  8 active torsions:
REMARK  status: ('A' for Active; 'I' for Inactive)
REMARK    1  A    between atoms: O_2  and  C_3 
REMARK    2  A    between atoms: C_11  and  C_12 
REMARK       I    between atoms: C_12  and  N_13 
REMARK    3  A    between atoms: N_13  and  C_14 
REMARK    4  A    between atoms: C_14  and  C_15 
REMARK    5  A    between atoms: C_15  and  C_16 
REMARK    6  A    between atoms: C_16  and  C_17 
REMARK    7  A    between atoms: C_17  and  O_18 
REMARK    8  A    between atoms: O_18  and  C_19 
ROOT
HETATM    1  C   UNL     1     -45.664  60.335 -50.209  1.00  0.00     0.268 C 
HETATM    2  N   UNL     1     -45.231  59.034 -50.183  1.00  0.00    -0.345 N 
HETATM    3  O   UNL     1     -46.187  60.836 -51.200  1.00  0.00    -0.266 OA
HETATM    4  H   UNL     1     -44.730  58.684 -49.380  1.00  0.00     0.163 HD
ENDROOT
BRANCH   2   5
HETATM    5  C   UNL     1     -45.274  58.222 -51.368  1.00  0.00     0.217 C 
BRANCH   5   6
HETATM    6  C   UNL     1     -43.881  57.708 -51.691  1.00  0.00    -0.085 C 
BRANCH   6   7
HETATM    7  C   UNL     1     -42.686  57.266 -51.968  1.00  0.00    -0.078 C 
BRANCH   7   8
HETATM    8  C   UNL     1     -41.292  56.753 -52.288  1.00  0.00     0.269 C 
BRANCH   8   9
HETATM    9  O   UNL     1     -41.028  55.626 -51.456  1.00  0.00    -0.339 OA
BRANCH   9  10
HETATM   10  C   UNL     1     -40.776  54.437 -52.084  1.00  0.00     0.072 A 
HETATM   11  C   UNL     1     -40.343  53.257 -51.473  1.00  0.00     0.069 A 
HETATM   12  C   UNL     1     -40.110  52.099 -52.206  1.00  0.00     0.069 A 
HETATM   13  C   UNL     1     -40.321  52.128 -53.600  1.00  0.00    -0.007 A 
HETATM   14  N   UNL     1     -39.691  50.992 -51.567  1.00  0.00    -0.260 NA
HETATM   15  C   UNL     1     -40.758  53.307 -54.222  1.00  0.00     0.016 A 
HETATM   16  C   UNL     1     -40.082  50.955 -54.328  1.00  0.00     0.015 A 
HETATM   17  C   UNL     1     -40.983  54.454 -53.463  1.00  0.00     0.038 A 
HETATM   18  C   UNL     1     -39.648  49.811 -53.670  1.00  0.00     0.020 A 
HETATM   19  C   UNL     1     -39.471  49.880 -52.302  1.00  0.00     0.117 A 
ENDBRANCH   9  10
ENDBRANCH   8   9
ENDBRANCH   7   8
ENDBRANCH   6   7
ENDBRANCH   5   6
ENDBRANCH   2   5
BRANCH   1  20
HETATM   20  C   UNL     1     -45.468  61.085 -48.989  1.00  0.00     0.102 A 
HETATM   21  N   UNL     1     -45.136  60.446 -47.813  1.00  0.00    -0.351 N 
HETATM   22  C   UNL     1     -44.986  61.343 -46.784  1.00  0.00     0.045 A 
HETATM   23  H   UNL     1     -45.016  59.443 -47.741  1.00  0.00     0.166 HD
HETATM   24  C   UNL     1     -44.637  61.129 -45.441  1.00  0.00     0.067 A 
HETATM   25  C   UNL     1     -45.253  62.604 -47.306  1.00  0.00    -0.007 A 
HETATM   26  C   UNL     1     -44.562  62.248 -44.605  1.00  0.00     0.070 A 
HETATM   27  C   UNL     1     -44.842  63.521 -45.106  1.00  0.00     0.038 A 
HETATM   28  C   UNL     1     -45.186  63.717 -46.450  1.00  0.00     0.016 A 
HETATM   29  C   UNL     1     -45.548  62.434 -48.689  1.00  0.00     0.049 A 
BRANCH  26  30
HETATM   30  O   UNL     1     -44.230  62.225 -43.275  1.00  0.00    -0.356 OA
HETATM   31  C   UNL     1     -43.799  63.451 -42.699  1.00  0.00     0.210 C 
ENDBRANCH  26  30
ENDBRANCH   1  20
TORSDOF 8
ENDMDL
MODEL 3
REMARK VINA RESULT:      -7.8      1.877      2.585
REMARK  8 active torsions:
REMARK  status: ('A' for Active; 'I' for Inactive)
REMARK    1  A    between atoms: O_2  and  C_3 
REMARK    2  A    between atoms: C_11  and  C_12 
REMARK       I    between atoms: C_12  and  N_13 
REMARK    3  A    between atoms: N_13  and  C_14 
REMARK    4  A    between atoms: C_14  and  C_15 
REMARK    5  A    between atoms: C_15  and  C_16 
REMARK    6  A    between atoms: C_16  and  C_17 
REMARK    7  A    between atoms: C_17  and  O_18 
REMARK    8  A    between atoms: O_18  and  C_19 
ROOT
HETATM    1  C   UNL     1     -43.360  59.236 -56.043  1.00  0.00     0.268 C 
HETATM    2  N   UNL     1     -42.141  59.042 -55.445  1.00  0.00    -0.345 N 
HETATM    3  O   UNL     1     -44.122  60.139 -55.709  1.00  0.00    -0.266 OA
HETATM    4  H   UNL     1     -41.581  58.239 -55.689  1.00  0.00     0.163 HD
ENDROOT
BRANCH   2   5
HETATM    5  C   UNL     1     -41.744  59.833 -54.313  1.00  0.00     0.217 C 
BRANCH   5   6
HETATM    6  C   UNL     1     -41.590  58.944 -53.091  1.00  0.00    -0.085 C 
BRANCH   6   7
HETATM    7  C   UNL     1     -41.457  58.180 -52.042  1.00  0.00    -0.078 C 
BRANCH   7   8
HETATM    8  C   UNL     1     -41.301  57.289 -50.821  1.00  0.00     0.269 C 
BRANCH   8   9
HETATM    9  O   UNL     1     -42.119  56.136 -51.002  1.00  0.00    -0.339 OA
BRANCH   9  10
HETATM   10  C   UNL     1     -41.490  54.982 -51.381  1.00  0.00     0.072 A 
HETATM   11  C   UNL     1     -41.604  54.350 -52.622  1.00  0.00     0.069 A 
HETATM   12  C   UNL     1     -40.923  53.173 -52.906  1.00  0.00     0.069 A 
HETATM   13  C   UNL     1     -40.097  52.611 -51.909  1.00  0.00    -0.007 A 
HETATM   14  N   UNL     1     -41.071  52.605 -54.117  1.00  0.00    -0.260 NA
HETATM   15  C   UNL     1     -39.974  53.241 -50.661  1.00  0.00     0.016 A 
HETATM   16  C   UNL     1     -39.416  51.424 -52.207  1.00  0.00     0.015 A 
HETATM   17  C   UNL     1     -40.670  54.420 -50.404  1.00  0.00     0.038 A 
HETATM   18  C   UNL     1     -39.569  50.836 -53.456  1.00  0.00     0.020 A 
HETATM   19  C   UNL     1     -40.400  51.460 -54.368  1.00  0.00     0.117 A 
ENDBRANCH   9  10
ENDBRANCH   8   9
ENDBRANCH   7   8
ENDBRANCH   6   7
ENDBRANCH   5   6
ENDBRANCH   2   5
BRANCH   1  20
HETATM   20  C   UNL     1     -43.694  58.307 -57.098  1.00  0.00     0.102 A 
HETATM   21  N   UNL     1     -44.912  58.377 -57.741  1.00  0.00    -0.351 N 
HETATM   22  C   UNL     1     -45.018  57.414 -58.714  1.00  0.00     0.045 A 
HETATM   23  H   UNL     1     -45.621  59.063 -57.515  1.00  0.00     0.166 HD
HETATM   24  C   UNL     1     -46.065  57.142 -59.609  1.00  0.00     0.067 A 
HETATM   25  C   UNL     1     -43.837  56.679 -58.685  1.00  0.00    -0.007 A 
HETATM   26  C   UNL     1     -45.895  56.079 -60.503  1.00  0.00     0.070 A 
HETATM   27  C   UNL     1     -44.724  55.320 -60.478  1.00  0.00     0.038 A 
HETATM   28  C   UNL     1     -43.687  55.606 -59.580  1.00  0.00     0.016 A 
HETATM   29  C   UNL     1     -43.012  57.249 -57.674  1.00  0.00     0.049 A 
BRANCH  26  30
HETATM   30  O   UNL     1     -46.808  55.681 -61.445  1.00  0.00    -0.356 OA
HETATM   31  C   UNL     1     -47.825  56.613 -61.788  1.00  0.00     0.210 C 
ENDBRANCH  26  30
ENDBRANCH   1  20
TORSDOF 8
ENDMDL
MODEL 4
REMARK VINA RESULT:      -7.8      2.236      8.444
REMARK  8 active torsions:
REMARK  status: ('A' for Active; 'I' for Inactive)
REMARK    1  A    between atoms: O_2  and  C_3 
REMARK    2  A    between atoms: C_11  and  C_12 
REMARK       I    between atoms: C_12  and  N_13 
REMARK    3  A    between atoms: N_13  and  C_14 
REMARK    4  A    between atoms: C_14  and  C_15 
REMARK    5  A    between atoms: C_15  and  C_16 
REMARK    6  A    between atoms: C_16  and  C_17 
REMARK    7  A    between atoms: C_17  and  O_18 
REMARK    8  A    between atoms: O_18  and  C_19 
ROOT
HETATM    1  C   UNL     1     -41.986  57.003 -53.217  1.00  0.00     0.268 C 
HETATM    2  N   UNL     1     -41.230  57.979 -53.814  1.00  0.00    -0.345 N 
HETATM    3  O   UNL     1     -43.051  57.243 -52.658  1.00  0.00    -0.266 OA
HETATM    4  H   UNL     1     -40.320  57.756 -54.189  1.00  0.00     0.163 HD
ENDROOT
BRANCH   2   5
HETATM    5  C   UNL     1     -41.606  59.363 -53.713  1.00  0.00     0.217 C 
BRANCH   5   6
HETATM    6  C   UNL     1     -41.979  59.898 -55.085  1.00  0.00    -0.085 C 
BRANCH   6   7
HETATM    7  C   UNL     1     -42.299  60.356 -56.264  1.00  0.00    -0.078 C 
BRANCH   7   8
HETATM    8  C   UNL     1     -42.669  60.890 -57.637  1.00  0.00     0.269 C 
BRANCH   8   9
HETATM    9  O   UNL     1     -42.006  60.098 -58.619  1.00  0.00    -0.339 OA
BRANCH   9  10
HETATM   10  C   UNL     1     -42.670  58.992 -59.076  1.00  0.00     0.072 A 
HETATM   11  C   UNL     1     -44.050  58.875 -59.258  1.00  0.00     0.069 A 
HETATM   12  C   UNL     1     -44.627  57.700 -59.725  1.00  0.00     0.069 A 
HETATM   13  C   UNL     1     -43.788  56.606 -60.021  1.00  0.00    -0.007 A 
HETATM   14  N   UNL     1     -45.963  57.642 -59.878  1.00  0.00    -0.260 NA
HETATM   15  C   UNL     1     -42.400  56.715 -59.845  1.00  0.00     0.016 A 
HETATM   16  C   UNL     1     -44.381  55.427 -60.490  1.00  0.00     0.015 A 
HETATM   17  C   UNL     1     -41.849  57.905 -59.374  1.00  0.00     0.038 A 
HETATM   18  C   UNL     1     -45.760  55.364 -60.648  1.00  0.00     0.020 A 
HETATM   19  C   UNL     1     -46.499  56.488 -60.332  1.00  0.00     0.117 A 
ENDBRANCH   9  10
ENDBRANCH   8   9
ENDBRANCH   7   8
ENDBRANCH   6   7
ENDBRANCH   5   6
ENDBRANCH   2   5
BRANCH   1  20
HETATM   20  C   UNL     1     -41.449  55.663 -53.291  1.00  0.00     0.102 A 
HETATM   21  N   UNL     1     -40.982  55.026 -52.161  1.00  0.00    -0.351 N 
HETATM   22  C   UNL     1     -40.530  53.762 -52.453  1.00  0.00     0.045 A 
HETATM   23  H   UNL     1     -40.989  55.449 -51.242  1.00  0.00     0.166 HD
HETATM   24  C   UNL     1     -39.997  52.775 -51.609  1.00  0.00     0.067 A 
HETATM   25  C   UNL     1     -40.686  53.583 -53.823  1.00  0.00    -0.007 A 
HETATM   26  C   UNL     1     -39.609  51.564 -52.192  1.00  0.00     0.070 A 
HETATM   27  C   UNL     1     -39.743  51.371 -53.568  1.00  0.00     0.038 A 
HETATM   28  C   UNL     1     -40.280  52.366 -54.396  1.00  0.00     0.016 A 
HETATM   29  C   UNL     1     -41.268  54.777 -54.339  1.00  0.00     0.049 A 
BRANCH  26  30
HETATM   30  O   UNL     1     -39.079  50.492 -51.520  1.00  0.00    -0.356 OA
HETATM   31  C   UNL     1     -39.934  49.825 -50.601  1.00  0.00     0.210 C 
ENDBRANCH  26  30
ENDBRANCH   1  20
TORSDOF 8
ENDMDL
MODEL 5
REMARK VINA RESULT:      -7.8      2.354      8.019
REMARK  8 active torsions:
REMARK  status: ('A' for Active; 'I' for Inactive)
REMARK    1  A    between atoms: O_2  and  C_3 
REMARK    2  A    between atoms: C_11  and  C_12 
REMARK       I    between atoms: C_12  and  N_13 
REMARK    3  A    between atoms: N_13  and  C_14 
REMARK    4  A    between atoms: C_14  and  C_15 
REMARK    5  A    between atoms: C_15  and  C_16 
REMARK    6  A    between atoms: C_16  and  C_17 
REMARK    7  A    between atoms: C_17  and  O_18 
REMARK    8  A    between atoms: O_18  and  C_19 
ROOT
HETATM    1  C   UNL     1     -42.616  56.846 -52.132  1.00  0.00     0.268 C 
HETATM    2  N   UNL     1     -43.985  56.770 -52.164  1.00  0.00    -0.345 N 
HETATM    3  O   UNL     1     -42.019  57.882 -51.857  1.00  0.00    -0.266 OA
HETATM    4  H   UNL     1     -44.437  55.924 -52.477  1.00  0.00     0.163 HD
ENDROOT
BRANCH   2   5
HETATM    5  C   UNL     1     -44.790  57.946 -51.978  1.00  0.00     0.217 C 
BRANCH   5   6
HETATM    6  C   UNL     1     -44.964  58.667 -53.305  1.00  0.00    -0.085 C 
BRANCH   6   7
HETATM    7  C   UNL     1     -45.114  59.286 -54.442  1.00  0.00    -0.078 C 
BRANCH   7   8
HETATM    8  C   UNL     1     -45.287  60.009 -55.767  1.00  0.00     0.269 C 
BRANCH   8   9
HETATM    9  O   UNL     1     -44.134  59.759 -56.567  1.00  0.00    -0.339 OA
BRANCH   9  10
HETATM   10  C   UNL     1     -44.157  58.641 -57.356  1.00  0.00     0.072 A 
HETATM   11  C   UNL     1     -45.166  58.285 -58.254  1.00  0.00     0.069 A 
HETATM   12  C   UNL     1     -45.094  57.119 -59.007  1.00  0.00     0.069 A 
HETATM   13  C   UNL     1     -43.968  56.283 -58.854  1.00  0.00    -0.007 A 
HETATM   14  N   UNL     1     -46.097  56.823 -59.854  1.00  0.00    -0.260 NA
HETATM   15  C   UNL     1     -42.948  56.635 -57.958  1.00  0.00     0.016 A 
HETATM   16  C   UNL     1     -43.908  55.111 -59.618  1.00  0.00     0.015 A 
HETATM   17  C   UNL     1     -43.047  57.809 -57.214  1.00  0.00     0.038 A 
HETATM   18  C   UNL     1     -44.942  54.803 -60.493  1.00  0.00     0.020 A 
HETATM   19  C   UNL     1     -46.004  55.683 -60.574  1.00  0.00     0.117 A 
ENDBRANCH   9  10
ENDBRANCH   8   9
ENDBRANCH   7   8
ENDBRANCH   6   7
ENDBRANCH   5   6
ENDBRANCH   2   5
BRANCH   1  20
HETATM   20  C   UNL     1     -41.914  55.621 -52.443  1.00  0.00     0.102 A 
HETATM   21  N   UNL     1     -41.440  54.804 -51.439  1.00  0.00    -0.351 N 
HETATM   22  C   UNL     1     -40.819  53.693 -51.953  1.00  0.00     0.045 A 
HETATM   23  H   UNL     1     -41.554  55.011 -50.455  1.00  0.00     0.166 HD
HETATM   24  C   UNL     1     -40.218  52.607 -51.296  1.00  0.00     0.067 A 
HETATM   25  C   UNL     1     -40.871  53.805 -53.338  1.00  0.00    -0.007 A 
HETATM   26  C   UNL     1     -39.651  51.603 -52.088  1.00  0.00     0.070 A 
HETATM   27  C   UNL     1     -39.679  51.705 -53.481  1.00  0.00     0.038 A 
HETATM   28  C   UNL     1     -40.284  52.795 -54.121  1.00  0.00     0.016 A 
HETATM   29  C   UNL     1     -41.564  55.013 -53.637  1.00  0.00     0.049 A 
BRANCH  26  30
HETATM   30  O   UNL     1     -39.033  50.473 -51.617  1.00  0.00    -0.356 OA
HETATM   31  C   UNL     1     -39.794  49.638 -50.754  1.00  0.00     0.210 C 
ENDBRANCH  26  30
ENDBRANCH   1  20
TORSDOF 8
ENDMDL
MODEL 6
REMARK VINA RESULT:      -7.8      2.484      7.875
REMARK  8 active torsions:
REMARK  status: ('A' for Active; 'I' for Inactive)
REMARK    1  A    between atoms: O_2  and  C_3 
REMARK    2  A    between atoms: C_11  and  C_12 
REMARK       I    between atoms: C_12  and  N_13 
REMARK    3  A    between atoms: N_13  and  C_14 
REMARK    4  A    between atoms: C_14  and  C_15 
REMARK    5  A    between atoms: C_15  and  C_16 
REMARK    6  A    between atoms: C_16  and  C_17 
REMARK    7  A    between atoms: C_17  and  O_18 
REMARK    8  A    between atoms: O_18  and  C_19 
ROOT
HETATM    1  C   UNL     1     -42.563  54.616 -55.814  1.00  0.00     0.268 C 
HETATM    2  N   UNL     1     -42.025  55.792 -56.271  1.00  0.00    -0.345 N 
HETATM    3  O   UNL     1     -43.542  54.092 -56.337  1.00  0.00    -0.266 OA
HETATM    4  H   UNL     1     -41.275  56.235 -55.764  1.00  0.00     0.163 HD
ENDROOT
BRANCH   2   5
HETATM    5  C   UNL     1     -42.659  56.526 -57.331  1.00  0.00     0.217 C 
BRANCH   5   6
HETATM    6  C   UNL     1     -43.469  57.674 -56.752  1.00  0.00    -0.085 C 
BRANCH   6   7
HETATM    7  C   UNL     1     -44.164  58.659 -56.255  1.00  0.00    -0.078 C 
BRANCH   7   8
HETATM    8  C   UNL     1     -44.973  59.808 -55.678  1.00  0.00     0.269 C 
BRANCH   8   9
HETATM    9  O   UNL     1     -45.384  59.448 -54.361  1.00  0.00    -0.339 OA
BRANCH   9  10
HETATM   10  C   UNL     1     -44.410  59.012 -53.504  1.00  0.00     0.072 A 
HETATM   11  C   UNL     1     -43.184  59.637 -53.263  1.00  0.00     0.069 A 
HETATM   12  C   UNL     1     -42.258  59.106 -52.373  1.00  0.00     0.069 A 
HETATM   13  C   UNL     1     -42.575  57.907 -51.701  1.00  0.00    -0.007 A 
HETATM   14  N   UNL     1     -41.090  59.747 -52.181  1.00  0.00    -0.260 NA
HETATM   15  C   UNL     1     -43.806  57.275 -51.935  1.00  0.00     0.016 A 
HETATM   16  C   UNL     1     -41.634  57.381 -50.807  1.00  0.00     0.015 A 
HETATM   17  C   UNL     1     -44.715  57.829 -52.833  1.00  0.00     0.038 A 
HETATM   18  C   UNL     1     -40.428  58.042 -50.608  1.00  0.00     0.020 A 
HETATM   19  C   UNL     1     -40.206  59.210 -51.312  1.00  0.00     0.117 A 
ENDBRANCH   9  10
ENDBRANCH   8   9
ENDBRANCH   7   8
ENDBRANCH   6   7
ENDBRANCH   5   6
ENDBRANCH   2   5
BRANCH   1  20
HETATM   20  C   UNL     1     -41.901  54.028 -54.672  1.00  0.00     0.102 A 
HETATM   21  N   UNL     1     -42.243  54.399 -53.389  1.00  0.00    -0.351 N 
HETATM   22  C   UNL     1     -41.503  53.712 -52.458  1.00  0.00     0.045 A 
HETATM   23  H   UNL     1     -42.956  55.087 -53.181  1.00  0.00     0.166 HD
HETATM   24  C   UNL     1     -41.539  53.765 -51.055  1.00  0.00     0.067 A 
HETATM   25  C   UNL     1     -40.636  52.883 -53.162  1.00  0.00    -0.007 A 
HETATM   26  C   UNL     1     -40.653  52.941 -50.352  1.00  0.00     0.070 A 
HETATM   27  C   UNL     1     -39.763  52.114 -51.042  1.00  0.00     0.038 A 
HETATM   28  C   UNL     1     -39.742  52.072 -52.442  1.00  0.00     0.016 A 
HETATM   29  C   UNL     1     -40.896  53.084 -54.549  1.00  0.00     0.049 A 
BRANCH  26  30
HETATM   30  O   UNL     1     -40.557  52.860 -48.987  1.00  0.00    -0.356 OA
HETATM   31  C   UNL     1     -40.315  54.074 -48.288  1.00  0.00     0.210 C 
ENDBRANCH  26  30
ENDBRANCH   1  20
TORSDOF 8
ENDMDL
MODEL 7
REMARK VINA RESULT:      -7.8      2.211      5.053
REMARK  8 active torsions:
REMARK  status: ('A' for Active; 'I' for Inactive)
REMARK    1  A    between atoms: O_2  and  C_3 
REMARK    2  A    between atoms: C_11  and  C_12 
REMARK       I    between atoms: C_12  and  N_13 
REMARK    3  A    between atoms: N_13  and  C_14 
REMARK    4  A    between atoms: C_14  and  C_15 
REMARK    5  A    between atoms: C_15  and  C_16 
REMARK    6  A    between atoms: C_16  and  C_17 
REMARK    7  A    between atoms: C_17  and  O_18 
REMARK    8  A    between atoms: O_18  and  C_19 
ROOT
HETATM    1  C   UNL     1     -40.925  54.451 -54.987  1.00  0.00     0.268 C 
HETATM    2  N   UNL     1     -41.402  53.323 -54.370  1.00  0.00    -0.345 N 
HETATM    3  O   UNL     1     -39.726  54.695 -55.079  1.00  0.00    -0.266 OA
HETATM    4  H   UNL     1     -42.395  53.200 -54.240  1.00  0.00     0.163 HD
ENDROOT
BRANCH   2   5
HETATM    5  C   UNL     1     -40.508  52.419 -53.700  1.00  0.00     0.217 C 
BRANCH   5   6
HETATM    6  C   UNL     1     -40.434  52.768 -52.222  1.00  0.00    -0.085 C 
BRANCH   6   7
HETATM    7  C   UNL     1     -40.372  53.066 -50.954  1.00  0.00    -0.078 C 
BRANCH   7   8
HETATM    8  C   UNL     1     -40.301  53.414 -49.477  1.00  0.00     0.269 C 
BRANCH   8   9
HETATM    9  O   UNL     1     -41.522  54.049 -49.108  1.00  0.00    -0.339 OA
BRANCH   9  10
HETATM   10  C   UNL     1     -41.889  55.154 -49.826  1.00  0.00     0.072 A 
HETATM   11  C   UNL     1     -41.117  56.301 -50.030  1.00  0.00     0.069 A 
HETATM   12  C   UNL     1     -41.588  57.375 -50.775  1.00  0.00     0.069 A 
HETATM   13  C   UNL     1     -42.879  57.294 -51.337  1.00  0.00    -0.007 A 
HETATM   14  N   UNL     1     -40.802  58.456 -50.936  1.00  0.00    -0.260 NA
HETATM   15  C   UNL     1     -43.661  56.145 -51.141  1.00  0.00     0.016 A 
HETATM   16  C   UNL     1     -43.343  58.383 -52.086  1.00  0.00     0.015 A 
HETATM   17  C   UNL     1     -43.163  55.083 -50.388  1.00  0.00     0.038 A 
HETATM   18  C   UNL     1     -42.534  59.500 -52.252  1.00  0.00     0.020 A 
HETATM   19  C   UNL     1     -41.284  59.487 -51.664  1.00  0.00     0.117 A 
ENDBRANCH   9  10
ENDBRANCH   8   9
ENDBRANCH   7   8
ENDBRANCH   6   7
ENDBRANCH   5   6
ENDBRANCH   2   5
BRANCH   1  20
HETATM   20  C   UNL     1     -41.928  55.340 -55.529  1.00  0.00     0.102 A 
HETATM   21  N   UNL     1     -42.183  55.375 -56.883  1.00  0.00    -0.351 N 
HETATM   22  C   UNL     1     -43.177  56.276 -57.179  1.00  0.00     0.045 A 
HETATM   23  H   UNL     1     -41.695  54.798 -57.555  1.00  0.00     0.166 HD
HETATM   24  C   UNL     1     -43.755  56.612 -58.414  1.00  0.00     0.067 A 
HETATM   25  C   UNL     1     -43.563  56.862 -55.978  1.00  0.00    -0.007 A 
HETATM   26  C   UNL     1     -44.762  57.583 -58.416  1.00  0.00     0.070 A 
HETATM   27  C   UNL     1     -45.152  58.194 -57.222  1.00  0.00     0.038 A 
HETATM   28  C   UNL     1     -44.567  57.845 -55.998  1.00  0.00     0.016 A 
HETATM   29  C   UNL     1     -42.779  56.265 -54.949  1.00  0.00     0.049 A 
BRANCH  26  30
HETATM   30  O   UNL     1     -45.437  58.025 -59.524  1.00  0.00    -0.356 OA
HETATM   31  C   UNL     1     -46.674  57.388 -59.818  1.00  0.00     0.210 C 
ENDBRANCH  26  30
ENDBRANCH   1  20
TORSDOF 8
ENDMDL
MODEL 8
REMARK VINA RESULT:      -7.7     15.113     20.080
REMARK  8 active torsions:
REMARK  status: ('A' for Active; 'I' for Inactive)
REMARK    1  A    between atoms: O_2  and  C_3 
REMARK    2  A    between atoms: C_11  and  C_12 
REMARK       I    between atoms: C_12  and  N_13 
REMARK    3  A    between atoms: N_13  and  C_14 
REMARK    4  A    between atoms: C_14  and  C_15 
REMARK    5  A    between atoms: C_15  and  C_16 
REMARK    6  A    between atoms: C_16  and  C_17 
REMARK    7  A    between atoms: C_17  and  O_18 
REMARK    8  A    between atoms: O_18  and  C_19 
ROOT
HETATM    1  C   UNL     1     -32.267  38.885 -49.756  1.00  0.00     0.268 C 
HETATM    2  N   UNL     1     -31.656  39.741 -50.636  1.00  0.00    -0.345 N 
HETATM    3  O   UNL     1     -33.115  38.071 -50.110  1.00  0.00    -0.266 OA
HETATM    4  H   UNL     1     -31.027  40.452 -50.294  1.00  0.00     0.163 HD
ENDROOT
BRANCH   2   5
HETATM    5  C   UNL     1     -32.067  39.797 -52.012  1.00  0.00     0.217 C 
BRANCH   5   6
HETATM    6  C   UNL     1     -33.425  40.471 -52.117  1.00  0.00    -0.085 C 
BRANCH   6   7
HETATM    7  C   UNL     1     -34.591  41.048 -52.208  1.00  0.00    -0.078 C 
BRANCH   7   8
HETATM    8  C   UNL     1     -35.949  41.720 -52.315  1.00  0.00     0.269 C 
BRANCH   8   9
HETATM    9  O   UNL     1     -35.873  42.723 -53.325  1.00  0.00    -0.339 OA
BRANCH   9  10
HETATM   10  C   UNL     1     -36.083  42.322 -54.616  1.00  0.00     0.072 A 
HETATM   11  C   UNL     1     -37.188  41.609 -55.089  1.00  0.00     0.069 A 
HETATM   12  C   UNL     1     -37.302  41.244 -56.425  1.00  0.00     0.069 A 
HETATM   13  C   UNL     1     -36.272  41.609 -57.317  1.00  0.00    -0.007 A 
HETATM   14  N   UNL     1     -38.386  40.555 -56.826  1.00  0.00    -0.260 NA
HETATM   15  C   UNL     1     -35.161  42.328 -56.851  1.00  0.00     0.016 A 
HETATM   16  C   UNL     1     -36.398  41.235 -58.661  1.00  0.00     0.015 A 
HETATM   17  C   UNL     1     -35.071  42.680 -55.506  1.00  0.00     0.038 A 
HETATM   18  C   UNL     1     -37.516  40.523 -59.076  1.00  0.00     0.020 A 
HETATM   19  C   UNL     1     -38.473  40.210 -58.129  1.00  0.00     0.117 A 
ENDBRANCH   9  10
ENDBRANCH   8   9
ENDBRANCH   7   8
ENDBRANCH   6   7
ENDBRANCH   5   6
ENDBRANCH   2   5
BRANCH   1  20
HETATM   20  C   UNL     1     -31.846  38.998 -48.378  1.00  0.00     0.102 A 
HETATM   21  N   UNL     1     -30.936  39.960 -47.994  1.00  0.00    -0.351 N 
HETATM   22  C   UNL     1     -30.687  39.900 -46.645  1.00  0.00     0.045 A 
HETATM   23  H   UNL     1     -30.523  40.622 -48.638  1.00  0.00     0.166 HD
HETATM   24  C   UNL     1     -29.853  40.693 -45.842  1.00  0.00     0.067 A 
HETATM   25  C   UNL     1     -31.444  38.847 -46.141  1.00  0.00    -0.007 A 
HETATM   26  C   UNL     1     -29.791  40.396 -44.477  1.00  0.00     0.070 A 
HETATM   27  C   UNL     1     -30.531  39.333 -43.954  1.00  0.00     0.038 A 
HETATM   28  C   UNL     1     -31.362  38.551 -44.769  1.00  0.00     0.016 A 
HETATM   29  C   UNL     1     -32.171  38.291 -47.233  1.00  0.00     0.049 A 
BRANCH  26  30
HETATM   30  O   UNL     1     -29.038  41.069 -43.550  1.00  0.00    -0.356 OA
HETATM   31  C   UNL     1     -28.218  40.282 -42.696  1.00  0.00     0.210 C 
ENDBRANCH  26  30
ENDBRANCH   1  20
TORSDOF 8
ENDMDL
MODEL 9
REMARK VINA RESULT:      -7.7      3.580      5.075
REMARK  8 active torsions:
REMARK  status: ('A' for Active; 'I' for Inactive)
REMARK    1  A    between atoms: O_2  and  C_3 
REMARK    2  A    between atoms: C_11  and  C_12 
REMARK       I    between atoms: C_12  and  N_13 
REMARK    3  A    between atoms: N_13  and  C_14 
REMARK    4  A    between atoms: C_14  and  C_15 
REMARK    5  A    between atoms: C_15  and  C_16 
REMARK    6  A    between atoms: C_16  and  C_17 
REMARK    7  A    between atoms: C_17  and  O_18 
REMARK    8  A    between atoms: O_18  and  C_19 
ROOT
HETATM    1  C   UNL     1     -44.681  55.733 -59.675  1.00  0.00     0.268 C 
HETATM    2  N   UNL     1     -44.054  56.195 -58.547  1.00  0.00    -0.345 N 
HETATM    3  O   UNL     1     -44.363  54.681 -60.222  1.00  0.00    -0.266 OA
HETATM    4  H   UNL     1     -44.286  57.104 -58.176  1.00  0.00     0.163 HD
ENDROOT
BRANCH   2   5
HETATM    5  C   UNL     1     -42.908  55.512 -58.012  1.00  0.00     0.217 C 
BRANCH   5   6
HETATM    6  C   UNL     1     -42.915  55.603 -56.495  1.00  0.00    -0.085 C 
BRANCH   6   7
HETATM    7  C   UNL     1     -42.919  55.683 -55.193  1.00  0.00    -0.078 C 
BRANCH   7   8
HETATM    8  C   UNL     1     -42.927  55.775 -53.677  1.00  0.00     0.269 C 
BRANCH   8   9
HETATM    9  O   UNL     1     -41.580  55.691 -53.217  1.00  0.00    -0.339 OA
BRANCH   9  10
HETATM   10  C   UNL     1     -41.092  54.441 -52.951  1.00  0.00     0.072 A 
HETATM   11  C   UNL     1     -40.970  53.392 -53.866  1.00  0.00     0.069 A 
HETATM   12  C   UNL     1     -40.464  52.153 -53.491  1.00  0.00     0.069 A 
HETATM   13  C   UNL     1     -40.065  51.962 -52.151  1.00  0.00    -0.007 A 
HETATM   14  N   UNL     1     -40.371  51.176 -54.412  1.00  0.00    -0.260 NA
HETATM   15  C   UNL     1     -40.181  53.011 -51.227  1.00  0.00     0.016 A 
HETATM   16  C   UNL     1     -39.557  50.709 -51.785  1.00  0.00     0.015 A 
HETATM   17  C   UNL     1     -40.693  54.243 -51.630  1.00  0.00     0.038 A 
HETATM   18  C   UNL     1     -39.462  49.700 -52.735  1.00  0.00     0.020 A 
HETATM   19  C   UNL     1     -39.878  49.981 -54.022  1.00  0.00     0.117 A 
ENDBRANCH   9  10
ENDBRANCH   8   9
ENDBRANCH   7   8
ENDBRANCH   6   7
ENDBRANCH   5   6
ENDBRANCH   2   5
BRANCH   1  20
HETATM   20  C   UNL     1     -45.749  56.564 -60.182  1.00  0.00     0.102 A 
HETATM   21  N   UNL     1     -46.613  56.093 -61.148  1.00  0.00    -0.351 N 
HETATM   22  C   UNL     1     -47.556  57.036 -61.476  1.00  0.00     0.045 A 
HETATM   23  H   UNL     1     -46.549  55.164 -61.545  1.00  0.00     0.166 HD
HETATM   24  C   UNL     1     -48.623  56.971 -62.386  1.00  0.00     0.067 A 
HETATM   25  C   UNL     1     -47.279  58.166 -60.714  1.00  0.00    -0.007 A 
HETATM   26  C   UNL     1     -49.432  58.104 -62.519  1.00  0.00     0.070 A 
HETATM   27  C   UNL     1     -49.161  59.254 -61.774  1.00  0.00     0.038 A 
HETATM   28  C   UNL     1     -48.093  59.301 -60.868  1.00  0.00     0.016 A 
HETATM   29  C   UNL     1     -46.149  57.859 -59.902  1.00  0.00     0.049 A 
BRANCH  26  30
HETATM   30  O   UNL     1     -50.517  58.212 -63.351  1.00  0.00    -0.356 OA
HETATM   31  C   UNL     1     -51.523  59.144 -62.975  1.00  0.00     0.210 C 
ENDBRANCH  26  30
ENDBRANCH   1  20
TORSDOF 8
ENDMDL
MODEL 10
REMARK VINA RESULT:      -7.6     15.036     17.044
REMARK  8 active torsions:
REMARK  status: ('A' for Active; 'I' for Inactive)
REMARK    1  A    between atoms: O_2  and  C_3 
REMARK    2  A    between atoms: C_11  and  C_12 
REMARK       I    between atoms: C_12  and  N_13 
REMARK    3  A    between atoms: N_13  and  C_14 
REMARK    4  A    between atoms: C_14  and  C_15 
REMARK    5  A    between atoms: C_15  and  C_16 
REMARK    6  A    between atoms: C_16  and  C_17 
REMARK    7  A    between atoms: C_17  and  O_18 
REMARK    8  A    between atoms: O_18  and  C_19 
ROOT
HETATM    1  C   UNL     1     -36.295  41.608 -53.288  1.00  0.00     0.268 C 
HETATM    2  N   UNL     1     -36.605  40.507 -52.532  1.00  0.00    -0.345 N 
HETATM    3  O   UNL     1     -35.866  42.647 -52.796  1.00  0.00    -0.266 OA
HETATM    4  H   UNL     1     -37.035  39.703 -52.963  1.00  0.00     0.163 HD
ENDROOT
BRANCH   2   5
HETATM    5  C   UNL     1     -36.541  40.561 -51.097  1.00  0.00     0.217 C 
BRANCH   5   6
HETATM    6  C   UNL     1     -35.143  40.195 -50.628  1.00  0.00    -0.085 C 
BRANCH   6   7
HETATM    7  C   UNL     1     -33.942  39.883 -50.226  1.00  0.00    -0.078 C 
BRANCH   7   8
HETATM    8  C   UNL     1     -32.543  39.520 -49.758  1.00  0.00     0.269 C 
BRANCH   8   9
HETATM    9  O   UNL     1     -31.617  39.916 -50.766  1.00  0.00    -0.339 OA
BRANCH   9  10
HETATM   10  C   UNL     1     -31.917  39.569 -52.056  1.00  0.00     0.072 A 
HETATM   11  C   UNL     1     -32.283  40.444 -53.082  1.00  0.00     0.069 A 
HETATM   12  C   UNL     1     -32.574  39.986 -54.361  1.00  0.00     0.069 A 
HETATM   13  C   UNL     1     -32.492  38.601 -54.619  1.00  0.00    -0.007 A 
HETATM   14  N   UNL     1     -32.924  40.872 -55.311  1.00  0.00    -0.260 NA
HETATM   15  C   UNL     1     -32.121  37.716 -53.596  1.00  0.00     0.016 A 
HETATM   16  C   UNL     1     -32.788  38.152 -55.912  1.00  0.00     0.015 A 
HETATM   17  C   UNL     1     -31.836  38.203 -52.321  1.00  0.00     0.038 A 
HETATM   18  C   UNL     1     -33.151  39.066 -56.894  1.00  0.00     0.020 A 
HETATM   19  C   UNL     1     -33.203  40.402 -56.546  1.00  0.00     0.117 A 
ENDBRANCH   9  10
ENDBRANCH   8   9
ENDBRANCH   7   8
ENDBRANCH   6   7
ENDBRANCH   5   6
ENDBRANCH   2   5
BRANCH   1  20
HETATM   20  C   UNL     1     -36.504  41.469 -54.711  1.00  0.00     0.102 A 
HETATM   21  N   UNL     1     -36.871  40.256 -55.256  1.00  0.00    -0.351 N 
HETATM   22  C   UNL     1     -37.028  40.349 -56.617  1.00  0.00     0.045 A 
HETATM   23  H   UNL     1     -37.010  39.419 -54.704  1.00  0.00     0.166 HD
HETATM   24  C   UNL     1     -37.408  39.373 -57.553  1.00  0.00     0.067 A 
HETATM   25  C   UNL     1     -36.729  41.661 -56.970  1.00  0.00    -0.007 A 
HETATM   26  C   UNL     1     -37.483  39.757 -58.896  1.00  0.00     0.070 A 
HETATM   27  C   UNL     1     -37.171  41.065 -59.273  1.00  0.00     0.038 A 
HETATM   28  C   UNL     1     -36.796  42.027 -58.326  1.00  0.00     0.016 A 
HETATM   29  C   UNL     1     -36.408  42.356 -55.769  1.00  0.00     0.049 A 
BRANCH  26  30
HETATM   30  O   UNL     1     -37.842  38.940 -59.937  1.00  0.00    -0.356 OA
HETATM   31  C   UNL     1     -37.535  39.398 -61.247  1.00  0.00     0.210 C 
ENDBRANCH  26  30
ENDBRANCH   1  20
TORSDOF 8
ENDMDL
