MODEL 1
REMARK VINA RESULT:      -8.1      0.000      0.000
REMARK  3 active torsions:
REMARK  status: ('A' for Active; 'I' for Inactive)
REMARK    1  A    between atoms: C_6  and  N_7 
REMARK       I    between atoms: N_7  and  C_8 
REMARK    2  A    between atoms: C_8  and  C_9 
REMARK    3  A    between atoms: C_9  and  C_10 
ROOT
HETATM    1  C   UNL     1     -41.651  57.286 -51.368  1.00  0.00     0.286 C 
HETATM    2  N   UNL     1     -42.926  56.965 -52.163  1.00  0.00    -0.056 N 
HETATM    3  H   UNL     1     -42.634  56.745 -53.125  1.00  0.00     0.278 HD
HETATM    4  H   UNL     1     -43.315  56.054 -51.834  1.00  0.00     0.278 HD
HETATM    5  C   UNL     1     -44.000  58.002 -52.221  1.00  0.00     0.209 C 
HETATM    6  C   UNL     1     -43.364  59.391 -52.445  1.00  0.00     0.115 C 
HETATM    7  N   UNL     1     -42.341  59.676 -51.445  1.00  0.00    -0.353 N 
HETATM    8  C   UNL     1     -41.469  58.749 -50.946  1.00  0.00     0.249 C 
HETATM    9  O   UNL     1     -40.563  59.101 -50.198  1.00  0.00    -0.271 OA
HETATM   10  C   UNL     1     -44.862  57.940 -50.959  1.00  0.00     0.035 C 
HETATM   11  C   UNL     1     -45.927  59.036 -50.981  1.00  0.00     0.002 C 
HETATM   12  C   UNL     1     -45.318  60.421 -51.194  1.00  0.00     0.002 C 
HETATM   13  C   UNL     1     -44.443  60.476 -52.446  1.00  0.00     0.027 C 
HETATM   14  H   UNL     1     -42.111  60.641 -51.214  1.00  0.00     0.163 HD
ENDROOT
BRANCH   1  15
HETATM   15  C   UNL     1     -41.506  56.355 -50.157  1.00  0.00     0.146 C 
BRANCH  15  16
HETATM   16  C   UNL     1     -41.692  54.954 -50.679  1.00  0.00     0.224 C 
HETATM   17  N   UNL     1     -40.604  54.464 -51.351  1.00  0.00    -0.327 N 
HETATM   18  H   UNL     1     -39.730  54.958 -51.193  1.00  0.00     0.169 HD
HETATM   19  O   UNL     1     -42.832  54.503 -50.600  1.00  0.00    -0.273 OA
BRANCH  17  20
HETATM   20  C   UNL     1     -40.465  53.376 -52.253  1.00  0.00     0.040 A 
HETATM   21  C   UNL     1     -40.863  53.290 -53.599  1.00  0.00    -0.035 A 
HETATM   22  C   UNL     1     -40.559  52.111 -54.325  1.00  0.00     0.015 A 
HETATM   23  C   UNL     1     -41.608  54.339 -54.371  1.00  0.00     0.050 C 
HETATM   24  C   UNL     1     -39.893  51.025 -53.748  1.00  0.00    -0.061 A 
HETATM   25  C   UNL     1     -39.572  49.801 -54.551  1.00  0.00     0.048 C 
HETATM   26  C   UNL     1     -39.503  51.118 -52.419  1.00  0.00     0.009 A 
HETATM   27  C   UNL     1     -39.792  52.271 -51.686  1.00  0.00     0.030 A 
ENDBRANCH  17  20
ENDBRANCH  15  16
ENDBRANCH   1  15
TORSDOF 3
ENDMDL
MODEL 2
REMARK VINA RESULT:      -8.1      2.040      3.131
REMARK  3 active torsions:
REMARK  status: ('A' for Active; 'I' for Inactive)
REMARK    1  A    between atoms: C_6  and  N_7 
REMARK       I    between atoms: N_7  and  C_8 
REMARK    2  A    between atoms: C_8  and  C_9 
REMARK    3  A    between atoms: C_9  and  C_10 
ROOT
HETATM    1  C   UNL     1     -42.735  57.700 -54.206  1.00  0.00     0.286 C 
HETATM    2  N   UNL     1     -43.104  57.174 -52.809  1.00  0.00    -0.056 N 
HETATM    3  H   UNL     1     -44.131  57.129 -52.767  1.00  0.00     0.278 HD
HETATM    4  H   UNL     1     -42.832  56.170 -52.738  1.00  0.00     0.278 HD
HETATM    5  C   UNL     1     -42.615  57.935 -51.619  1.00  0.00     0.209 C 
HETATM    6  C   UNL     1     -42.787  59.449 -51.868  1.00  0.00     0.115 C 
HETATM    7  N   UNL     1     -42.151  59.859 -53.115  1.00  0.00    -0.353 N 
HETATM    8  C   UNL     1     -42.144  59.113 -54.260  1.00  0.00     0.249 C 
HETATM    9  O   UNL     1     -41.690  59.588 -55.297  1.00  0.00    -0.271 OA
HETATM   10  C   UNL     1     -41.171  57.545 -51.301  1.00  0.00     0.035 C 
HETATM   11  C   UNL     1     -40.642  58.360 -50.122  1.00  0.00     0.002 C 
HETATM   12  C   UNL     1     -40.795  59.863 -50.350  1.00  0.00     0.002 C 
HETATM   13  C   UNL     1     -42.236  60.248 -50.685  1.00  0.00     0.027 C 
HETATM   14  H   UNL     1     -41.842  60.822 -53.235  1.00  0.00     0.163 HD
ENDROOT
BRANCH   1  15
HETATM   15  C   UNL     1     -41.827  56.708 -54.946  1.00  0.00     0.146 C 
BRANCH  15  16
HETATM   16  C   UNL     1     -41.978  55.389 -54.235  1.00  0.00     0.224 C 
HETATM   17  N   UNL     1     -40.806  54.897 -53.725  1.00  0.00    -0.327 N 
HETATM   18  H   UNL     1     -40.048  55.569 -53.637  1.00  0.00     0.169 HD
HETATM   19  O   UNL     1     -43.070  54.841 -54.355  1.00  0.00    -0.273 OA
BRANCH  17  20
HETATM   20  C   UNL     1     -40.438  53.595 -53.294  1.00  0.00     0.040 A 
HETATM   21  C   UNL     1     -40.220  53.128 -51.986  1.00  0.00    -0.035 A 
HETATM   22  C   UNL     1     -39.918  51.756 -51.794  1.00  0.00     0.015 A 
HETATM   23  C   UNL     1     -40.265  53.952 -50.732  1.00  0.00     0.050 C 
HETATM   24  C   UNL     1     -39.811  50.856 -52.858  1.00  0.00    -0.061 A 
HETATM   25  C   UNL     1     -39.508  49.408 -52.616  1.00  0.00     0.048 C 
HETATM   26  C   UNL     1     -40.028  51.325 -54.147  1.00  0.00     0.009 A 
HETATM   27  C   UNL     1     -40.327  52.671 -54.357  1.00  0.00     0.030 A 
ENDBRANCH  17  20
ENDBRANCH  15  16
ENDBRANCH   1  15
TORSDOF 3
ENDMDL
MODEL 3
REMARK VINA RESULT:      -7.8      2.839      3.443
REMARK  3 active torsions:
REMARK  status: ('A' for Active; 'I' for Inactive)
REMARK    1  A    between atoms: C_6  and  N_7 
REMARK       I    between atoms: N_7  and  C_8 
REMARK    2  A    between atoms: C_8  and  C_9 
REMARK    3  A    between atoms: C_9  and  C_10 
ROOT
HETATM    1  C   UNL     1     -41.640  57.677 -54.048  1.00  0.00     0.286 C 
HETATM    2  N   UNL     1     -42.302  56.846 -55.159  1.00  0.00    -0.056 N 
HETATM    3  H   UNL     1     -41.549  56.348 -55.651  1.00  0.00     0.278 HD
HETATM    4  H   UNL     1     -42.842  56.066 -54.726  1.00  0.00     0.278 HD
HETATM    5  C   UNL     1     -43.136  57.562 -56.171  1.00  0.00     0.209 C 
HETATM    6  C   UNL     1     -42.425  58.865 -56.597  1.00  0.00     0.115 C 
HETATM    7  N   UNL     1     -42.087  59.689 -55.443  1.00  0.00    -0.353 N 
HETATM    8  C   UNL     1     -41.655  59.198 -54.243  1.00  0.00     0.249 C 
HETATM    9  O   UNL     1     -41.278  59.969 -53.366  1.00  0.00    -0.271 OA
HETATM   10  C   UNL     1     -44.542  57.806 -55.620  1.00  0.00     0.035 C 
HETATM   11  C   UNL     1     -45.385  58.590 -56.625  1.00  0.00     0.002 C 
HETATM   12  C   UNL     1     -44.703  59.887 -57.055  1.00  0.00     0.002 C 
HETATM   13  C   UNL     1     -43.292  59.643 -57.590  1.00  0.00     0.027 C 
HETATM   14  H   UNL     1     -41.979  60.696 -55.552  1.00  0.00     0.163 HD
ENDROOT
BRANCH   1  15
HETATM   15  C   UNL     1     -42.203  57.306 -52.670  1.00  0.00     0.146 C 
BRANCH  15  16
HETATM   16  C   UNL     1     -42.243  55.800 -52.624  1.00  0.00     0.224 C 
HETATM   17  N   UNL     1     -41.010  55.217 -52.511  1.00  0.00    -0.327 N 
HETATM   18  H   UNL     1     -40.260  55.829 -52.201  1.00  0.00     0.169 HD
HETATM   19  O   UNL     1     -43.332  55.289 -52.872  1.00  0.00    -0.273 OA
BRANCH  17  20
HETATM   20  C   UNL     1     -40.568  53.889 -52.756  1.00  0.00     0.040 A 
HETATM   21  C   UNL     1     -40.174  52.905 -51.832  1.00  0.00    -0.035 A 
HETATM   22  C   UNL     1     -39.828  51.618 -52.313  1.00  0.00     0.015 A 
HETATM   23  C   UNL     1     -40.066  53.080 -50.345  1.00  0.00     0.050 C 
HETATM   24  C   UNL     1     -39.849  51.296 -53.673  1.00  0.00    -0.061 A 
HETATM   25  C   UNL     1     -39.494  49.918 -54.145  1.00  0.00     0.048 C 
HETATM   26  C   UNL     1     -40.240  52.272 -54.580  1.00  0.00     0.009 A 
HETATM   27  C   UNL     1     -40.585  53.546 -54.126  1.00  0.00     0.030 A 
ENDBRANCH  17  20
ENDBRANCH  15  16
ENDBRANCH   1  15
TORSDOF 3
ENDMDL
MODEL 4
REMARK VINA RESULT:      -7.8      1.481      1.822
REMARK  3 active torsions:
REMARK  status: ('A' for Active; 'I' for Inactive)
REMARK    1  A    between atoms: C_6  and  N_7 
REMARK       I    between atoms: N_7  and  C_8 
REMARK    2  A    between atoms: C_8  and  C_9 
REMARK    3  A    between atoms: C_9  and  C_10 
ROOT
HETATM    1  C   UNL     1     -43.271  57.211 -51.687  1.00  0.00     0.286 C 
HETATM    2  N   UNL     1     -44.229  58.098 -50.875  1.00  0.00    -0.056 N 
HETATM    3  H   UNL     1     -45.170  57.693 -50.975  1.00  0.00     0.278 HD
HETATM    4  H   UNL     1     -44.036  57.969 -49.858  1.00  0.00     0.278 HD
HETATM    5  C   UNL     1     -44.302  59.551 -51.215  1.00  0.00     0.209 C 
HETATM    6  C   UNL     1     -44.317  59.722 -52.749  1.00  0.00     0.115 C 
HETATM    7  N   UNL     1     -43.188  59.041 -53.372  1.00  0.00    -0.353 N 
HETATM    8  C   UNL     1     -42.690  57.836 -52.961  1.00  0.00     0.249 C 
HETATM    9  O   UNL     1     -41.816  57.279 -53.617  1.00  0.00    -0.271 OA
HETATM   10  C   UNL     1     -43.155  60.308 -50.544  1.00  0.00     0.035 C 
HETATM   11  C   UNL     1     -43.185  61.785 -50.933  1.00  0.00     0.002 C 
HETATM   12  C   UNL     1     -43.193  61.979 -52.448  1.00  0.00     0.002 C 
HETATM   13  C   UNL     1     -44.330  61.207 -53.118  1.00  0.00     0.027 C 
HETATM   14  H   UNL     1     -42.839  59.357 -54.275  1.00  0.00     0.163 HD
ENDROOT
BRANCH   1  15
HETATM   15  C   UNL     1     -42.149  56.655 -50.801  1.00  0.00     0.146 C 
BRANCH  15  16
HETATM   16  C   UNL     1     -42.104  55.172 -51.060  1.00  0.00     0.224 C 
HETATM   17  N   UNL     1     -41.029  54.772 -51.807  1.00  0.00    -0.327 N 
HETATM   18  H   UNL     1     -40.263  55.437 -51.867  1.00  0.00     0.169 HD
HETATM   19  O   UNL     1     -43.109  54.544 -50.735  1.00  0.00    -0.273 OA
BRANCH  17  20
HETATM   20  C   UNL     1     -40.778  53.580 -52.537  1.00  0.00     0.040 A 
HETATM   21  C   UNL     1     -41.238  53.215 -53.815  1.00  0.00    -0.035 A 
HETATM   22  C   UNL     1     -40.801  51.987 -54.371  1.00  0.00     0.015 A 
HETATM   23  C   UNL     1     -42.179  54.005 -54.677  1.00  0.00     0.050 C 
HETATM   24  C   UNL     1     -39.944  51.118 -53.690  1.00  0.00    -0.061 A 
HETATM   25  C   UNL     1     -39.487  49.835 -54.316  1.00  0.00     0.048 C 
HETATM   26  C   UNL     1     -39.494  51.485 -52.429  1.00  0.00     0.009 A 
HETATM   27  C   UNL     1     -39.912  52.691 -51.863  1.00  0.00     0.030 A 
ENDBRANCH  17  20
ENDBRANCH  15  16
ENDBRANCH   1  15
TORSDOF 3
ENDMDL
MODEL 5
REMARK VINA RESULT:      -7.8      1.736      2.686
REMARK  3 active torsions:
REMARK  status: ('A' for Active; 'I' for Inactive)
REMARK    1  A    between atoms: C_6  and  N_7 
REMARK       I    between atoms: N_7  and  C_8 
REMARK    2  A    between atoms: C_8  and  C_9 
REMARK    3  A    between atoms: C_9  and  C_10 
ROOT
HETATM    1  C   UNL     1     -43.074  57.539 -51.381  1.00  0.00     0.286 C 
HETATM    2  N   UNL     1     -41.871  58.457 -51.652  1.00  0.00    -0.056 N 
HETATM    3  H   UNL     1     -41.194  58.296 -50.895  1.00  0.00     0.278 HD
HETATM    4  H   UNL     1     -41.357  58.109 -52.491  1.00  0.00     0.278 HD
HETATM    5  C   UNL     1     -42.117  59.927 -51.762  1.00  0.00     0.209 C 
HETATM    6  C   UNL     1     -43.103  60.369 -50.659  1.00  0.00     0.115 C 
HETATM    7  N   UNL     1     -44.326  59.576 -50.689  1.00  0.00    -0.353 N 
HETATM    8  C   UNL     1     -44.373  58.237 -50.960  1.00  0.00     0.249 C 
HETATM    9  O   UNL     1     -45.431  57.626 -50.846  1.00  0.00    -0.271 OA
HETATM   10  C   UNL     1     -42.604  60.277 -53.169  1.00  0.00     0.035 C 
HETATM   11  C   UNL     1     -42.916  61.769 -53.274  1.00  0.00     0.002 C 
HETATM   12  C   UNL     1     -43.896  62.227 -52.196  1.00  0.00     0.002 C 
HETATM   13  C   UNL     1     -43.416  61.861 -50.791  1.00  0.00     0.027 C 
HETATM   14  H   UNL     1     -45.192  59.963 -50.317  1.00  0.00     0.163 HD
ENDROOT
BRANCH   1  15
HETATM   15  C   UNL     1     -43.328  56.598 -52.566  1.00  0.00     0.146 C 
BRANCH  15  16
HETATM   16  C   UNL     1     -42.785  55.253 -52.158  1.00  0.00     0.224 C 
HETATM   17  N   UNL     1     -41.600  54.928 -52.763  1.00  0.00    -0.327 N 
HETATM   18  H   UNL     1     -41.094  55.702 -53.184  1.00  0.00     0.169 HD
HETATM   19  O   UNL     1     -43.542  54.553 -51.491  1.00  0.00    -0.273 OA
BRANCH  17  20
HETATM   20  C   UNL     1     -40.934  53.684 -52.924  1.00  0.00     0.040 A 
HETATM   21  C   UNL     1     -40.191  52.953 -51.979  1.00  0.00    -0.035 A 
HETATM   22  C   UNL     1     -39.665  51.692 -52.355  1.00  0.00     0.015 A 
HETATM   23  C   UNL     1     -39.878  53.382 -50.575  1.00  0.00     0.050 C 
HETATM   24  C   UNL     1     -39.841  51.157 -53.634  1.00  0.00    -0.061 A 
HETATM   25  C   UNL     1     -39.285  49.812 -53.991  1.00  0.00     0.048 C 
HETATM   26  C   UNL     1     -40.576  51.884 -54.561  1.00  0.00     0.009 A 
HETATM   27  C   UNL     1     -41.104  53.128 -54.210  1.00  0.00     0.030 A 
ENDBRANCH  17  20
ENDBRANCH  15  16
ENDBRANCH   1  15
TORSDOF 3
ENDMDL
MODEL 6
REMARK VINA RESULT:      -7.7      3.668      5.226
REMARK  3 active torsions:
REMARK  status: ('A' for Active; 'I' for Inactive)
REMARK    1  A    between atoms: C_6  and  N_7 
REMARK       I    between atoms: N_7  and  C_8 
REMARK    2  A    between atoms: C_8  and  C_9 
REMARK    3  A    between atoms: C_9  and  C_10 
ROOT
HETATM    1  C   UNL     1     -43.152  56.345 -55.232  1.00  0.00     0.286 C 
HETATM    2  N   UNL     1     -43.918  57.517 -55.868  1.00  0.00    -0.056 N 
HETATM    3  H   UNL     1     -44.921  57.312 -55.767  1.00  0.00     0.278 HD
HETATM    4  H   UNL     1     -43.801  58.366 -55.273  1.00  0.00     0.278 HD
HETATM    5  C   UNL     1     -43.645  57.842 -57.301  1.00  0.00     0.209 C 
HETATM    6  C   UNL     1     -43.556  56.535 -58.118  1.00  0.00     0.115 C 
HETATM    7  N   UNL     1     -42.586  55.611 -57.542  1.00  0.00    -0.353 N 
HETATM    8  C   UNL     1     -42.392  55.432 -56.201  1.00  0.00     0.249 C 
HETATM    9  O   UNL     1     -41.640  54.548 -55.803  1.00  0.00    -0.271 OA
HETATM   10  C   UNL     1     -42.385  58.701 -57.417  1.00  0.00     0.035 C 
HETATM   11  C   UNL     1     -42.063  58.989 -58.883  1.00  0.00     0.002 C 
HETATM   12  C   UNL     1     -41.963  57.708 -59.709  1.00  0.00     0.002 C 
HETATM   13  C   UNL     1     -43.216  56.842 -59.578  1.00  0.00     0.027 C 
HETATM   14  H   UNL     1     -42.137  54.912 -58.131  1.00  0.00     0.163 HD
ENDROOT
BRANCH   1  15
HETATM   15  C   UNL     1     -42.224  56.835 -54.113  1.00  0.00     0.146 C 
BRANCH  15  16
HETATM   16  C   UNL     1     -42.239  55.763 -53.055  1.00  0.00     0.224 C 
HETATM   17  N   UNL     1     -41.015  55.195 -52.825  1.00  0.00    -0.327 N 
HETATM   18  H   UNL     1     -40.215  55.719 -53.168  1.00  0.00     0.169 HD
HETATM   19  O   UNL     1     -43.351  55.412 -52.669  1.00  0.00    -0.273 OA
BRANCH  17  20
HETATM   20  C   UNL     1     -40.644  53.980 -52.189  1.00  0.00     0.040 A 
HETATM   21  C   UNL     1     -40.678  53.654 -50.821  1.00  0.00    -0.035 A 
HETATM   22  C   UNL     1     -40.313  52.343 -50.425  1.00  0.00     0.015 A 
HETATM   23  C   UNL     1     -41.060  54.576 -49.700  1.00  0.00     0.050 C 
HETATM   24  C   UNL     1     -39.906  51.368 -51.340  1.00  0.00    -0.061 A 
HETATM   25  C   UNL     1     -39.545  49.986 -50.887  1.00  0.00     0.048 C 
HETATM   26  C   UNL     1     -39.875  51.698 -52.689  1.00  0.00     0.009 A 
HETATM   27  C   UNL     1     -40.231  52.983 -53.100  1.00  0.00     0.030 A 
ENDBRANCH  17  20
ENDBRANCH  15  16
ENDBRANCH   1  15
TORSDOF 3
ENDMDL
MODEL 7
REMARK VINA RESULT:      -7.6      4.475      6.234
REMARK  3 active torsions:
REMARK  status: ('A' for Active; 'I' for Inactive)
REMARK    1  A    between atoms: C_6  and  N_7 
REMARK       I    between atoms: N_7  and  C_8 
REMARK    2  A    between atoms: C_8  and  C_9 
REMARK    3  A    between atoms: C_9  and  C_10 
ROOT
HETATM    1  C   UNL     1     -42.736  56.000 -56.819  1.00  0.00     0.286 C 
HETATM    2  N   UNL     1     -42.328  55.721 -58.275  1.00  0.00    -0.056 N 
HETATM    3  H   UNL     1     -41.445  56.222 -58.441  1.00  0.00     0.278 HD
HETATM    4  H   UNL     1     -42.039  54.723 -58.365  1.00  0.00     0.278 HD
HETATM    5  C   UNL     1     -43.290  56.087 -59.358  1.00  0.00     0.209 C 
HETATM    6  C   UNL     1     -43.908  57.469 -59.054  1.00  0.00     0.115 C 
HETATM    7  N   UNL     1     -44.499  57.506 -57.722  1.00  0.00    -0.353 N 
HETATM    8  C   UNL     1     -43.968  56.891 -56.623  1.00  0.00     0.249 C 
HETATM    9  O   UNL     1     -44.466  57.075 -55.517  1.00  0.00    -0.271 OA
HETATM   10  C   UNL     1     -44.342  54.989 -59.523  1.00  0.00     0.035 C 
HETATM   11  C   UNL     1     -45.366  55.380 -60.587  1.00  0.00     0.002 C 
HETATM   12  C   UNL     1     -45.996  56.742 -60.302  1.00  0.00     0.002 C 
HETATM   13  C   UNL     1     -44.942  57.835 -60.121  1.00  0.00     0.027 C 
HETATM   14  H   UNL     1     -45.250  58.164 -57.517  1.00  0.00     0.163 HD
ENDROOT
BRANCH   1  15
HETATM   15  C   UNL     1     -42.885  54.693 -56.028  1.00  0.00     0.146 C 
BRANCH  15  16
HETATM   16  C   UNL     1     -41.820  54.724 -54.962  1.00  0.00     0.224 C 
HETATM   17  N   UNL     1     -42.010  53.807 -53.963  1.00  0.00    -0.327 N 
HETATM   18  H   UNL     1     -42.656  53.052 -54.176  1.00  0.00     0.169 HD
HETATM   19  O   UNL     1     -41.033  55.665 -55.023  1.00  0.00    -0.273 OA
BRANCH  17  20
HETATM   20  C   UNL     1     -41.468  53.713 -52.654  1.00  0.00     0.040 A 
HETATM   21  C   UNL     1     -40.425  52.893 -52.188  1.00  0.00    -0.035 A 
HETATM   22  C   UNL     1     -40.011  53.019 -50.838  1.00  0.00     0.015 A 
HETATM   23  C   UNL     1     -39.688  51.858 -52.986  1.00  0.00     0.050 C 
HETATM   24  C   UNL     1     -40.611  53.916 -49.950  1.00  0.00    -0.061 A 
HETATM   25  C   UNL     1     -40.135  54.036 -48.534  1.00  0.00     0.048 C 
HETATM   26  C   UNL     1     -41.640  54.723 -50.418  1.00  0.00     0.009 A 
HETATM   27  C   UNL     1     -42.062  54.615 -51.744  1.00  0.00     0.030 A 
ENDBRANCH  17  20
ENDBRANCH  15  16
ENDBRANCH   1  15
TORSDOF 3
ENDMDL
MODEL 8
REMARK VINA RESULT:      -7.6      4.371      5.400
REMARK  3 active torsions:
REMARK  status: ('A' for Active; 'I' for Inactive)
REMARK    1  A    between atoms: C_6  and  N_7 
REMARK       I    between atoms: N_7  and  C_8 
REMARK    2  A    between atoms: C_8  and  C_9 
REMARK    3  A    between atoms: C_9  and  C_10 
ROOT
HETATM    1  C   UNL     1     -42.129  57.566 -56.119  1.00  0.00     0.286 C 
HETATM    2  N   UNL     1     -42.445  56.463 -57.143  1.00  0.00    -0.056 N 
HETATM    3  H   UNL     1     -41.608  55.871 -57.215  1.00  0.00     0.278 HD
HETATM    4  H   UNL     1     -43.149  55.810 -56.736  1.00  0.00     0.278 HD
HETATM    5  C   UNL     1     -42.850  56.877 -58.521  1.00  0.00     0.209 C 
HETATM    6  C   UNL     1     -41.953  58.040 -58.995  1.00  0.00     0.115 C 
HETATM    7  N   UNL     1     -41.957  59.141 -58.039  1.00  0.00    -0.353 N 
HETATM    8  C   UNL     1     -41.977  58.984 -56.681  1.00  0.00     0.249 C 
HETATM    9  O   UNL     1     -41.857  59.962 -55.950  1.00  0.00    -0.271 OA
HETATM   10  C   UNL     1     -44.339  57.226 -58.551  1.00  0.00     0.035 C 
HETATM   11  C   UNL     1     -44.751  57.708 -59.941  1.00  0.00     0.002 C 
HETATM   12  C   UNL     1     -43.880  58.864 -60.428  1.00  0.00     0.002 C 
HETATM   13  C   UNL     1     -42.391  58.519 -60.381  1.00  0.00     0.027 C 
HETATM   14  H   UNL     1     -41.751  60.088 -58.353  1.00  0.00     0.163 HD
ENDROOT
BRANCH   1  15
HETATM   15  C   UNL     1     -43.137  57.550 -54.963  1.00  0.00     0.146 C 
BRANCH  15  16
HETATM   16  C   UNL     1     -43.036  56.184 -54.335  1.00  0.00     0.224 C 
HETATM   17  N   UNL     1     -41.783  55.877 -53.876  1.00  0.00    -0.327 N 
HETATM   18  H   UNL     1     -41.153  56.665 -53.757  1.00  0.00     0.169 HD
HETATM   19  O   UNL     1     -44.019  55.461 -54.473  1.00  0.00    -0.273 OA
BRANCH  17  20
HETATM   20  C   UNL     1     -41.182  54.636 -53.536  1.00  0.00     0.040 A 
HETATM   21  C   UNL     1     -40.923  54.102 -52.261  1.00  0.00    -0.035 A 
HETATM   22  C   UNL     1     -40.364  52.803 -52.167  1.00  0.00     0.015 A 
HETATM   23  C   UNL     1     -41.172  54.784 -50.947  1.00  0.00     0.050 C 
HETATM   24  C   UNL     1     -40.046  52.040 -53.295  1.00  0.00    -0.061 A 
HETATM   25  C   UNL     1     -39.473  50.662 -53.158  1.00  0.00     0.048 C 
HETATM   26  C   UNL     1     -40.305  52.574 -54.550  1.00  0.00     0.009 A 
HETATM   27  C   UNL     1     -40.856  53.852 -54.664  1.00  0.00     0.030 A 
ENDBRANCH  17  20
ENDBRANCH  15  16
ENDBRANCH   1  15
TORSDOF 3
ENDMDL
MODEL 9
REMARK VINA RESULT:      -7.6     15.816     17.627
REMARK  3 active torsions:
REMARK  status: ('A' for Active; 'I' for Inactive)
REMARK    1  A    between atoms: C_6  and  N_7 
REMARK       I    between atoms: N_7  and  C_8 
REMARK    2  A    between atoms: C_8  and  C_9 
REMARK    3  A    between atoms: C_9  and  C_10 
ROOT
HETATM    1  C   UNL     1     -36.536  41.225 -55.293  1.00  0.00     0.286 C 
HETATM    2  N   UNL     1     -37.646  41.972 -56.049  1.00  0.00    -0.056 N 
HETATM    3  H   UNL     1     -38.493  41.919 -55.468  1.00  0.00     0.278 HD
HETATM    4  H   UNL     1     -37.435  42.993 -56.046  1.00  0.00     0.278 HD
HETATM    5  C   UNL     1     -37.990  41.512 -57.429  1.00  0.00     0.209 C 
HETATM    6  C   UNL     1     -38.032  39.969 -57.463  1.00  0.00     0.115 C 
HETATM    7  N   UNL     1     -36.793  39.391 -56.956  1.00  0.00    -0.353 N 
HETATM    8  C   UNL     1     -36.079  39.896 -55.905  1.00  0.00     0.249 C 
HETATM    9  O   UNL     1     -35.113  39.278 -55.468  1.00  0.00    -0.271 OA
HETATM   10  C   UNL     1     -37.008  42.102 -58.442  1.00  0.00     0.035 C 
HETATM   11  C   UNL     1     -37.314  41.591 -59.849  1.00  0.00     0.002 C 
HETATM   12  C   UNL     1     -37.353  40.065 -59.908  1.00  0.00     0.002 C 
HETATM   13  C   UNL     1     -38.323  39.476 -58.883  1.00  0.00     0.027 C 
HETATM   14  H   UNL     1     -36.507  38.460 -57.254  1.00  0.00     0.163 HD
ENDROOT
BRANCH   1  15
HETATM   15  C   UNL     1     -35.332  42.140 -55.034  1.00  0.00     0.146 C 
BRANCH  15  16
HETATM   16  C   UNL     1     -35.084  42.100 -53.549  1.00  0.00     0.224 C 
HETATM   17  N   UNL     1     -34.138  41.185 -53.170  1.00  0.00    -0.327 N 
HETATM   18  H   UNL     1     -33.531  40.846 -53.911  1.00  0.00     0.169 HD
HETATM   19  O   UNL     1     -35.870  42.745 -52.860  1.00  0.00    -0.273 OA
BRANCH  17  20
HETATM   20  C   UNL     1     -33.843  40.601 -51.909  1.00  0.00     0.040 A 
HETATM   21  C   UNL     1     -34.717  39.977 -51.000  1.00  0.00    -0.035 A 
HETATM   22  C   UNL     1     -34.177  39.407 -49.820  1.00  0.00     0.015 A 
HETATM   23  C   UNL     1     -36.206  39.856 -51.144  1.00  0.00     0.050 C 
HETATM   24  C   UNL     1     -32.813  39.456 -49.519  1.00  0.00    -0.061 A 
HETATM   25  C   UNL     1     -32.275  38.826 -48.270  1.00  0.00     0.048 C 
HETATM   26  C   UNL     1     -31.957  40.073 -50.421  1.00  0.00     0.009 A 
HETATM   27  C   UNL     1     -32.468  40.640 -51.590  1.00  0.00     0.030 A 
ENDBRANCH  17  20
ENDBRANCH  15  16
ENDBRANCH   1  15
TORSDOF 3
ENDMDL
MODEL 10
REMARK VINA RESULT:      -7.5      1.597      2.330
REMARK  3 active torsions:
REMARK  status: ('A' for Active; 'I' for Inactive)
REMARK    1  A    between atoms: C_6  and  N_7 
REMARK       I    between atoms: N_7  and  C_8 
REMARK    2  A    between atoms: C_8  and  C_9 
REMARK    3  A    between atoms: C_9  and  C_10 
ROOT
HETATM    1  C   UNL     1     -42.391  58.632 -51.845  1.00  0.00     0.286 C 
HETATM    2  N   UNL     1     -43.648  59.340 -52.376  1.00  0.00    -0.056 N 
HETATM    3  H   UNL     1     -43.433  59.659 -53.331  1.00  0.00     0.278 HD
HETATM    4  H   UNL     1     -44.397  58.633 -52.539  1.00  0.00     0.278 HD
HETATM    5  C   UNL     1     -44.184  60.500 -51.601  1.00  0.00     0.209 C 
HETATM    6  C   UNL     1     -43.014  61.396 -51.139  1.00  0.00     0.115 C 
HETATM    7  N   UNL     1     -42.011  60.629 -50.410  1.00  0.00    -0.353 N 
HETATM    8  C   UNL     1     -41.632  59.355 -50.727  1.00  0.00     0.249 C 
HETATM    9  O   UNL     1     -40.695  58.830 -50.134  1.00  0.00    -0.271 OA
HETATM   10  C   UNL     1     -45.047  60.004 -50.439  1.00  0.00     0.035 C 
HETATM   11  C   UNL     1     -45.551  61.180 -49.604  1.00  0.00     0.002 C 
HETATM   12  C   UNL     1     -44.409  62.077 -49.130  1.00  0.00     0.002 C 
HETATM   13  C   UNL     1     -43.538  62.557 -50.291  1.00  0.00     0.027 C 
HETATM   14  H   UNL     1     -41.408  61.095 -49.734  1.00  0.00     0.163 HD
ENDROOT
BRANCH   1  15
HETATM   15  C   UNL     1     -42.704  57.186 -51.436  1.00  0.00     0.146 C 
BRANCH  15  16
HETATM   16  C   UNL     1     -41.898  56.306 -52.355  1.00  0.00     0.224 C 
HETATM   17  N   UNL     1     -42.092  54.966 -52.150  1.00  0.00    -0.327 N 
HETATM   18  H   UNL     1     -42.924  54.718 -51.623  1.00  0.00     0.169 HD
HETATM   19  O   UNL     1     -41.050  56.880 -53.033  1.00  0.00    -0.273 OA
BRANCH  17  20
HETATM   20  C   UNL     1     -41.329  53.833 -52.538  1.00  0.00     0.040 A 
HETATM   21  C   UNL     1     -40.372  53.118 -51.796  1.00  0.00    -0.035 A 
HETATM   22  C   UNL     1     -39.778  51.969 -52.377  1.00  0.00     0.015 A 
HETATM   23  C   UNL     1     -39.887  53.457 -50.416  1.00  0.00     0.050 C 
HETATM   24  C   UNL     1     -40.097  51.531 -53.665  1.00  0.00    -0.061 A 
HETATM   25  C   UNL     1     -39.463  50.300 -54.240  1.00  0.00     0.048 C 
HETATM   26  C   UNL     1     -41.044  52.241 -54.391  1.00  0.00     0.009 A 
HETATM   27  C   UNL     1     -41.640  53.375 -53.837  1.00  0.00     0.030 A 
ENDBRANCH  17  20
ENDBRANCH  15  16
ENDBRANCH   1  15
TORSDOF 3
ENDMDL
