MODEL 1
REMARK VINA RESULT:      -7.6      0.000      0.000
REMARK  7 active torsions:
REMARK  status: ('A' for Active; 'I' for Inactive)
REMARK    1  A    between atoms: O_2  and  C_3 
REMARK    2  A    between atoms: C_4  and  O_5 
REMARK    3  A    between atoms: C_9  and  C_10 
REMARK    4  A    between atoms: C_10  and  N_11 
REMARK    5  A    between atoms: C_14  and  C_15 
REMARK    6  A    between atoms: C_15  and  N_16 
REMARK    7  A    between atoms: N_16  and  C_17 
ROOT
HETATM    1  N   UNL     1     -42.684  55.329 -52.996  1.00  0.00    -0.067 N 
HETATM    2  H   UNL     1     -43.053  54.732 -52.238  1.00  0.00     0.280 HD
HETATM    3  C   UNL     1     -43.291  54.818 -54.286  1.00  0.00     0.241 C 
HETATM    4  C   UNL     1     -43.853  56.053 -54.988  1.00  0.00     0.031 C 
HETATM    5  C   UNL     1     -44.293  56.916 -53.808  1.00  0.00     0.035 C 
HETATM    6  C   UNL     1     -43.212  56.729 -52.755  1.00  0.00     0.235 C 
ENDROOT
BRANCH   1   7
HETATM    7  C   UNL     1     -41.180  55.229 -52.857  1.00  0.00     0.274 C 
BRANCH   7   8
HETATM    8  C   UNL     1     -40.692  53.901 -52.342  1.00  0.00    -0.012 A 
HETATM    9  C   UNL     1     -40.709  53.571 -50.975  1.00  0.00     0.021 A 
HETATM   10  C   UNL     1     -40.252  52.329 -50.539  1.00  0.00     0.059 A 
HETATM   11 BR   UNL     1     -41.368  54.777 -49.664  1.00  0.00    -0.050 Br
HETATM   12  C   UNL     1     -39.791  51.408 -51.471  1.00  0.00     0.100 A 
HETATM   13  C   UNL     1     -39.775  51.692 -52.838  1.00  0.00     0.101 A 
HETATM   14  C   UNL     1     -40.209  52.945 -53.267  1.00  0.00     0.049 A 
BRANCH  12  15
HETATM   15  O   UNL     1     -39.358  50.197 -51.009  1.00  0.00    -0.358 OA
HETATM   16  H   UNL     1     -39.129  50.321 -50.067  1.00  0.00     0.218 HD
ENDBRANCH  12  15
BRANCH  13  17
HETATM   17  O   UNL     1     -39.312  50.682 -53.637  1.00  0.00    -0.353 OA
HETATM   18  C   UNL     1     -40.263  49.985 -54.433  1.00  0.00     0.210 C 
ENDBRANCH  13  17
ENDBRANCH   7   8
ENDBRANCH   1   7
BRANCH   4  19
HETATM   19  C   UNL     1     -42.800  56.711 -55.900  1.00  0.00     0.127 C 
BRANCH  19  20
HETATM   20  N   UNL     1     -42.404  55.812 -56.988  1.00  0.00    -0.376 N 
HETATM   21  H   UNL     1     -41.409  55.612 -57.030  1.00  0.00     0.161 HD
BRANCH  20  22
HETATM   22  C   UNL     1     -43.065  55.887 -58.210  1.00  0.00     0.100 A 
HETATM   23  N   UNL     1     -43.924  54.905 -58.538  1.00  0.00    -0.353 N 
HETATM   24  H   UNL     1     -44.063  54.144 -57.879  1.00  0.00     0.166 HD
HETATM   25  C   UNL     1     -44.623  54.876 -59.685  1.00  0.00     0.089 A 
HETATM   26  C   UNL     1     -44.495  55.903 -60.605  1.00  0.00     0.017 A 
HETATM   27  C   UNL     1     -43.646  56.958 -60.311  1.00  0.00     0.005 A 
HETATM   28  C   UNL     1     -42.936  56.956 -59.111  1.00  0.00     0.048 A 
ENDBRANCH  20  22
ENDBRANCH  19  20
ENDBRANCH   4  19
TORSDOF 7
ENDMDL
MODEL 2
REMARK VINA RESULT:      -7.3      1.627      2.506
REMARK  7 active torsions:
REMARK  status: ('A' for Active; 'I' for Inactive)
REMARK    1  A    between atoms: O_2  and  C_3 
REMARK    2  A    between atoms: C_4  and  O_5 
REMARK    3  A    between atoms: C_9  and  C_10 
REMARK    4  A    between atoms: C_10  and  N_11 
REMARK    5  A    between atoms: C_14  and  C_15 
REMARK    6  A    between atoms: C_15  and  N_16 
REMARK    7  A    between atoms: N_16  and  C_17 
ROOT
HETATM    1  N   UNL     1     -42.949  56.194 -53.104  1.00  0.00    -0.067 N 
HETATM    2  H   UNL     1     -43.351  55.677 -52.304  1.00  0.00     0.280 HD
HETATM    3  C   UNL     1     -43.557  55.597 -54.356  1.00  0.00     0.241 C 
HETATM    4  C   UNL     1     -44.063  56.786 -55.170  1.00  0.00     0.031 C 
HETATM    5  C   UNL     1     -44.487  57.762 -54.075  1.00  0.00     0.035 C 
HETATM    6  C   UNL     1     -43.429  57.627 -52.992  1.00  0.00     0.235 C 
ENDROOT
BRANCH   1   7
HETATM    7  C   UNL     1     -41.452  56.052 -52.931  1.00  0.00     0.274 C 
BRANCH   7   8
HETATM    8  C   UNL     1     -41.016  54.727 -52.365  1.00  0.00    -0.012 A 
HETATM    9  C   UNL     1     -40.499  53.697 -53.170  1.00  0.00     0.021 A 
HETATM   10  C   UNL     1     -40.104  52.485 -52.606  1.00  0.00     0.059 A 
HETATM   11 BR   UNL     1     -40.292  53.904 -55.047  1.00  0.00    -0.050 Br
HETATM   12  C   UNL     1     -40.212  52.307 -51.233  1.00  0.00     0.100 A 
HETATM   13  C   UNL     1     -40.704  53.312 -50.398  1.00  0.00     0.101 A 
HETATM   14  C   UNL     1     -41.122  54.513 -50.970  1.00  0.00     0.049 A 
BRANCH  12  15
HETATM   15  O   UNL     1     -39.807  51.110 -50.714  1.00  0.00    -0.358 OA
HETATM   16  H   UNL     1     -38.912  50.938 -51.066  1.00  0.00     0.218 HD
ENDBRANCH  12  15
BRANCH  13  17
HETATM   17  O   UNL     1     -40.734  53.000 -49.067  1.00  0.00    -0.353 OA
HETATM   18  C   UNL     1     -40.280  53.988 -48.149  1.00  0.00     0.210 C 
ENDBRANCH  13  17
ENDBRANCH   7   8
ENDBRANCH   1   7
BRANCH   4  19
HETATM   19  C   UNL     1     -42.973  57.326 -56.116  1.00  0.00     0.127 C 
BRANCH  19  20
HETATM   20  N   UNL     1     -42.484  56.278 -57.016  1.00  0.00    -0.376 N 
HETATM   21  H   UNL     1     -41.474  56.165 -57.024  1.00  0.00     0.161 HD
BRANCH  20  22
HETATM   22  C   UNL     1     -43.134  56.060 -58.226  1.00  0.00     0.100 A 
HETATM   23  N   UNL     1     -43.818  54.912 -58.391  1.00  0.00    -0.353 N 
HETATM   24  H   UNL     1     -43.839  54.247 -57.624  1.00  0.00     0.166 HD
HETATM   25  C   UNL     1     -44.489  54.597 -59.512  1.00  0.00     0.089 A 
HETATM   26  C   UNL     1     -44.520  55.481 -60.577  1.00  0.00     0.017 A 
HETATM   27  C   UNL     1     -43.858  56.693 -60.456  1.00  0.00     0.005 A 
HETATM   28  C   UNL     1     -43.171  56.987 -59.279  1.00  0.00     0.048 A 
ENDBRANCH  20  22
ENDBRANCH  19  20
ENDBRANCH   4  19
TORSDOF 7
ENDMDL
MODEL 3
REMARK VINA RESULT:      -7.0      1.818      2.724
REMARK  7 active torsions:
REMARK  status: ('A' for Active; 'I' for Inactive)
REMARK    1  A    between atoms: O_2  and  C_3 
REMARK    2  A    between atoms: C_4  and  O_5 
REMARK    3  A    between atoms: C_9  and  C_10 
REMARK    4  A    between atoms: C_10  and  N_11 
REMARK    5  A    between atoms: C_14  and  C_15 
REMARK    6  A    between atoms: C_15  and  N_16 
REMARK    7  A    between atoms: N_16  and  C_17 
ROOT
HETATM    1  N   UNL     1     -42.037  54.933 -51.543  1.00  0.00    -0.067 N 
HETATM    2  H   UNL     1     -42.118  54.157 -50.865  1.00  0.00     0.280 HD
HETATM    3  C   UNL     1     -43.199  54.793 -52.504  1.00  0.00     0.241 C 
HETATM    4  C   UNL     1     -43.845  56.176 -52.566  1.00  0.00     0.031 C 
HETATM    5  C   UNL     1     -43.621  56.694 -51.147  1.00  0.00     0.035 C 
HETATM    6  C   UNL     1     -42.226  56.221 -50.768  1.00  0.00     0.235 C 
ENDROOT
BRANCH   1   7
HETATM    7  C   UNL     1     -40.645  54.786 -52.121  1.00  0.00     0.274 C 
BRANCH   7   8
HETATM    8  C   UNL     1     -40.323  53.400 -52.615  1.00  0.00    -0.012 A 
HETATM    9  C   UNL     1     -40.413  53.044 -53.973  1.00  0.00     0.021 A 
HETATM   10  C   UNL     1     -40.103  51.752 -54.390  1.00  0.00     0.059 A 
HETATM   11 BR   UNL     1     -40.937  54.297 -55.302  1.00  0.00    -0.050 Br
HETATM   12  C   UNL     1     -39.688  50.815 -53.452  1.00  0.00     0.100 A 
HETATM   13  C   UNL     1     -39.569  51.135 -52.099  1.00  0.00     0.101 A 
HETATM   14  C   UNL     1     -39.905  52.422 -51.682  1.00  0.00     0.049 A 
BRANCH  12  15
HETATM   15  O   UNL     1     -39.384  49.560 -53.898  1.00  0.00    -0.358 OA
HETATM   16  H   UNL     1     -39.634  49.529 -54.843  1.00  0.00     0.218 HD
ENDBRANCH  12  15
BRANCH  13  17
HETATM   17  O   UNL     1     -39.130  50.117 -51.297  1.00  0.00    -0.353 OA
HETATM   18  C   UNL     1     -40.080  49.505 -50.433  1.00  0.00     0.210 C 
ENDBRANCH  13  17
ENDBRANCH   7   8
ENDBRANCH   1   7
BRANCH   4  19
HETATM   19  C   UNL     1     -43.210  57.046 -53.667  1.00  0.00     0.127 C 
BRANCH  19  20
HETATM   20  N   UNL     1     -44.090  57.151 -54.834  1.00  0.00    -0.376 N 
HETATM   21  H   UNL     1     -44.974  56.657 -54.743  1.00  0.00     0.161 HD
BRANCH  20  22
HETATM   22  C   UNL     1     -43.535  57.181 -56.109  1.00  0.00     0.100 A 
HETATM   23  N   UNL     1     -43.795  56.160 -56.947  1.00  0.00    -0.353 N 
HETATM   24  H   UNL     1     -44.391  55.406 -56.621  1.00  0.00     0.166 HD
HETATM   25  C   UNL     1     -43.320  56.085 -58.202  1.00  0.00     0.089 A 
HETATM   26  C   UNL     1     -42.527  57.101 -58.709  1.00  0.00     0.017 A 
HETATM   27  C   UNL     1     -42.248  58.193 -57.902  1.00  0.00     0.005 A 
HETATM   28  C   UNL     1     -42.757  58.238 -56.605  1.00  0.00     0.048 A 
ENDBRANCH  20  22
ENDBRANCH  19  20
ENDBRANCH   4  19
TORSDOF 7
ENDMDL
MODEL 4
REMARK VINA RESULT:      -6.9      1.074      1.367
REMARK  7 active torsions:
REMARK  status: ('A' for Active; 'I' for Inactive)
REMARK    1  A    between atoms: O_2  and  C_3 
REMARK    2  A    between atoms: C_4  and  O_5 
REMARK    3  A    between atoms: C_9  and  C_10 
REMARK    4  A    between atoms: C_10  and  N_11 
REMARK    5  A    between atoms: C_14  and  C_15 
REMARK    6  A    between atoms: C_15  and  N_16 
REMARK    7  A    between atoms: N_16  and  C_17 
ROOT
HETATM    1  N   UNL     1     -42.470  54.824 -53.433  1.00  0.00    -0.067 N 
HETATM    2  H   UNL     1     -42.887  54.129 -52.793  1.00  0.00     0.280 HD
HETATM    3  C   UNL     1     -42.954  54.477 -54.826  1.00  0.00     0.241 C 
HETATM    4  C   UNL     1     -43.485  55.785 -55.410  1.00  0.00     0.031 C 
HETATM    5  C   UNL     1     -44.043  56.482 -54.171  1.00  0.00     0.035 C 
HETATM    6  C   UNL     1     -43.049  56.174 -53.062  1.00  0.00     0.235 C 
ENDROOT
BRANCH   1   7
HETATM    7  C   UNL     1     -40.981  54.726 -53.180  1.00  0.00     0.274 C 
BRANCH   7   8
HETATM    8  C   UNL     1     -40.551  53.455 -52.497  1.00  0.00    -0.012 A 
HETATM    9  C   UNL     1     -40.527  53.323 -51.097  1.00  0.00     0.021 A 
HETATM   10  C   UNL     1     -40.125  52.128 -50.503  1.00  0.00     0.059 A 
HETATM   11 BR   UNL     1     -41.053  54.742 -49.950  1.00  0.00    -0.050 Br
HETATM   12  C   UNL     1     -39.761  51.056 -51.309  1.00  0.00     0.100 A 
HETATM   13  C   UNL     1     -39.790  51.143 -52.702  1.00  0.00     0.101 A 
HETATM   14  C   UNL     1     -40.167  52.349 -53.291  1.00  0.00     0.049 A 
BRANCH  12  15
HETATM   15  O   UNL     1     -39.382  49.898 -50.693  1.00  0.00    -0.358 OA
HETATM   16  H   UNL     1     -40.186  49.516 -50.290  1.00  0.00     0.218 HD
ENDBRANCH  12  15
BRANCH  13  17
HETATM   17  O   UNL     1     -39.423  50.003 -53.363  1.00  0.00    -0.353 OA
HETATM   18  C   UNL     1     -39.849  49.860 -54.713  1.00  0.00     0.210 C 
ENDBRANCH  13  17
ENDBRANCH   7   8
ENDBRANCH   1   7
BRANCH   4  19
HETATM   19  C   UNL     1     -42.375  56.569 -56.135  1.00  0.00     0.127 C 
BRANCH  19  20
HETATM   20  N   UNL     1     -42.312  56.210 -57.554  1.00  0.00    -0.376 N 
HETATM   21  H   UNL     1     -41.583  55.542 -57.789  1.00  0.00     0.161 HD
BRANCH  20  22
HETATM   22  C   UNL     1     -42.589  57.176 -58.516  1.00  0.00     0.100 A 
HETATM   23  N   UNL     1     -43.602  56.957 -59.375  1.00  0.00    -0.353 N 
HETATM   24  H   UNL     1     -44.131  56.094 -59.288  1.00  0.00     0.166 HD
HETATM   25  C   UNL     1     -43.965  57.820 -60.338  1.00  0.00     0.089 A 
HETATM   26  C   UNL     1     -43.297  59.025 -60.482  1.00  0.00     0.017 A 
HETATM   27  C   UNL     1     -42.263  59.321 -59.608  1.00  0.00     0.005 A 
HETATM   28  C   UNL     1     -41.912  58.401 -58.620  1.00  0.00     0.048 A 
ENDBRANCH  20  22
ENDBRANCH  19  20
ENDBRANCH   4  19
TORSDOF 7
ENDMDL
MODEL 5
REMARK VINA RESULT:      -6.9      2.382      4.917
REMARK  7 active torsions:
REMARK  status: ('A' for Active; 'I' for Inactive)
REMARK    1  A    between atoms: O_2  and  C_3 
REMARK    2  A    between atoms: C_4  and  O_5 
REMARK    3  A    between atoms: C_9  and  C_10 
REMARK    4  A    between atoms: C_10  and  N_11 
REMARK    5  A    between atoms: C_14  and  C_15 
REMARK    6  A    between atoms: C_15  and  N_16 
REMARK    7  A    between atoms: N_16  and  C_17 
ROOT
HETATM    1  N   UNL     1     -42.007  55.029 -54.124  1.00  0.00    -0.067 N 
HETATM    2  H   UNL     1     -41.823  54.063 -54.440  1.00  0.00     0.280 HD
HETATM    3  C   UNL     1     -41.302  55.948 -55.100  1.00  0.00     0.241 C 
HETATM    4  C   UNL     1     -42.348  56.983 -55.513  1.00  0.00     0.031 C 
HETATM    5  C   UNL     1     -43.636  56.164 -55.475  1.00  0.00     0.035 C 
HETATM    6  C   UNL     1     -43.498  55.263 -54.258  1.00  0.00     0.235 C 
ENDROOT
BRANCH   1   7
HETATM    7  C   UNL     1     -41.528  55.055 -52.688  1.00  0.00     0.274 C 
BRANCH   7   8
HETATM    8  C   UNL     1     -40.902  53.767 -52.221  1.00  0.00    -0.012 A 
HETATM    9  C   UNL     1     -40.830  53.415 -50.861  1.00  0.00     0.021 A 
HETATM   10  C   UNL     1     -40.246  52.212 -50.470  1.00  0.00     0.059 A 
HETATM   11 BR   UNL     1     -41.534  54.536 -49.499  1.00  0.00    -0.050 Br
HETATM   12  C   UNL     1     -39.747  51.351 -51.439  1.00  0.00     0.100 A 
HETATM   13  C   UNL     1     -39.816  51.657 -52.799  1.00  0.00     0.101 A 
HETATM   14  C   UNL     1     -40.378  52.873 -53.184  1.00  0.00     0.049 A 
BRANCH  12  15
HETATM   15  O   UNL     1     -39.189  50.176 -51.019  1.00  0.00    -0.358 OA
HETATM   16  H   UNL     1     -38.892  49.703 -51.821  1.00  0.00     0.218 HD
ENDBRANCH  12  15
BRANCH  13  17
HETATM   17  O   UNL     1     -39.301  50.706 -53.637  1.00  0.00    -0.353 OA
HETATM   18  C   UNL     1     -40.209  50.021 -54.491  1.00  0.00     0.210 C 
ENDBRANCH  13  17
ENDBRANCH   7   8
ENDBRANCH   1   7
BRANCH   4  19
HETATM   19  C   UNL     1     -42.339  58.199 -54.567  1.00  0.00     0.127 C 
BRANCH  19  20
HETATM   20  N   UNL     1     -41.023  58.381 -53.948  1.00  0.00    -0.376 N 
HETATM   21  H   UNL     1     -40.331  57.687 -54.216  1.00  0.00     0.161 HD
BRANCH  20  22
HETATM   22  C   UNL     1     -40.942  58.853 -52.642  1.00  0.00     0.100 A 
HETATM   23  N   UNL     1     -42.084  59.150 -51.994  1.00  0.00    -0.353 N 
HETATM   24  H   UNL     1     -42.965  59.015 -52.479  1.00  0.00     0.166 HD
HETATM   25  C   UNL     1     -42.128  59.605 -50.730  1.00  0.00     0.089 A 
HETATM   26  C   UNL     1     -40.958  59.779 -50.011  1.00  0.00     0.017 A 
HETATM   27  C   UNL     1     -39.751  59.463 -50.616  1.00  0.00     0.005 A 
HETATM   28  C   UNL     1     -39.742  58.993 -51.928  1.00  0.00     0.048 A 
ENDBRANCH  20  22
ENDBRANCH  19  20
ENDBRANCH   4  19
TORSDOF 7
ENDMDL
MODEL 6
REMARK VINA RESULT:      -6.8      2.007      2.863
REMARK  7 active torsions:
REMARK  status: ('A' for Active; 'I' for Inactive)
REMARK    1  A    between atoms: O_2  and  C_3 
REMARK    2  A    between atoms: C_4  and  O_5 
REMARK    3  A    between atoms: C_9  and  C_10 
REMARK    4  A    between atoms: C_10  and  N_11 
REMARK    5  A    between atoms: C_14  and  C_15 
REMARK    6  A    between atoms: C_15  and  N_16 
REMARK    7  A    between atoms: N_16  and  C_17 
ROOT
HETATM    1  N   UNL     1     -41.737  55.324 -53.577  1.00  0.00    -0.067 N 
HETATM    2  H   UNL     1     -41.909  55.447 -52.566  1.00  0.00     0.280 HD
HETATM    3  C   UNL     1     -43.045  54.864 -54.187  1.00  0.00     0.241 C 
HETATM    4  C   UNL     1     -43.279  55.779 -55.388  1.00  0.00     0.031 C 
HETATM    5  C   UNL     1     -42.668  57.093 -54.908  1.00  0.00     0.035 C 
HETATM    6  C   UNL     1     -41.417  56.693 -54.142  1.00  0.00     0.235 C 
ENDROOT
BRANCH   1   7
HETATM    7  C   UNL     1     -40.570  54.362 -53.649  1.00  0.00     0.274 C 
BRANCH   7   8
HETATM    8  C   UNL     1     -40.498  53.389 -52.502  1.00  0.00    -0.012 A 
HETATM    9  C   UNL     1     -40.088  52.055 -52.671  1.00  0.00     0.021 A 
HETATM   10  C   UNL     1     -40.032  51.186 -51.582  1.00  0.00     0.059 A 
HETATM   11 BR   UNL     1     -39.574  51.374 -54.368  1.00  0.00    -0.050 Br
HETATM   12  C   UNL     1     -40.371  51.655 -50.319  1.00  0.00     0.100 A 
HETATM   13  C   UNL     1     -40.765  52.978 -50.109  1.00  0.00     0.101 A 
HETATM   14  C   UNL     1     -40.845  53.836 -51.205  1.00  0.00     0.049 A 
BRANCH  12  15
HETATM   15  O   UNL     1     -40.295  50.778 -49.274  1.00  0.00    -0.358 OA
HETATM   16  H   UNL     1     -40.396  51.305 -48.457  1.00  0.00     0.218 HD
ENDBRANCH  12  15
BRANCH  13  17
HETATM   17  O   UNL     1     -41.050  53.300 -48.810  1.00  0.00    -0.353 OA
HETATM   18  C   UNL     1     -40.134  54.148 -48.128  1.00  0.00     0.210 C 
ENDBRANCH  13  17
ENDBRANCH   7   8
ENDBRANCH   1   7
BRANCH   4  19
HETATM   19  C   UNL     1     -42.635  55.207 -56.665  1.00  0.00     0.127 C 
BRANCH  19  20
HETATM   20  N   UNL     1     -42.750  56.146 -57.783  1.00  0.00    -0.376 N 
HETATM   21  H   UNL     1     -42.469  57.099 -57.566  1.00  0.00     0.161 HD
BRANCH  20  22
HETATM   22  C   UNL     1     -43.799  56.009 -58.686  1.00  0.00     0.100 A 
HETATM   23  N   UNL     1     -44.843  56.854 -58.593  1.00  0.00    -0.353 N 
HETATM   24  H   UNL     1     -44.825  57.566 -57.869  1.00  0.00     0.166 HD
HETATM   25  C   UNL     1     -45.906  56.822 -59.414  1.00  0.00     0.089 A 
HETATM   26  C   UNL     1     -45.968  55.891 -60.438  1.00  0.00     0.017 A 
HETATM   27  C   UNL     1     -44.909  55.011 -60.602  1.00  0.00     0.005 A 
HETATM   28  C   UNL     1     -43.821  55.073 -59.732  1.00  0.00     0.048 A 
ENDBRANCH  20  22
ENDBRANCH  19  20
ENDBRANCH   4  19
TORSDOF 7
ENDMDL
MODEL 7
REMARK VINA RESULT:      -6.7      4.031      8.435
REMARK  7 active torsions:
REMARK  status: ('A' for Active; 'I' for Inactive)
REMARK    1  A    between atoms: O_2  and  C_3 
REMARK    2  A    between atoms: C_4  and  O_5 
REMARK    3  A    between atoms: C_9  and  C_10 
REMARK    4  A    between atoms: C_10  and  N_11 
REMARK    5  A    between atoms: C_14  and  C_15 
REMARK    6  A    between atoms: C_15  and  N_16 
REMARK    7  A    between atoms: N_16  and  C_17 
ROOT
HETATM    1  N   UNL     1     -41.946  55.202 -56.108  1.00  0.00    -0.067 N 
HETATM    2  H   UNL     1     -41.785  54.943 -57.095  1.00  0.00     0.280 HD
HETATM    3  C   UNL     1     -43.126  54.382 -55.630  1.00  0.00     0.241 C 
HETATM    4  C   UNL     1     -42.676  53.749 -54.314  1.00  0.00     0.031 C 
HETATM    5  C   UNL     1     -41.186  53.528 -54.562  1.00  0.00     0.035 C 
HETATM    6  C   UNL     1     -40.725  54.759 -55.327  1.00  0.00     0.235 C 
ENDROOT
BRANCH   1   7
HETATM    7  C   UNL     1     -42.121  56.705 -56.136  1.00  0.00     0.274 C 
BRANCH   7   8
HETATM    8  C   UNL     1     -42.673  57.241 -57.430  1.00  0.00    -0.012 A 
HETATM    9  C   UNL     1     -42.916  58.611 -57.636  1.00  0.00     0.021 A 
HETATM   10  C   UNL     1     -43.426  59.066 -58.851  1.00  0.00     0.059 A 
HETATM   11 BR   UNL     1     -42.550  59.904 -56.294  1.00  0.00    -0.050 Br
HETATM   12  C   UNL     1     -43.678  58.154 -59.868  1.00  0.00     0.100 A 
HETATM   13  C   UNL     1     -43.433  56.790 -59.707  1.00  0.00     0.101 A 
HETATM   14  C   UNL     1     -42.948  56.335 -58.482  1.00  0.00     0.049 A 
BRANCH  12  15
HETATM   15  O   UNL     1     -44.169  58.638 -61.047  1.00  0.00    -0.358 OA
HETATM   16  H   UNL     1     -43.398  58.832 -61.615  1.00  0.00     0.218 HD
ENDBRANCH  12  15
BRANCH  13  17
HETATM   17  O   UNL     1     -43.712  56.016 -60.801  1.00  0.00    -0.353 OA
HETATM   18  C   UNL     1     -44.887  55.216 -60.757  1.00  0.00     0.210 C 
ENDBRANCH  13  17
ENDBRANCH   7   8
ENDBRANCH   1   7
BRANCH   4  19
HETATM   19  C   UNL     1     -42.994  54.661 -53.114  1.00  0.00     0.127 C 
BRANCH  19  20
HETATM   20  N   UNL     1     -43.059  53.894 -51.867  1.00  0.00    -0.376 N 
HETATM   21  H   UNL     1     -43.990  53.813 -51.468  1.00  0.00     0.161 HD
BRANCH  20  22
HETATM   22  C   UNL     1     -42.010  53.978 -50.958  1.00  0.00     0.100 A 
HETATM   23  N   UNL     1     -42.127  54.823 -49.917  1.00  0.00    -0.353 N 
HETATM   24  H   UNL     1     -42.980  55.367 -49.829  1.00  0.00     0.166 HD
HETATM   25  C   UNL     1     -41.184  54.981 -48.973  1.00  0.00     0.089 A 
HETATM   26  C   UNL     1     -40.014  54.242 -49.026  1.00  0.00     0.017 A 
HETATM   27  C   UNL     1     -39.847  53.333 -50.060  1.00  0.00     0.005 A 
HETATM   28  C   UNL     1     -40.847  53.194 -51.022  1.00  0.00     0.048 A 
ENDBRANCH  20  22
ENDBRANCH  19  20
ENDBRANCH   4  19
TORSDOF 7
ENDMDL
MODEL 8
REMARK VINA RESULT:      -6.6      3.868      7.579
REMARK  7 active torsions:
REMARK  status: ('A' for Active; 'I' for Inactive)
REMARK    1  A    between atoms: O_2  and  C_3 
REMARK    2  A    between atoms: C_4  and  O_5 
REMARK    3  A    between atoms: C_9  and  C_10 
REMARK    4  A    between atoms: C_10  and  N_11 
REMARK    5  A    between atoms: C_14  and  C_15 
REMARK    6  A    between atoms: C_15  and  N_16 
REMARK    7  A    between atoms: N_16  and  C_17 
ROOT
HETATM    1  N   UNL     1     -42.673  57.985 -54.044  1.00  0.00    -0.067 N 
HETATM    2  H   UNL     1     -42.463  58.859 -54.554  1.00  0.00     0.280 HD
HETATM    3  C   UNL     1     -41.369  57.222 -53.935  1.00  0.00     0.241 C 
HETATM    4  C   UNL     1     -41.246  56.835 -52.462  1.00  0.00     0.031 C 
HETATM    5  C   UNL     1     -41.911  58.020 -51.767  1.00  0.00     0.035 C 
HETATM    6  C   UNL     1     -43.100  58.378 -52.645  1.00  0.00     0.235 C 
ENDROOT
BRANCH   1   7
HETATM    7  C   UNL     1     -43.782  57.338 -54.845  1.00  0.00     0.274 C 
BRANCH   7   8
HETATM    8  C   UNL     1     -43.454  57.125 -56.300  1.00  0.00    -0.012 A 
HETATM    9  C   UNL     1     -43.171  55.854 -56.830  1.00  0.00     0.021 A 
HETATM   10  C   UNL     1     -42.874  55.700 -58.183  1.00  0.00     0.059 A 
HETATM   11 BR   UNL     1     -43.196  54.292 -55.750  1.00  0.00    -0.050 Br
HETATM   12  C   UNL     1     -42.876  56.814 -59.011  1.00  0.00     0.100 A 
HETATM   13  C   UNL     1     -43.169  58.090 -58.526  1.00  0.00     0.101 A 
HETATM   14  C   UNL     1     -43.440  58.243 -57.166  1.00  0.00     0.049 A 
BRANCH  12  15
HETATM   15  O   UNL     1     -42.589  56.624 -60.334  1.00  0.00    -0.358 OA
HETATM   16  H   UNL     1     -43.327  56.105 -60.710  1.00  0.00     0.218 HD
ENDBRANCH  12  15
BRANCH  13  17
HETATM   17  O   UNL     1     -43.151  59.087 -59.461  1.00  0.00    -0.353 OA
HETATM   18  C   UNL     1     -42.097  60.039 -59.387  1.00  0.00     0.210 C 
ENDBRANCH  13  17
ENDBRANCH   7   8
ENDBRANCH   1   7
BRANCH   4  19
HETATM   19  C   UNL     1     -41.912  55.475 -52.179  1.00  0.00     0.127 C 
BRANCH  19  20
HETATM   20  N   UNL     1     -41.000  54.575 -51.469  1.00  0.00    -0.376 N 
HETATM   21  H   UNL     1     -40.357  55.040 -50.833  1.00  0.00     0.161 HD
BRANCH  20  22
HETATM   22  C   UNL     1     -40.509  53.447 -52.119  1.00  0.00     0.100 A 
HETATM   23  N   UNL     1     -39.972  52.460 -51.378  1.00  0.00    -0.353 N 
HETATM   24  H   UNL     1     -39.947  52.572 -50.369  1.00  0.00     0.166 HD
HETATM   25  C   UNL     1     -39.475  51.324 -51.894  1.00  0.00     0.089 A 
HETATM   26  C   UNL     1     -39.511  51.106 -53.262  1.00  0.00     0.017 A 
HETATM   27  C   UNL     1     -40.079  52.074 -54.075  1.00  0.00     0.005 A 
HETATM   28  C   UNL     1     -40.585  53.242 -53.505  1.00  0.00     0.048 A 
ENDBRANCH  20  22
ENDBRANCH  19  20
ENDBRANCH   4  19
TORSDOF 7
ENDMDL
MODEL 9
REMARK VINA RESULT:      -6.4      4.197      7.466
REMARK  7 active torsions:
REMARK  status: ('A' for Active; 'I' for Inactive)
REMARK    1  A    between atoms: O_2  and  C_3 
REMARK    2  A    between atoms: C_4  and  O_5 
REMARK    3  A    between atoms: C_9  and  C_10 
REMARK    4  A    between atoms: C_10  and  N_11 
REMARK    5  A    between atoms: C_14  and  C_15 
REMARK    6  A    between atoms: C_15  and  N_16 
REMARK    7  A    between atoms: N_16  and  C_17 
ROOT
HETATM    1  N   UNL     1     -42.940  56.513 -54.706  1.00  0.00    -0.067 N 
HETATM    2  H   UNL     1     -43.870  56.955 -54.623  1.00  0.00     0.280 HD
HETATM    3  C   UNL     1     -42.827  55.524 -53.565  1.00  0.00     0.241 C 
HETATM    4  C   UNL     1     -42.363  54.216 -54.205  1.00  0.00     0.031 C 
HETATM    5  C   UNL     1     -43.039  54.276 -55.573  1.00  0.00     0.035 C 
HETATM    6  C   UNL     1     -42.934  55.730 -56.003  1.00  0.00     0.235 C 
ENDROOT
BRANCH   1   7
HETATM    7  C   UNL     1     -41.968  57.674 -54.708  1.00  0.00     0.274 C 
BRANCH   7   8
HETATM    8  C   UNL     1     -42.138  58.626 -53.552  1.00  0.00    -0.012 A 
HETATM    9  C   UNL     1     -43.282  59.430 -53.401  1.00  0.00     0.021 A 
HETATM   10  C   UNL     1     -43.401  60.296 -52.316  1.00  0.00     0.059 A 
HETATM   11 BR   UNL     1     -44.719  59.367 -54.641  1.00  0.00    -0.050 Br
HETATM   12  C   UNL     1     -42.384  60.348 -51.371  1.00  0.00     0.100 A 
HETATM   13  C   UNL     1     -41.242  59.552 -51.477  1.00  0.00     0.101 A 
HETATM   14  C   UNL     1     -41.115  58.706 -52.579  1.00  0.00     0.049 A 
BRANCH  12  15
HETATM   15  O   UNL     1     -42.540  61.202 -50.316  1.00  0.00    -0.358 OA
HETATM   16  H   UNL     1     -41.676  61.636 -50.175  1.00  0.00     0.218 HD
ENDBRANCH  12  15
BRANCH  13  17
HETATM   17  O   UNL     1     -40.336  59.697 -50.464  1.00  0.00    -0.353 OA
HETATM   18  C   UNL     1     -38.974  59.402 -50.752  1.00  0.00     0.210 C 
ENDBRANCH  13  17
ENDBRANCH   7   8
ENDBRANCH   1   7
BRANCH   4  19
HETATM   19  C   UNL     1     -40.826  54.129 -54.257  1.00  0.00     0.127 C 
BRANCH  19  20
HETATM   20  N   UNL     1     -40.281  53.601 -53.004  1.00  0.00    -0.376 N 
HETATM   21  H   UNL     1     -39.605  54.207 -52.548  1.00  0.00     0.161 HD
BRANCH  20  22
HETATM   22  C   UNL     1     -40.058  52.233 -52.879  1.00  0.00     0.100 A 
HETATM   23  N   UNL     1     -40.130  51.466 -53.983  1.00  0.00    -0.353 N 
HETATM   24  H   UNL     1     -40.341  51.914 -54.870  1.00  0.00     0.166 HD
HETATM   25  C   UNL     1     -39.926  50.138 -53.985  1.00  0.00     0.089 A 
HETATM   26  C   UNL     1     -39.605  49.481 -52.808  1.00  0.00     0.017 A 
HETATM   27  C   UNL     1     -39.487  50.222 -51.643  1.00  0.00     0.005 A 
HETATM   28  C   UNL     1     -39.706  51.599 -51.678  1.00  0.00     0.048 A 
ENDBRANCH  20  22
ENDBRANCH  19  20
ENDBRANCH   4  19
TORSDOF 7
ENDMDL
MODEL 10
REMARK VINA RESULT:      -6.3     15.067     17.902
REMARK  7 active torsions:
REMARK  status: ('A' for Active; 'I' for Inactive)
REMARK    1  A    between atoms: O_2  and  C_3 
REMARK    2  A    between atoms: C_4  and  O_5 
REMARK    3  A    between atoms: C_9  and  C_10 
REMARK    4  A    between atoms: C_10  and  N_11 
REMARK    5  A    between atoms: C_14  and  C_15 
REMARK    6  A    between atoms: C_15  and  N_16 
REMARK    7  A    between atoms: N_16  and  C_17 
ROOT
HETATM    1  N   UNL     1     -38.370  40.234 -58.352  1.00  0.00    -0.067 N 
HETATM    2  H   UNL     1     -39.321  40.455 -58.691  1.00  0.00     0.280 HD
HETATM    3  C   UNL     1     -37.439  41.253 -58.976  1.00  0.00     0.241 C 
HETATM    4  C   UNL     1     -36.606  41.805 -57.821  1.00  0.00     0.031 C 
HETATM    5  C   UNL     1     -37.600  41.758 -56.663  1.00  0.00     0.035 C 
HETATM    6  C   UNL     1     -38.370  40.460 -56.854  1.00  0.00     0.235 C 
ENDROOT
BRANCH   1   7
HETATM    7  C   UNL     1     -38.159  38.785 -58.735  1.00  0.00     0.274 C 
BRANCH   7   8
HETATM    8  C   UNL     1     -38.588  38.446 -60.138  1.00  0.00    -0.012 A 
HETATM    9  C   UNL     1     -37.669  38.289 -61.190  1.00  0.00     0.021 A 
HETATM   10  C   UNL     1     -38.107  37.972 -62.474  1.00  0.00     0.059 A 
HETATM   11 BR   UNL     1     -35.798  38.478 -60.919  1.00  0.00    -0.050 Br
HETATM   12  C   UNL     1     -39.465  37.796 -62.706  1.00  0.00     0.100 A 
HETATM   13  C   UNL     1     -40.407  37.926 -61.684  1.00  0.00     0.101 A 
HETATM   14  C   UNL     1     -39.966  38.268 -60.406  1.00  0.00     0.049 A 
BRANCH  12  15
HETATM   15  O   UNL     1     -39.858  37.478 -63.975  1.00  0.00    -0.358 OA
HETATM   16  H   UNL     1     -39.772  38.292 -64.509  1.00  0.00     0.218 HD
ENDBRANCH  12  15
BRANCH  13  17
HETATM   17  O   UNL     1     -41.704  37.705 -62.056  1.00  0.00    -0.353 OA
HETATM   18  C   UNL     1     -42.518  36.933 -61.181  1.00  0.00     0.210 C 
ENDBRANCH  13  17
ENDBRANCH   7   8
ENDBRANCH   1   7
BRANCH   4  19
HETATM   19  C   UNL     1     -35.330  40.971 -57.598  1.00  0.00     0.127 C 
BRANCH  19  20
HETATM   20  N   UNL     1     -34.368  41.688 -56.757  1.00  0.00    -0.376 N 
HETATM   21  H   UNL     1     -34.067  42.585 -57.129  1.00  0.00     0.161 HD
BRANCH  20  22
HETATM   22  C   UNL     1     -33.412  40.968 -56.047  1.00  0.00     0.100 A 
HETATM   23  N   UNL     1     -33.499  40.935 -54.704  1.00  0.00    -0.353 N 
HETATM   24  H   UNL     1     -34.261  41.434 -54.256  1.00  0.00     0.166 HD
HETATM   25  C   UNL     1     -32.639  40.267 -53.917  1.00  0.00     0.089 A 
HETATM   26  C   UNL     1     -31.598  39.545 -54.477  1.00  0.00     0.017 A 
HETATM   27  C   UNL     1     -31.474  39.517 -55.857  1.00  0.00     0.005 A 
HETATM   28  C   UNL     1     -32.385  40.222 -56.644  1.00  0.00     0.048 A 
ENDBRANCH  20  22
ENDBRANCH  19  20
ENDBRANCH   4  19
TORSDOF 7
ENDMDL
