MODEL 1
REMARK VINA RESULT:      -8.4      0.000      0.000
REMARK  5 active torsions:
REMARK  status: ('A' for Active; 'I' for Inactive)
REMARK    1  A    between atoms: N_3  and  C_4 
REMARK    2  A    between atoms: C_5  and  C_6 
REMARK    3  A    between atoms: C_15  and  C_16 
REMARK       I    between atoms: C_16  and  N_17 
REMARK    4  A    between atoms: N_17  and  N_18 
REMARK       I    between atoms: N_18  and  C_19 
REMARK    5  A    between atoms: C_19  and  C_20 
ROOT
HETATM    1  C   UNL     1     -43.770  54.626 -50.587  1.00  0.00     0.070 C 
HETATM    2  C   UNL     1     -43.347  55.721 -51.539  1.00  0.00     0.036 A 
HETATM    3  N   UNL     1     -42.187  55.575 -52.310  1.00  0.00    -0.237 N 
HETATM    4  N   UNL     1     -41.644  56.582 -53.065  1.00  0.00    -0.158 NA
HETATM    5  C   UNL     1     -42.277  57.721 -53.144  1.00  0.00     0.196 A 
HETATM    6  C   UNL     1     -43.599  57.917 -52.450  1.00  0.00     0.209 A 
HETATM    7  O   UNL     1     -44.242  58.944 -52.621  1.00  0.00    -0.286 OA
HETATM    8  C   UNL     1     -44.075  56.846 -51.571  1.00  0.00     0.084 A 
ENDROOT
BRANCH   5   9
HETATM    9  C   UNL     1     -41.612  58.828 -53.956  1.00  0.00     0.294 C 
HETATM   10  N   UNL     1     -42.223  59.155 -55.151  1.00  0.00    -0.261 N 
HETATM   11  H   UNL     1     -43.154  58.806 -55.409  1.00  0.00     0.190 HD
HETATM   12  O   UNL     1     -40.602  59.391 -53.549  1.00  0.00    -0.264 OA
BRANCH  10  13
HETATM   13  N   UNL     1     -41.756  60.286 -55.837  1.00  0.00    -0.262 N 
HETATM   14  C   UNL     1     -41.735  60.277 -57.215  1.00  0.00     0.286 C 
HETATM   15  O   UNL     1     -42.007  59.268 -57.865  1.00  0.00    -0.264 OA
HETATM   16  H   UNL     1     -41.629  61.132 -55.287  1.00  0.00     0.190 HD
BRANCH  14  17
HETATM   17  C   UNL     1     -41.378  61.531 -57.843  1.00  0.00     0.102 A 
HETATM   18  N   UNL     1     -41.824  62.735 -57.338  1.00  0.00    -0.361 N 
HETATM   19  H   UNL     1     -42.413  62.814 -56.517  1.00  0.00     0.165 HD
HETATM   20  C   UNL     1     -41.358  63.773 -58.098  1.00  0.00     0.088 A 
HETATM   21  C   UNL     1     -40.594  63.242 -59.111  1.00  0.00     0.019 A 
HETATM   22  C   UNL     1     -40.606  61.834 -58.954  1.00  0.00     0.036 A 
ENDBRANCH  14  17
ENDBRANCH  10  13
ENDBRANCH   5   9
BRANCH   3  23
HETATM   23  C   UNL     1     -41.408  54.379 -52.351  1.00  0.00     0.073 A 
HETATM   24  C   UNL     1     -40.496  54.046 -51.326  1.00  0.00     0.076 A 
HETATM   25  C   UNL     1     -39.725  52.870 -51.447  1.00  0.00     0.018 A 
HETATM   26  C   UNL     1     -39.859  52.030 -52.550  1.00  0.00     0.001 A 
HETATM   27  C   UNL     1     -40.755  52.355 -53.560  1.00  0.00     0.002 A 
HETATM   28  C   UNL     1     -41.515  53.521 -53.464  1.00  0.00     0.032 A 
BRANCH  24  29
HETATM   29  C   UNL     1     -40.322  54.906 -50.098  1.00  0.00     0.419 C 
HETATM   30  F   UNL     1     -41.265  54.713 -49.130  1.00  0.00    -0.166 F 
HETATM   31  F   UNL     1     -39.132  54.658 -49.465  1.00  0.00    -0.166 F 
HETATM   32  F   UNL     1     -40.301  56.240 -50.365  1.00  0.00    -0.166 F 
ENDBRANCH  24  29
ENDBRANCH   3  23
TORSDOF 5
ENDMDL
MODEL 2
REMARK VINA RESULT:      -8.4      2.146      2.681
REMARK  5 active torsions:
REMARK  status: ('A' for Active; 'I' for Inactive)
REMARK    1  A    between atoms: N_3  and  C_4 
REMARK    2  A    between atoms: C_5  and  C_6 
REMARK    3  A    between atoms: C_15  and  C_16 
REMARK       I    between atoms: C_16  and  N_17 
REMARK    4  A    between atoms: N_17  and  N_18 
REMARK       I    between atoms: N_18  and  C_19 
REMARK    5  A    between atoms: C_19  and  C_20 
ROOT
HETATM    1  C   UNL     1     -43.503  54.649 -50.709  1.00  0.00     0.070 C 
HETATM    2  C   UNL     1     -43.185  55.812 -51.620  1.00  0.00     0.036 A 
HETATM    3  N   UNL     1     -42.237  55.669 -52.641  1.00  0.00    -0.237 N 
HETATM    4  N   UNL     1     -41.769  56.712 -53.396  1.00  0.00    -0.158 NA
HETATM    5  C   UNL     1     -42.286  57.898 -53.222  1.00  0.00     0.196 A 
HETATM    6  C   UNL     1     -43.403  58.112 -52.234  1.00  0.00     0.209 A 
HETATM    7  O   UNL     1     -43.961  59.198 -52.157  1.00  0.00    -0.286 OA
HETATM    8  C   UNL     1     -43.786  56.986 -51.380  1.00  0.00     0.084 A 
ENDROOT
BRANCH   5   9
HETATM    9  C   UNL     1     -41.701  59.038 -54.050  1.00  0.00     0.294 C 
HETATM   10  N   UNL     1     -42.489  59.501 -55.086  1.00  0.00    -0.261 N 
HETATM   11  H   UNL     1     -43.472  59.225 -55.198  1.00  0.00     0.190 HD
HETATM   12  O   UNL     1     -40.601  59.510 -53.788  1.00  0.00    -0.264 OA
BRANCH  10  13
HETATM   13  N   UNL     1     -42.076  60.664 -55.752  1.00  0.00    -0.262 N 
HETATM   14  C   UNL     1     -41.729  60.588 -57.084  1.00  0.00     0.286 C 
HETATM   15  O   UNL     1     -41.662  59.515 -57.682  1.00  0.00    -0.264 OA
HETATM   16  H   UNL     1     -42.229  61.545 -55.269  1.00  0.00     0.190 HD
BRANCH  14  17
HETATM   17  C   UNL     1     -41.456  61.854 -57.731  1.00  0.00     0.102 A 
HETATM   18  N   UNL     1     -42.065  63.018 -57.310  1.00  0.00    -0.361 N 
HETATM   19  H   UNL     1     -42.726  63.058 -56.543  1.00  0.00     0.165 HD
HETATM   20  C   UNL     1     -41.650  64.076 -58.072  1.00  0.00     0.088 A 
HETATM   21  C   UNL     1     -40.754  63.600 -59.000  1.00  0.00     0.019 A 
HETATM   22  C   UNL     1     -40.630  62.204 -58.789  1.00  0.00     0.036 A 
ENDBRANCH  14  17
ENDBRANCH  10  13
ENDBRANCH   5   9
BRANCH   3  23
HETATM   23  C   UNL     1     -41.609  54.428 -52.971  1.00  0.00     0.073 A 
HETATM   24  C   UNL     1     -41.978  53.686 -54.113  1.00  0.00     0.076 A 
HETATM   25  C   UNL     1     -41.349  52.447 -54.361  1.00  0.00     0.018 A 
HETATM   26  C   UNL     1     -40.363  51.956 -53.508  1.00  0.00     0.001 A 
HETATM   27  C   UNL     1     -39.998  52.684 -52.383  1.00  0.00     0.002 A 
HETATM   28  C   UNL     1     -40.620  53.904 -52.115  1.00  0.00     0.032 A 
BRANCH  24  29
HETATM   29  C   UNL     1     -43.025  54.177 -55.085  1.00  0.00     0.419 C 
HETATM   30  F   UNL     1     -42.592  55.144 -55.946  1.00  0.00    -0.166 F 
HETATM   31  F   UNL     1     -43.473  53.172 -55.902  1.00  0.00    -0.166 F 
HETATM   32  F   UNL     1     -44.145  54.660 -54.482  1.00  0.00    -0.166 F 
ENDBRANCH  24  29
ENDBRANCH   3  23
TORSDOF 5
ENDMDL
MODEL 3
REMARK VINA RESULT:      -8.1      4.526      9.028
REMARK  5 active torsions:
REMARK  status: ('A' for Active; 'I' for Inactive)
REMARK    1  A    between atoms: N_3  and  C_4 
REMARK    2  A    between atoms: C_5  and  C_6 
REMARK    3  A    between atoms: C_15  and  C_16 
REMARK       I    between atoms: C_16  and  N_17 
REMARK    4  A    between atoms: N_17  and  N_18 
REMARK       I    between atoms: N_18  and  C_19 
REMARK    5  A    between atoms: C_19  and  C_20 
ROOT
HETATM    1  C   UNL     1     -43.960  60.471 -56.118  1.00  0.00     0.070 C 
HETATM    2  C   UNL     1     -43.307  59.118 -55.953  1.00  0.00     0.036 A 
HETATM    3  N   UNL     1     -43.561  58.096 -56.875  1.00  0.00    -0.237 N 
HETATM    4  N   UNL     1     -43.148  56.800 -56.706  1.00  0.00    -0.158 NA
HETATM    5  C   UNL     1     -42.407  56.504 -55.674  1.00  0.00     0.196 A 
HETATM    6  C   UNL     1     -41.979  57.573 -54.702  1.00  0.00     0.209 A 
HETATM    7  O   UNL     1     -41.191  57.314 -53.803  1.00  0.00    -0.286 OA
HETATM    8  C   UNL     1     -42.539  58.916 -54.873  1.00  0.00     0.084 A 
ENDROOT
BRANCH   5   9
HETATM    9  C   UNL     1     -42.011  55.041 -55.501  1.00  0.00     0.294 C 
HETATM   10  N   UNL     1     -40.661  54.793 -55.343  1.00  0.00    -0.261 N 
HETATM   11  H   UNL     1     -39.976  55.541 -55.181  1.00  0.00     0.190 HD
HETATM   12  O   UNL     1     -42.857  54.154 -55.491  1.00  0.00    -0.264 OA
BRANCH  10  13
HETATM   13  N   UNL     1     -40.272  53.490 -54.997  1.00  0.00    -0.262 N 
HETATM   14  C   UNL     1     -40.225  53.133 -53.666  1.00  0.00     0.286 C 
HETATM   15  O   UNL     1     -40.406  53.951 -52.765  1.00  0.00    -0.264 OA
HETATM   16  H   UNL     1     -40.220  52.814 -55.754  1.00  0.00     0.190 HD
BRANCH  14  17
HETATM   17  C   UNL     1     -39.956  51.735 -53.404  1.00  0.00     0.102 A 
HETATM   18  N   UNL     1     -39.706  51.283 -52.125  1.00  0.00    -0.361 N 
HETATM   19  H   UNL     1     -39.694  51.886 -51.310  1.00  0.00     0.165 HD
HETATM   20  C   UNL     1     -39.482  49.934 -52.132  1.00  0.00     0.088 A 
HETATM   21  C   UNL     1     -39.591  49.495 -53.430  1.00  0.00     0.019 A 
HETATM   22  C   UNL     1     -39.889  50.626 -54.232  1.00  0.00     0.036 A 
ENDBRANCH  14  17
ENDBRANCH  10  13
ENDBRANCH   5   9
BRANCH   3  23
HETATM   23  C   UNL     1     -44.328  58.275 -58.067  1.00  0.00     0.073 A 
HETATM   24  C   UNL     1     -43.742  58.725 -59.270  1.00  0.00     0.076 A 
HETATM   25  C   UNL     1     -44.562  58.923 -60.402  1.00  0.00     0.018 A 
HETATM   26  C   UNL     1     -45.930  58.668 -60.354  1.00  0.00     0.001 A 
HETATM   27  C   UNL     1     -46.510  58.226 -59.172  1.00  0.00     0.002 A 
HETATM   28  C   UNL     1     -45.717  58.040 -58.039  1.00  0.00     0.032 A 
BRANCH  24  29
HETATM   29  C   UNL     1     -42.262  58.998 -59.388  1.00  0.00     0.419 C 
HETATM   30  F   UNL     1     -41.460  57.961 -59.004  1.00  0.00    -0.166 F 
HETATM   31  F   UNL     1     -41.891  59.250 -60.683  1.00  0.00    -0.166 F 
HETATM   32  F   UNL     1     -41.851  60.092 -58.691  1.00  0.00    -0.166 F 
ENDBRANCH  24  29
ENDBRANCH   3  23
TORSDOF 5
ENDMDL
MODEL 4
REMARK VINA RESULT:      -7.8      4.661      5.657
REMARK  5 active torsions:
REMARK  status: ('A' for Active; 'I' for Inactive)
REMARK    1  A    between atoms: N_3  and  C_4 
REMARK    2  A    between atoms: C_5  and  C_6 
REMARK    3  A    between atoms: C_15  and  C_16 
REMARK       I    between atoms: C_16  and  N_17 
REMARK    4  A    between atoms: N_17  and  N_18 
REMARK       I    between atoms: N_18  and  C_19 
REMARK    5  A    between atoms: C_19  and  C_20 
ROOT
HETATM    1  C   UNL     1     -40.786  58.271 -53.119  1.00  0.00     0.070 C 
HETATM    2  C   UNL     1     -41.739  58.029 -54.266  1.00  0.00     0.036 A 
HETATM    3  N   UNL     1     -42.415  56.807 -54.375  1.00  0.00    -0.237 N 
HETATM    4  N   UNL     1     -43.160  56.445 -55.467  1.00  0.00    -0.158 NA
HETATM    5  C   UNL     1     -43.324  57.308 -56.432  1.00  0.00     0.196 A 
HETATM    6  C   UNL     1     -42.738  58.692 -56.334  1.00  0.00     0.209 A 
HETATM    7  O   UNL     1     -42.990  59.534 -57.186  1.00  0.00    -0.286 OA
HETATM    8  C   UNL     1     -41.863  58.986 -55.197  1.00  0.00     0.084 A 
ENDROOT
BRANCH   5   9
HETATM    9  C   UNL     1     -44.119  56.845 -57.649  1.00  0.00     0.294 C 
HETATM   10  N   UNL     1     -45.431  57.274 -57.715  1.00  0.00    -0.261 N 
HETATM   11  H   UNL     1     -45.809  57.994 -57.088  1.00  0.00     0.190 HD
HETATM   12  O   UNL     1     -43.603  56.144 -58.512  1.00  0.00    -0.264 OA
BRANCH  10  13
HETATM   13  N   UNL     1     -46.140  57.029 -58.901  1.00  0.00    -0.262 N 
HETATM   14  C   UNL     1     -46.923  58.029 -59.436  1.00  0.00     0.286 C 
HETATM   15  O   UNL     1     -47.109  59.095 -58.851  1.00  0.00    -0.264 OA
HETATM   16  H   UNL     1     -45.897  56.183 -59.410  1.00  0.00     0.190 HD
BRANCH  14  17
HETATM   17  C   UNL     1     -47.501  57.743 -60.731  1.00  0.00     0.102 A 
HETATM   18  N   UNL     1     -47.990  58.753 -61.535  1.00  0.00    -0.361 N 
HETATM   19  H   UNL     1     -47.974  59.732 -61.275  1.00  0.00     0.165 HD
HETATM   20  C   UNL     1     -48.483  58.237 -62.702  1.00  0.00     0.088 A 
HETATM   21  C   UNL     1     -48.312  56.873 -62.664  1.00  0.00     0.019 A 
HETATM   22  C   UNL     1     -47.696  56.560 -61.427  1.00  0.00     0.036 A 
ENDBRANCH  14  17
ENDBRANCH  10  13
ENDBRANCH   5   9
BRANCH   3  23
HETATM   23  C   UNL     1     -42.358  55.779 -53.385  1.00  0.00     0.073 A 
HETATM   24  C   UNL     1     -41.511  54.658 -53.521  1.00  0.00     0.076 A 
HETATM   25  C   UNL     1     -41.532  53.655 -52.528  1.00  0.00     0.018 A 
HETATM   26  C   UNL     1     -42.362  53.761 -51.414  1.00  0.00     0.001 A 
HETATM   27  C   UNL     1     -43.197  54.863 -51.278  1.00  0.00     0.002 A 
HETATM   28  C   UNL     1     -43.200  55.856 -52.257  1.00  0.00     0.032 A 
BRANCH  24  29
HETATM   29  C   UNL     1     -40.575  54.499 -54.695  1.00  0.00     0.419 C 
HETATM   30  F   UNL     1     -39.693  55.526 -54.862  1.00  0.00    -0.166 F 
HETATM   31  F   UNL     1     -39.781  53.389 -54.567  1.00  0.00    -0.166 F 
HETATM   32  F   UNL     1     -41.215  54.332 -55.884  1.00  0.00    -0.166 F 
ENDBRANCH  24  29
ENDBRANCH   3  23
TORSDOF 5
ENDMDL
MODEL 5
REMARK VINA RESULT:      -7.7      4.360      5.336
REMARK  5 active torsions:
REMARK  status: ('A' for Active; 'I' for Inactive)
REMARK    1  A    between atoms: N_3  and  C_4 
REMARK    2  A    between atoms: C_5  and  C_6 
REMARK    3  A    between atoms: C_15  and  C_16 
REMARK       I    between atoms: C_16  and  N_17 
REMARK    4  A    between atoms: N_17  and  N_18 
REMARK       I    between atoms: N_18  and  C_19 
REMARK    5  A    between atoms: C_19  and  C_20 
ROOT
HETATM    1  C   UNL     1     -40.438  57.892 -53.025  1.00  0.00     0.070 C 
HETATM    2  C   UNL     1     -41.364  57.878 -54.219  1.00  0.00     0.036 A 
HETATM    3  N   UNL     1     -41.705  56.666 -54.831  1.00  0.00    -0.237 N 
HETATM    4  N   UNL     1     -42.396  56.578 -56.012  1.00  0.00    -0.158 NA
HETATM    5  C   UNL     1     -42.837  57.674 -56.567  1.00  0.00     0.196 A 
HETATM    6  C   UNL     1     -42.625  59.010 -55.905  1.00  0.00     0.209 A 
HETATM    7  O   UNL     1     -43.138  60.020 -56.368  1.00  0.00    -0.286 OA
HETATM    8  C   UNL     1     -41.788  59.054 -54.703  1.00  0.00     0.084 A 
ENDROOT
BRANCH   5   9
HETATM    9  C   UNL     1     -43.558  57.533 -57.904  1.00  0.00     0.294 C 
HETATM   10  N   UNL     1     -44.724  56.792 -57.889  1.00  0.00    -0.261 N 
HETATM   11  H   UNL     1     -45.178  56.493 -57.017  1.00  0.00     0.190 HD
HETATM   12  O   UNL     1     -43.119  58.064 -58.917  1.00  0.00    -0.264 OA
BRANCH  10  13
HETATM   13  N   UNL     1     -45.513  56.791 -59.048  1.00  0.00    -0.262 N 
HETATM   14  C   UNL     1     -46.664  57.549 -59.080  1.00  0.00     0.286 C 
HETATM   15  O   UNL     1     -47.083  58.140 -58.085  1.00  0.00    -0.264 OA
HETATM   16  H   UNL     1     -45.101  56.375 -59.880  1.00  0.00     0.190 HD
BRANCH  14  17
HETATM   17  C   UNL     1     -47.339  57.607 -60.359  1.00  0.00     0.102 A 
HETATM   18  N   UNL     1     -47.586  56.463 -61.089  1.00  0.00    -0.361 N 
HETATM   19  H   UNL     1     -47.317  55.535 -60.784  1.00  0.00     0.165 HD
HETATM   20  C   UNL     1     -48.231  56.772 -62.255  1.00  0.00     0.088 A 
HETATM   21  C   UNL     1     -48.414  58.134 -62.287  1.00  0.00     0.019 A 
HETATM   22  C   UNL     1     -47.853  58.662 -61.096  1.00  0.00     0.036 A 
ENDBRANCH  14  17
ENDBRANCH  10  13
ENDBRANCH   5   9
BRANCH   3  23
HETATM   23  C   UNL     1     -41.323  55.386 -54.324  1.00  0.00     0.073 A 
HETATM   24  C   UNL     1     -41.982  54.792 -53.226  1.00  0.00     0.076 A 
HETATM   25  C   UNL     1     -41.530  53.544 -52.746  1.00  0.00     0.018 A 
HETATM   26  C   UNL     1     -40.458  52.887 -53.345  1.00  0.00     0.001 A 
HETATM   27  C   UNL     1     -39.807  53.469 -54.425  1.00  0.00     0.002 A 
HETATM   28  C   UNL     1     -40.232  54.709 -54.904  1.00  0.00     0.032 A 
BRANCH  24  29
HETATM   29  C   UNL     1     -43.163  55.446 -52.550  1.00  0.00     0.419 C 
HETATM   30  F   UNL     1     -44.094  55.961 -53.404  1.00  0.00    -0.166 F 
HETATM   31  F   UNL     1     -43.866  54.557 -51.779  1.00  0.00    -0.166 F 
HETATM   32  F   UNL     1     -42.816  56.447 -51.695  1.00  0.00    -0.166 F 
ENDBRANCH  24  29
ENDBRANCH   3  23
TORSDOF 5
ENDMDL
MODEL 6
REMARK VINA RESULT:      -7.7      3.954      5.564
REMARK  5 active torsions:
REMARK  status: ('A' for Active; 'I' for Inactive)
REMARK    1  A    between atoms: N_3  and  C_4 
REMARK    2  A    between atoms: C_5  and  C_6 
REMARK    3  A    between atoms: C_15  and  C_16 
REMARK       I    between atoms: C_16  and  N_17 
REMARK    4  A    between atoms: N_17  and  N_18 
REMARK       I    between atoms: N_18  and  C_19 
REMARK    5  A    between atoms: C_19  and  C_20 
ROOT
HETATM    1  C   UNL     1     -40.883  55.195 -49.144  1.00  0.00     0.070 C 
HETATM    2  C   UNL     1     -40.939  54.964 -50.637  1.00  0.00     0.036 A 
HETATM    3  N   UNL     1     -41.243  56.022 -51.502  1.00  0.00    -0.237 N 
HETATM    4  N   UNL     1     -41.480  55.863 -52.843  1.00  0.00    -0.158 NA
HETATM    5  C   UNL     1     -41.337  54.679 -53.372  1.00  0.00     0.196 A 
HETATM    6  C   UNL     1     -40.885  53.511 -52.535  1.00  0.00     0.209 A 
HETATM    7  O   UNL     1     -40.643  52.431 -53.056  1.00  0.00    -0.286 OA
HETATM    8  C   UNL     1     -40.753  53.716 -51.090  1.00  0.00     0.084 A 
ENDROOT
BRANCH   5   9
HETATM    9  C   UNL     1     -41.657  54.540 -54.857  1.00  0.00     0.294 C 
HETATM   10  N   UNL     1     -42.984  54.696 -55.209  1.00  0.00    -0.261 N 
HETATM   11  H   UNL     1     -43.692  55.049 -54.553  1.00  0.00     0.190 HD
HETATM   12  O   UNL     1     -40.773  54.316 -55.676  1.00  0.00    -0.264 OA
BRANCH  10  13
HETATM   13  N   UNL     1     -43.295  54.761 -56.575  1.00  0.00    -0.262 N 
HETATM   14  C   UNL     1     -43.550  55.988 -57.150  1.00  0.00     0.286 C 
HETATM   15  O   UNL     1     -43.623  57.019 -56.482  1.00  0.00    -0.264 OA
HETATM   16  H   UNL     1     -43.137  53.917 -57.119  1.00  0.00     0.190 HD
BRANCH  14  17
HETATM   17  C   UNL     1     -43.718  55.981 -58.587  1.00  0.00     0.102 A 
HETATM   18  N   UNL     1     -44.841  55.436 -59.174  1.00  0.00    -0.361 N 
HETATM   19  H   UNL     1     -45.599  55.016 -58.648  1.00  0.00     0.165 HD
HETATM   20  C   UNL     1     -44.770  55.548 -60.535  1.00  0.00     0.088 A 
HETATM   21  C   UNL     1     -43.588  56.178 -60.845  1.00  0.00     0.019 A 
HETATM   22  C   UNL     1     -42.924  56.451 -59.623  1.00  0.00     0.036 A 
ENDBRANCH  14  17
ENDBRANCH  10  13
ENDBRANCH   5   9
BRANCH   3  23
HETATM   23  C   UNL     1     -41.397  57.376 -51.075  1.00  0.00     0.073 A 
HETATM   24  C   UNL     1     -42.668  57.975 -50.935  1.00  0.00     0.076 A 
HETATM   25  C   UNL     1     -42.751  59.330 -50.550  1.00  0.00     0.018 A 
HETATM   26  C   UNL     1     -41.604  60.078 -50.293  1.00  0.00     0.001 A 
HETATM   27  C   UNL     1     -40.352  59.492 -50.430  1.00  0.00     0.002 A 
HETATM   28  C   UNL     1     -40.251  58.157 -50.825  1.00  0.00     0.032 A 
BRANCH  24  29
HETATM   29  C   UNL     1     -43.946  57.209 -51.180  1.00  0.00     0.419 C 
HETATM   30  F   UNL     1     -44.038  56.026 -50.505  1.00  0.00    -0.166 F 
HETATM   31  F   UNL     1     -45.049  57.916 -50.776  1.00  0.00    -0.166 F 
HETATM   32  F   UNL     1     -44.173  56.932 -52.492  1.00  0.00    -0.166 F 
ENDBRANCH  24  29
ENDBRANCH   3  23
TORSDOF 5
ENDMDL
MODEL 7
REMARK VINA RESULT:      -7.7      4.450      8.902
REMARK  5 active torsions:
REMARK  status: ('A' for Active; 'I' for Inactive)
REMARK    1  A    between atoms: N_3  and  C_4 
REMARK    2  A    between atoms: C_5  and  C_6 
REMARK    3  A    between atoms: C_15  and  C_16 
REMARK       I    between atoms: C_16  and  N_17 
REMARK    4  A    between atoms: N_17  and  N_18 
REMARK       I    between atoms: N_18  and  C_19 
REMARK    5  A    between atoms: C_19  and  C_20 
ROOT
HETATM    1  C   UNL     1     -45.175  60.324 -56.299  1.00  0.00     0.070 C 
HETATM    2  C   UNL     1     -44.530  59.038 -55.836  1.00  0.00     0.036 A 
HETATM    3  N   UNL     1     -43.709  58.309 -56.706  1.00  0.00    -0.237 N 
HETATM    4  N   UNL     1     -43.228  57.057 -56.425  1.00  0.00    -0.158 NA
HETATM    5  C   UNL     1     -43.471  56.536 -55.254  1.00  0.00     0.196 A 
HETATM    6  C   UNL     1     -44.236  57.309 -54.212  1.00  0.00     0.209 A 
HETATM    7  O   UNL     1     -44.363  56.864 -53.079  1.00  0.00    -0.286 OA
HETATM    8  C   UNL     1     -44.819  58.595 -54.605  1.00  0.00     0.084 A 
ENDROOT
BRANCH   5   9
HETATM    9  C   UNL     1     -42.956  55.122 -55.003  1.00  0.00     0.294 C 
HETATM   10  N   UNL     1     -41.979  54.995 -54.035  1.00  0.00    -0.261 N 
HETATM   11  H   UNL     1     -41.728  55.762 -53.399  1.00  0.00     0.190 HD
HETATM   12  O   UNL     1     -43.405  54.166 -55.627  1.00  0.00    -0.264 OA
BRANCH  10  13
HETATM   13  N   UNL     1     -41.612  53.699 -53.643  1.00  0.00    -0.262 N 
HETATM   14  C   UNL     1     -40.525  53.098 -54.240  1.00  0.00     0.286 C 
HETATM   15  O   UNL     1     -39.931  53.615 -55.185  1.00  0.00    -0.264 OA
HETATM   16  H   UNL     1     -42.055  53.335 -52.803  1.00  0.00     0.190 HD
BRANCH  14  17
HETATM   17  C   UNL     1     -40.128  51.825 -53.676  1.00  0.00     0.102 A 
HETATM   18  N   UNL     1     -39.822  51.700 -52.337  1.00  0.00    -0.361 N 
HETATM   19  H   UNL     1     -39.854  52.472 -51.681  1.00  0.00     0.165 HD
HETATM   20  C   UNL     1     -39.476  50.409 -52.045  1.00  0.00     0.088 A 
HETATM   21  C   UNL     1     -39.562  49.678 -53.206  1.00  0.00     0.019 A 
HETATM   22  C   UNL     1     -39.970  50.565 -54.233  1.00  0.00     0.036 A 
ENDBRANCH  14  17
ENDBRANCH  10  13
ENDBRANCH   5   9
BRANCH   3  23
HETATM   23  C   UNL     1     -43.329  58.764 -58.006  1.00  0.00     0.073 A 
HETATM   24  C   UNL     1     -43.975  58.306 -59.174  1.00  0.00     0.076 A 
HETATM   25  C   UNL     1     -43.524  58.762 -60.432  1.00  0.00     0.018 A 
HETATM   26  C   UNL     1     -42.467  59.663 -60.536  1.00  0.00     0.001 A 
HETATM   27  C   UNL     1     -41.829  60.115 -59.387  1.00  0.00     0.002 A 
HETATM   28  C   UNL     1     -42.252  59.663 -58.137  1.00  0.00     0.032 A 
BRANCH  24  29
HETATM   29  C   UNL     1     -45.139  57.346 -59.124  1.00  0.00     0.419 C 
HETATM   30  F   UNL     1     -46.109  57.676 -58.223  1.00  0.00    -0.166 F 
HETATM   31  F   UNL     1     -45.799  57.282 -60.323  1.00  0.00    -0.166 F 
HETATM   32  F   UNL     1     -44.776  56.062 -58.859  1.00  0.00    -0.166 F 
ENDBRANCH  24  29
ENDBRANCH   3  23
TORSDOF 5
ENDMDL
MODEL 8
REMARK VINA RESULT:      -7.5     17.185     19.502
REMARK  5 active torsions:
REMARK  status: ('A' for Active; 'I' for Inactive)
REMARK    1  A    between atoms: N_3  and  C_4 
REMARK    2  A    between atoms: C_5  and  C_6 
REMARK    3  A    between atoms: C_15  and  C_16 
REMARK       I    between atoms: C_16  and  N_17 
REMARK    4  A    between atoms: N_17  and  N_18 
REMARK       I    between atoms: N_18  and  C_19 
REMARK    5  A    between atoms: C_19  and  C_20 
ROOT
HETATM    1  C   UNL     1     -34.874  42.287 -57.058  1.00  0.00     0.070 C 
HETATM    2  C   UNL     1     -35.442  41.657 -55.808  1.00  0.00     0.036 A 
HETATM    3  N   UNL     1     -35.916  40.340 -55.836  1.00  0.00    -0.237 N 
HETATM    4  N   UNL     1     -36.597  39.755 -54.800  1.00  0.00    -0.158 NA
HETATM    5  C   UNL     1     -36.749  40.423 -53.689  1.00  0.00     0.196 A 
HETATM    6  C   UNL     1     -36.156  41.798 -53.531  1.00  0.00     0.209 A 
HETATM    7  O   UNL     1     -36.202  42.373 -52.451  1.00  0.00    -0.286 OA
HETATM    8  C   UNL     1     -35.534  42.414 -54.705  1.00  0.00     0.084 A 
ENDROOT
BRANCH   5   9
HETATM    9  C   UNL     1     -37.555  39.751 -52.581  1.00  0.00     0.294 C 
HETATM   10  N   UNL     1     -38.710  40.401 -52.192  1.00  0.00    -0.261 N 
HETATM   11  H   UNL     1     -39.103  41.192 -52.718  1.00  0.00     0.190 HD
HETATM   12  O   UNL     1     -37.189  38.691 -52.088  1.00  0.00    -0.264 OA
BRANCH  10  13
HETATM   13  N   UNL     1     -39.574  39.730 -51.314  1.00  0.00    -0.262 N 
HETATM   14  C   UNL     1     -40.933  39.776 -51.540  1.00  0.00     0.286 C 
HETATM   15  O   UNL     1     -41.424  40.477 -52.424  1.00  0.00    -0.264 OA
HETATM   16  H   UNL     1     -39.143  39.087 -50.655  1.00  0.00     0.190 HD
BRANCH  14  17
HETATM   17  C   UNL     1     -41.738  38.940 -50.675  1.00  0.00     0.102 A 
HETATM   18  N   UNL     1     -43.080  38.739 -50.923  1.00  0.00    -0.361 N 
HETATM   19  H   UNL     1     -43.574  39.153 -51.705  1.00  0.00     0.165 HD
HETATM   20  C   UNL     1     -43.622  37.917 -49.973  1.00  0.00     0.088 A 
HETATM   21  C   UNL     1     -42.622  37.572 -49.095  1.00  0.00     0.019 A 
HETATM   22  C   UNL     1     -41.437  38.214 -49.533  1.00  0.00     0.036 A 
ENDBRANCH  14  17
ENDBRANCH  10  13
ENDBRANCH   5   9
BRANCH   3  23
HETATM   23  C   UNL     1     -35.792  39.476 -56.967  1.00  0.00     0.073 A 
HETATM   24  C   UNL     1     -36.774  39.430 -57.981  1.00  0.00     0.076 A 
HETATM   25  C   UNL     1     -36.614  38.525 -59.052  1.00  0.00     0.018 A 
HETATM   26  C   UNL     1     -35.501  37.691 -59.130  1.00  0.00     0.001 A 
HETATM   27  C   UNL     1     -34.533  37.734 -58.134  1.00  0.00     0.002 A 
HETATM   28  C   UNL     1     -34.683  38.613 -57.061  1.00  0.00     0.032 A 
BRANCH  24  29
HETATM   29  C   UNL     1     -37.990  40.324 -57.960  1.00  0.00     0.419 C 
HETATM   30  F   UNL     1     -37.730  41.644 -58.186  1.00  0.00    -0.166 F 
HETATM   31  F   UNL     1     -38.889  39.984 -58.938  1.00  0.00    -0.166 F 
HETATM   32  F   UNL     1     -38.698  40.255 -56.800  1.00  0.00    -0.166 F 
ENDBRANCH  24  29
ENDBRANCH   3  23
TORSDOF 5
ENDMDL
MODEL 9
REMARK VINA RESULT:      -7.5      4.968      6.600
REMARK  5 active torsions:
REMARK  status: ('A' for Active; 'I' for Inactive)
REMARK    1  A    between atoms: N_3  and  C_4 
REMARK    2  A    between atoms: C_5  and  C_6 
REMARK    3  A    between atoms: C_15  and  C_16 
REMARK       I    between atoms: C_16  and  N_17 
REMARK    4  A    between atoms: N_17  and  N_18 
REMARK       I    between atoms: N_18  and  C_19 
REMARK    5  A    between atoms: C_19  and  C_20 
ROOT
HETATM    1  C   UNL     1     -40.541  58.256 -53.110  1.00  0.00     0.070 C 
HETATM    2  C   UNL     1     -41.861  58.834 -52.656  1.00  0.00     0.036 A 
HETATM    3  N   UNL     1     -42.845  57.999 -52.111  1.00  0.00    -0.237 N 
HETATM    4  N   UNL     1     -44.123  58.410 -51.834  1.00  0.00    -0.158 NA
HETATM    5  C   UNL     1     -44.432  59.666 -52.007  1.00  0.00     0.196 A 
HETATM    6  C   UNL     1     -43.395  60.658 -52.467  1.00  0.00     0.209 A 
HETATM    7  O   UNL     1     -43.658  61.852 -52.517  1.00  0.00    -0.286 OA
HETATM    8  C   UNL     1     -42.078  60.142 -52.850  1.00  0.00     0.084 A 
ENDROOT
BRANCH   5   9
HETATM    9  C   UNL     1     -45.877  60.069 -51.732  1.00  0.00     0.294 C 
HETATM   10  N   UNL     1     -46.509  60.782 -52.733  1.00  0.00    -0.261 N 
HETATM   11  H   UNL     1     -46.105  60.894 -53.671  1.00  0.00     0.190 HD
HETATM   12  O   UNL     1     -46.432  59.757 -50.685  1.00  0.00    -0.264 OA
BRANCH  10  13
HETATM   13  N   UNL     1     -47.887  61.010 -52.603  1.00  0.00    -0.262 N 
HETATM   14  C   UNL     1     -48.383  62.277 -52.824  1.00  0.00     0.286 C 
HETATM   15  O   UNL     1     -47.645  63.241 -53.023  1.00  0.00    -0.264 OA
HETATM   16  H   UNL     1     -48.480  60.187 -52.532  1.00  0.00     0.190 HD
BRANCH  14  17
HETATM   17  C   UNL     1     -49.826  62.393 -52.813  1.00  0.00     0.102 A 
HETATM   18  N   UNL     1     -50.623  61.471 -53.459  1.00  0.00    -0.361 N 
HETATM   19  H   UNL     1     -50.257  60.675 -53.969  1.00  0.00     0.165 HD
HETATM   20  C   UNL     1     -51.944  61.793 -53.307  1.00  0.00     0.088 A 
HETATM   21  C   UNL     1     -52.013  62.937 -52.548  1.00  0.00     0.019 A 
HETATM   22  C   UNL     1     -50.684  63.317 -52.236  1.00  0.00     0.036 A 
ENDBRANCH  14  17
ENDBRANCH  10  13
ENDBRANCH   5   9
BRANCH   3  23
HETATM   23  C   UNL     1     -42.644  56.612 -51.835  1.00  0.00     0.073 A 
HETATM   24  C   UNL     1     -43.007  55.608 -52.758  1.00  0.00     0.076 A 
HETATM   25  C   UNL     1     -42.821  54.253 -52.408  1.00  0.00     0.018 A 
HETATM   26  C   UNL     1     -42.274  53.895 -51.178  1.00  0.00     0.001 A 
HETATM   27  C   UNL     1     -41.916  54.881 -50.267  1.00  0.00     0.002 A 
HETATM   28  C   UNL     1     -42.106  56.225 -50.591  1.00  0.00     0.032 A 
BRANCH  24  29
HETATM   29  C   UNL     1     -43.585  55.935 -54.113  1.00  0.00     0.419 C 
HETATM   30  F   UNL     1     -43.880  54.848 -54.883  1.00  0.00    -0.166 F 
HETATM   31  F   UNL     1     -44.774  56.610 -54.011  1.00  0.00    -0.166 F 
HETATM   32  F   UNL     1     -42.790  56.745 -54.864  1.00  0.00    -0.166 F 
ENDBRANCH  24  29
ENDBRANCH   3  23
TORSDOF 5
ENDMDL
MODEL 10
REMARK VINA RESULT:      -7.5      4.616      6.218
REMARK  5 active torsions:
REMARK  status: ('A' for Active; 'I' for Inactive)
REMARK    1  A    between atoms: N_3  and  C_4 
REMARK    2  A    between atoms: C_5  and  C_6 
REMARK    3  A    between atoms: C_15  and  C_16 
REMARK       I    between atoms: C_16  and  N_17 
REMARK    4  A    between atoms: N_17  and  N_18 
REMARK       I    between atoms: N_18  and  C_19 
REMARK    5  A    between atoms: C_19  and  C_20 
ROOT
HETATM    1  C   UNL     1     -40.466  58.200 -53.203  1.00  0.00     0.070 C 
HETATM    2  C   UNL     1     -41.807  58.598 -52.632  1.00  0.00     0.036 A 
HETATM    3  N   UNL     1     -42.939  57.811 -52.879  1.00  0.00    -0.237 N 
HETATM    4  N   UNL     1     -44.214  58.187 -52.546  1.00  0.00    -0.158 NA
HETATM    5  C   UNL     1     -44.391  59.301 -51.888  1.00  0.00     0.196 A 
HETATM    6  C   UNL     1     -43.214  60.143 -51.470  1.00  0.00     0.209 A 
HETATM    7  O   UNL     1     -43.376  61.123 -50.756  1.00  0.00    -0.286 OA
HETATM    8  C   UNL     1     -41.886  59.748 -51.947  1.00  0.00     0.084 A 
ENDROOT
BRANCH   5   9
HETATM    9  C   UNL     1     -45.830  59.703 -51.581  1.00  0.00     0.294 C 
HETATM   10  N   UNL     1     -46.342  60.745 -52.329  1.00  0.00    -0.261 N 
HETATM   11  H   UNL     1     -45.860  61.121 -53.155  1.00  0.00     0.190 HD
HETATM   12  O   UNL     1     -46.481  59.115 -50.725  1.00  0.00    -0.264 OA
BRANCH  10  13
HETATM   13  N   UNL     1     -47.711  61.025 -52.211  1.00  0.00    -0.262 N 
HETATM   14  C   UNL     1     -48.222  62.156 -52.810  1.00  0.00     0.286 C 
HETATM   15  O   UNL     1     -47.498  62.989 -53.354  1.00  0.00    -0.264 OA
HETATM   16  H   UNL     1     -48.297  60.280 -51.842  1.00  0.00     0.190 HD
BRANCH  14  17
HETATM   17  C   UNL     1     -49.662  62.291 -52.764  1.00  0.00     0.102 A 
HETATM   18  N   UNL     1     -50.485  61.419 -53.446  1.00  0.00    -0.361 N 
HETATM   19  H   UNL     1     -50.141  60.650 -54.008  1.00  0.00     0.165 HD
HETATM   20  C   UNL     1     -51.797  61.750 -53.249  1.00  0.00     0.088 A 
HETATM   21  C   UNL     1     -51.835  62.849 -52.424  1.00  0.00     0.019 A 
HETATM   22  C   UNL     1     -50.495  63.192 -52.118  1.00  0.00     0.036 A 
ENDBRANCH  14  17
ENDBRANCH  10  13
ENDBRANCH   5   9
BRANCH   3  23
HETATM   23  C   UNL     1     -42.898  56.554 -53.556  1.00  0.00     0.073 A 
HETATM   24  C   UNL     1     -42.668  55.343 -52.868  1.00  0.00     0.076 A 
HETATM   25  C   UNL     1     -42.597  54.139 -53.601  1.00  0.00     0.018 A 
HETATM   26  C   UNL     1     -42.765  54.125 -54.984  1.00  0.00     0.001 A 
HETATM   27  C   UNL     1     -42.991  55.315 -55.664  1.00  0.00     0.002 A 
HETATM   28  C   UNL     1     -43.049  56.517 -54.957  1.00  0.00     0.032 A 
BRANCH  24  29
HETATM   29  C   UNL     1     -42.499  55.292 -51.369  1.00  0.00     0.419 C 
HETATM   30  F   UNL     1     -43.495  55.905 -50.664  1.00  0.00    -0.166 F 
HETATM   31  F   UNL     1     -42.496  54.004 -50.899  1.00  0.00    -0.166 F 
HETATM   32  F   UNL     1     -41.325  55.823 -50.934  1.00  0.00    -0.166 F 
ENDBRANCH  24  29
ENDBRANCH   3  23
TORSDOF 5
ENDMDL
