MODEL 1
REMARK VINA RESULT:      -7.3      0.000      0.000
REMARK  7 active torsions:
REMARK  status: ('A' for Active; 'I' for Inactive)
REMARK    1  A    between atoms: C_2  and  C_3 
REMARK    2  A    between atoms: C_3  and  N_4 
REMARK    3  A    between atoms: C_7  and  C_8 
REMARK    4  A    between atoms: C_8  and  N_9 
REMARK       I    between atoms: N_9  and  C_10 
REMARK       I    between atoms: C_10  and  N_11 
REMARK    5  A    between atoms: N_11  and  C_12 
REMARK    6  A    between atoms: C_15  and  N_16 
REMARK       I    between atoms: N_16  and  C_17 
REMARK    7  A    between atoms: C_17  and  C_18 
ROOT
HETATM    1  N   UNL     1     -41.386  56.523 -51.160  1.00  0.00    -0.342 N 
HETATM    2  C   UNL     1     -41.552  57.862 -50.964  1.00  0.00     0.320 C 
HETATM    3  N   UNL     1     -41.994  58.595 -52.026  1.00  0.00    -0.309 N 
HETATM    4  O   UNL     1     -41.235  58.411 -49.912  1.00  0.00    -0.247 OA
HETATM    5  H   UNL     1     -41.316  56.222 -52.122  1.00  0.00     0.164 HD
HETATM    6  H   UNL     1     -41.856  59.590 -51.880  1.00  0.00     0.170 HD
ENDROOT
BRANCH   3   7
HETATM    7  C   UNL     1     -42.550  58.208 -53.259  1.00  0.00     0.036 A 
HETATM    8  C   UNL     1     -43.880  57.819 -53.421  1.00  0.00     0.032 A 
HETATM    9  C   UNL     1     -44.339  57.336 -54.653  1.00  0.00     0.032 A 
HETATM   10  C   UNL     1     -43.481  57.261 -55.748  1.00  0.00     0.035 A 
HETATM   11  C   UNL     1     -42.179  57.753 -55.615  1.00  0.00     0.032 A 
HETATM   12  C   UNL     1     -41.719  58.232 -54.382  1.00  0.00     0.032 A 
BRANCH  10  13
HETATM   13  N   UNL     1     -43.836  56.688 -56.982  1.00  0.00    -0.321 N 
HETATM   14  C   UNL     1     -44.101  57.337 -58.178  1.00  0.00     0.279 C 
HETATM   15  O   UNL     1     -43.975  58.542 -58.373  1.00  0.00    -0.265 OA
HETATM   16  H   UNL     1     -44.017  55.689 -57.000  1.00  0.00     0.169 HD
BRANCH  14  17
HETATM   17  C   UNL     1     -44.603  56.438 -59.202  1.00  0.00     0.142 A 
HETATM   18  O   UNL     1     -45.920  56.517 -59.581  1.00  0.00    -0.317 OA
HETATM   19  C   UNL     1     -46.108  55.600 -60.565  1.00  0.00     0.143 A 
HETATM   20  C   UNL     1     -44.938  54.929 -60.830  1.00  0.00     0.027 A 
HETATM   21  C   UNL     1     -43.968  55.466 -59.950  1.00  0.00     0.045 A 
ENDBRANCH  14  17
ENDBRANCH  10  13
ENDBRANCH   3   7
BRANCH   1  22
HETATM   22  C   UNL     1     -40.911  55.632 -50.126  1.00  0.00     0.130 C 
BRANCH  22  23
HETATM   23  C   UNL     1     -40.323  54.352 -50.708  1.00  0.00     0.031 C 
HETATM   24  C   UNL     1     -41.094  53.874 -51.924  1.00  0.00     0.241 C 
HETATM   25  N   UNL     1     -40.669  52.422 -52.085  1.00  0.00    -0.071 N 
HETATM   26  H   UNL     1     -41.523  51.875 -52.266  1.00  0.00     0.279 HD
HETATM   27  C   UNL     1     -40.106  51.982 -50.738  1.00  0.00     0.235 C 
HETATM   28  C   UNL     1     -40.399  53.135 -49.797  1.00  0.00     0.035 C 
BRANCH  25  29
HETATM   29  C   UNL     1     -39.731  52.206 -53.249  1.00  0.00     0.234 C 
BRANCH  29  30
HETATM   30  C   UNL     1     -40.426  51.422 -54.356  1.00  0.00     0.023 C 
HETATM   31  C   UNL     1     -39.980  49.969 -54.352  1.00  0.00     0.007 C 
ENDBRANCH  29  30
ENDBRANCH  25  29
ENDBRANCH  22  23
ENDBRANCH   1  22
TORSDOF 7
ENDMDL
MODEL 2
REMARK VINA RESULT:      -7.2      2.696      7.531
REMARK  7 active torsions:
REMARK  status: ('A' for Active; 'I' for Inactive)
REMARK    1  A    between atoms: C_2  and  C_3 
REMARK    2  A    between atoms: C_3  and  N_4 
REMARK    3  A    between atoms: C_7  and  C_8 
REMARK    4  A    between atoms: C_8  and  N_9 
REMARK       I    between atoms: N_9  and  C_10 
REMARK       I    between atoms: C_10  and  N_11 
REMARK    5  A    between atoms: N_11  and  C_12 
REMARK    6  A    between atoms: C_15  and  N_16 
REMARK       I    between atoms: N_16  and  C_17 
REMARK    7  A    between atoms: C_17  and  C_18 
ROOT
HETATM    1  N   UNL     1     -44.390  58.283 -55.282  1.00  0.00    -0.342 N 
HETATM    2  C   UNL     1     -44.421  59.028 -54.141  1.00  0.00     0.320 C 
HETATM    3  N   UNL     1     -43.885  58.469 -53.018  1.00  0.00    -0.309 N 
HETATM    4  O   UNL     1     -44.986  60.118 -54.089  1.00  0.00    -0.247 OA
HETATM    5  H   UNL     1     -44.249  57.290 -55.158  1.00  0.00     0.164 HD
HETATM    6  H   UNL     1     -44.163  58.967 -52.179  1.00  0.00     0.170 HD
ENDROOT
BRANCH   3   7
HETATM    7  C   UNL     1     -43.074  57.334 -52.839  1.00  0.00     0.036 A 
HETATM    8  C   UNL     1     -41.722  57.287 -53.181  1.00  0.00     0.032 A 
HETATM    9  C   UNL     1     -41.001  56.090 -53.083  1.00  0.00     0.032 A 
HETATM   10  C   UNL     1     -41.614  54.930 -52.617  1.00  0.00     0.035 A 
HETATM   11  C   UNL     1     -42.938  55.004 -52.171  1.00  0.00     0.032 A 
HETATM   12  C   UNL     1     -43.660  56.199 -52.273  1.00  0.00     0.032 A 
BRANCH  10  13
HETATM   13  N   UNL     1     -40.991  53.670 -52.592  1.00  0.00    -0.321 N 
HETATM   14  C   UNL     1     -40.424  52.978 -53.651  1.00  0.00     0.279 C 
HETATM   15  O   UNL     1     -40.296  53.411 -54.793  1.00  0.00    -0.265 OA
HETATM   16  H   UNL     1     -41.031  53.145 -51.724  1.00  0.00     0.169 HD
BRANCH  14  17
HETATM   17  C   UNL     1     -40.024  51.630 -53.289  1.00  0.00     0.142 A 
HETATM   18  O   UNL     1     -39.765  51.335 -51.973  1.00  0.00    -0.317 OA
HETATM   19  C   UNL     1     -39.451  50.015 -51.914  1.00  0.00     0.143 A 
HETATM   20  C   UNL     1     -39.502  49.450 -53.166  1.00  0.00     0.027 A 
HETATM   21  C   UNL     1     -39.868  50.490 -54.053  1.00  0.00     0.045 A 
ENDBRANCH  14  17
ENDBRANCH  10  13
ENDBRANCH   3   7
BRANCH   1  22
HETATM   22  C   UNL     1     -44.935  58.747 -56.537  1.00  0.00     0.130 C 
BRANCH  22  23
HETATM   23  C   UNL     1     -44.066  58.335 -57.719  1.00  0.00     0.031 C 
HETATM   24  C   UNL     1     -43.591  56.898 -57.602  1.00  0.00     0.241 C 
HETATM   25  N   UNL     1     -42.429  56.812 -58.579  1.00  0.00    -0.071 N 
HETATM   26  H   UNL     1     -41.668  56.308 -58.100  1.00  0.00     0.279 HD
HETATM   27  C   UNL     1     -41.962  58.242 -58.828  1.00  0.00     0.235 C 
HETATM   28  C   UNL     1     -42.748  59.086 -57.842  1.00  0.00     0.035 C 
BRANCH  25  29
HETATM   29  C   UNL     1     -42.767  56.044 -59.835  1.00  0.00     0.234 C 
BRANCH  29  30
HETATM   30  C   UNL     1     -43.920  55.080 -59.576  1.00  0.00     0.023 C 
HETATM   31  C   UNL     1     -44.844  55.007 -60.782  1.00  0.00     0.007 C 
ENDBRANCH  29  30
ENDBRANCH  25  29
ENDBRANCH  22  23
ENDBRANCH   1  22
TORSDOF 7
ENDMDL
MODEL 3
REMARK VINA RESULT:      -7.2      2.959      7.763
REMARK  7 active torsions:
REMARK  status: ('A' for Active; 'I' for Inactive)
REMARK    1  A    between atoms: C_2  and  C_3 
REMARK    2  A    between atoms: C_3  and  N_4 
REMARK    3  A    between atoms: C_7  and  C_8 
REMARK    4  A    between atoms: C_8  and  N_9 
REMARK       I    between atoms: N_9  and  C_10 
REMARK       I    between atoms: C_10  and  N_11 
REMARK    5  A    between atoms: N_11  and  C_12 
REMARK    6  A    between atoms: C_15  and  N_16 
REMARK       I    between atoms: N_16  and  C_17 
REMARK    7  A    between atoms: C_17  and  C_18 
ROOT
HETATM    1  N   UNL     1     -44.604  58.804 -53.149  1.00  0.00    -0.342 N 
HETATM    2  C   UNL     1     -44.458  59.173 -51.845  1.00  0.00     0.320 C 
HETATM    3  N   UNL     1     -43.868  58.272 -51.006  1.00  0.00    -0.309 N 
HETATM    4  O   UNL     1     -44.914  60.227 -51.410  1.00  0.00    -0.247 OA
HETATM    5  H   UNL     1     -44.542  57.813 -53.338  1.00  0.00     0.164 HD
HETATM    6  H   UNL     1     -44.018  58.510 -50.032  1.00  0.00     0.170 HD
ENDROOT
BRANCH   3   7
HETATM    7  C   UNL     1     -43.150  57.091 -51.265  1.00  0.00     0.036 A 
HETATM    8  C   UNL     1     -41.871  57.069 -51.822  1.00  0.00     0.032 A 
HETATM    9  C   UNL     1     -41.258  55.855 -52.159  1.00  0.00     0.032 A 
HETATM   10  C   UNL     1     -41.905  54.645 -51.919  1.00  0.00     0.035 A 
HETATM   11  C   UNL     1     -43.138  54.663 -51.260  1.00  0.00     0.032 A 
HETATM   12  C   UNL     1     -43.753  55.877 -50.927  1.00  0.00     0.032 A 
BRANCH  10  13
HETATM   13  N   UNL     1     -41.405  53.396 -52.326  1.00  0.00    -0.321 N 
HETATM   14  C   UNL     1     -40.214  52.792 -51.956  1.00  0.00     0.279 C 
HETATM   15  O   UNL     1     -39.428  53.228 -51.119  1.00  0.00    -0.265 OA
HETATM   16  H   UNL     1     -41.917  52.900 -53.050  1.00  0.00     0.169 HD
BRANCH  14  17
HETATM   17  C   UNL     1     -39.945  51.578 -52.706  1.00  0.00     0.142 A 
HETATM   18  O   UNL     1     -39.616  50.428 -52.032  1.00  0.00    -0.317 OA
HETATM   19  C   UNL     1     -39.454  49.452 -52.962  1.00  0.00     0.143 A 
HETATM   20  C   UNL     1     -39.671  49.948 -54.225  1.00  0.00     0.027 A 
HETATM   21  C   UNL     1     -39.984  51.319 -54.062  1.00  0.00     0.045 A 
ENDBRANCH  14  17
ENDBRANCH  10  13
ENDBRANCH   3   7
BRANCH   1  22
HETATM   22  C   UNL     1     -45.223  59.654 -54.139  1.00  0.00     0.130 C 
BRANCH  22  23
HETATM   23  C   UNL     1     -44.798  59.279 -55.553  1.00  0.00     0.031 C 
HETATM   24  C   UNL     1     -45.652  58.163 -56.126  1.00  0.00     0.241 C 
HETATM   25  N   UNL     1     -44.836  57.637 -57.298  1.00  0.00    -0.071 N 
HETATM   26  H   UNL     1     -44.862  56.608 -57.247  1.00  0.00     0.279 HD
HETATM   27  C   UNL     1     -43.397  58.084 -57.062  1.00  0.00     0.235 C 
HETATM   28  C   UNL     1     -43.400  58.689 -55.671  1.00  0.00     0.035 C 
BRANCH  25  29
HETATM   29  C   UNL     1     -45.399  58.043 -58.640  1.00  0.00     0.234 C 
BRANCH  29  30
HETATM   30  C   UNL     1     -46.828  57.536 -58.795  1.00  0.00     0.023 C 
HETATM   31  C   UNL     1     -46.946  56.615 -59.999  1.00  0.00     0.007 C 
ENDBRANCH  29  30
ENDBRANCH  25  29
ENDBRANCH  22  23
ENDBRANCH   1  22
TORSDOF 7
ENDMDL
MODEL 4
REMARK VINA RESULT:      -7.1      2.547      5.785
REMARK  7 active torsions:
REMARK  status: ('A' for Active; 'I' for Inactive)
REMARK    1  A    between atoms: C_2  and  C_3 
REMARK    2  A    between atoms: C_3  and  N_4 
REMARK    3  A    between atoms: C_7  and  C_8 
REMARK    4  A    between atoms: C_8  and  N_9 
REMARK       I    between atoms: N_9  and  C_10 
REMARK       I    between atoms: C_10  and  N_11 
REMARK    5  A    between atoms: N_11  and  C_12 
REMARK    6  A    between atoms: C_15  and  N_16 
REMARK       I    between atoms: N_16  and  C_17 
REMARK    7  A    between atoms: C_17  and  C_18 
ROOT
HETATM    1  N   UNL     1     -41.368  57.099 -51.332  1.00  0.00    -0.342 N 
HETATM    2  C   UNL     1     -41.110  55.864 -50.814  1.00  0.00     0.320 C 
HETATM    3  N   UNL     1     -41.469  54.786 -51.570  1.00  0.00    -0.309 N 
HETATM    4  O   UNL     1     -40.662  55.713 -49.681  1.00  0.00    -0.247 OA
HETATM    5  H   UNL     1     -42.050  57.133 -52.077  1.00  0.00     0.164 HD
HETATM    6  H   UNL     1     -41.475  53.930 -51.026  1.00  0.00     0.170 HD
ENDROOT
BRANCH   3   7
HETATM    7  C   UNL     1     -41.855  54.680 -52.919  1.00  0.00     0.036 A 
HETATM    8  C   UNL     1     -40.952  54.575 -53.977  1.00  0.00     0.032 A 
HETATM    9  C   UNL     1     -41.400  54.589 -55.304  1.00  0.00     0.032 A 
HETATM   10  C   UNL     1     -42.760  54.680 -55.591  1.00  0.00     0.035 A 
HETATM   11  C   UNL     1     -43.671  54.674 -54.530  1.00  0.00     0.032 A 
HETATM   12  C   UNL     1     -43.223  54.665 -53.203  1.00  0.00     0.032 A 
BRANCH  10  13
HETATM   13  N   UNL     1     -43.278  54.808 -56.891  1.00  0.00    -0.321 N 
HETATM   14  C   UNL     1     -43.207  55.906 -57.733  1.00  0.00     0.279 C 
HETATM   15  O   UNL     1     -42.583  56.937 -57.502  1.00  0.00    -0.265 OA
HETATM   16  H   UNL     1     -43.859  54.052 -57.240  1.00  0.00     0.169 HD
BRANCH  14  17
HETATM   17  C   UNL     1     -44.002  55.741 -58.937  1.00  0.00     0.142 A 
HETATM   18  O   UNL     1     -44.714  56.808 -59.426  1.00  0.00    -0.317 OA
HETATM   19  C   UNL     1     -45.330  56.390 -60.562  1.00  0.00     0.143 A 
HETATM   20  C   UNL     1     -45.031  55.073 -60.817  1.00  0.00     0.027 A 
HETATM   21  C   UNL     1     -44.178  54.652 -59.769  1.00  0.00     0.045 A 
ENDBRANCH  14  17
ENDBRANCH  10  13
ENDBRANCH   3   7
BRANCH   1  22
HETATM   22  C   UNL     1     -41.054  58.324 -50.634  1.00  0.00     0.130 C 
BRANCH  22  23
HETATM   23  C   UNL     1     -41.465  59.553 -51.434  1.00  0.00     0.031 C 
HETATM   24  C   UNL     1     -42.898  59.964 -51.149  1.00  0.00     0.241 C 
HETATM   25  N   UNL     1     -43.259  60.878 -52.310  1.00  0.00    -0.071 N 
HETATM   26  H   UNL     1     -44.199  60.602 -52.631  1.00  0.00     0.279 HD
HETATM   27  C   UNL     1     -42.271  60.570 -53.430  1.00  0.00     0.235 C 
HETATM   28  C   UNL     1     -41.495  59.360 -52.943  1.00  0.00     0.035 C 
BRANCH  25  29
HETATM   29  C   UNL     1     -43.319  62.335 -51.920  1.00  0.00     0.234 C 
BRANCH  29  30
HETATM   30  C   UNL     1     -43.420  62.479 -50.406  1.00  0.00     0.023 C 
HETATM   31  C   UNL     1     -42.824  63.802 -49.948  1.00  0.00     0.007 C 
ENDBRANCH  29  30
ENDBRANCH  25  29
ENDBRANCH  22  23
ENDBRANCH   1  22
TORSDOF 7
ENDMDL
MODEL 5
REMARK VINA RESULT:      -7.1      3.253      4.214
REMARK  7 active torsions:
REMARK  status: ('A' for Active; 'I' for Inactive)
REMARK    1  A    between atoms: C_2  and  C_3 
REMARK    2  A    between atoms: C_3  and  N_4 
REMARK    3  A    between atoms: C_7  and  C_8 
REMARK    4  A    between atoms: C_8  and  N_9 
REMARK       I    between atoms: N_9  and  C_10 
REMARK       I    between atoms: C_10  and  N_11 
REMARK    5  A    between atoms: N_11  and  C_12 
REMARK    6  A    between atoms: C_15  and  N_16 
REMARK       I    between atoms: N_16  and  C_17 
REMARK    7  A    between atoms: C_17  and  C_18 
ROOT
HETATM    1  N   UNL     1     -43.504  56.076 -51.967  1.00  0.00    -0.342 N 
HETATM    2  C   UNL     1     -44.320  57.015 -51.410  1.00  0.00     0.320 C 
HETATM    3  N   UNL     1     -44.229  58.286 -51.898  1.00  0.00    -0.309 N 
HETATM    4  O   UNL     1     -45.044  56.764 -50.450  1.00  0.00    -0.247 OA
HETATM    5  H   UNL     1     -42.705  56.429 -52.476  1.00  0.00     0.164 HD
HETATM    6  H   UNL     1     -44.672  58.959 -51.282  1.00  0.00     0.170 HD
ENDROOT
BRANCH   3   7
HETATM    7  C   UNL     1     -43.607  58.799 -53.052  1.00  0.00     0.036 A 
HETATM    8  C   UNL     1     -42.261  59.158 -53.111  1.00  0.00     0.032 A 
HETATM    9  C   UNL     1     -41.733  59.769 -54.256  1.00  0.00     0.032 A 
HETATM   10  C   UNL     1     -42.539  60.005 -55.368  1.00  0.00     0.035 A 
HETATM   11  C   UNL     1     -43.860  59.544 -55.349  1.00  0.00     0.032 A 
HETATM   12  C   UNL     1     -44.388  58.938 -54.202  1.00  0.00     0.032 A 
BRANCH  10  13
HETATM   13  N   UNL     1     -42.113  60.708 -56.508  1.00  0.00    -0.321 N 
HETATM   14  C   UNL     1     -41.732  60.190 -57.736  1.00  0.00     0.279 C 
HETATM   15  O   UNL     1     -41.795  59.007 -58.057  1.00  0.00    -0.265 OA
HETATM   16  H   UNL     1     -41.972  61.709 -56.415  1.00  0.00     0.169 HD
BRANCH  14  17
HETATM   17  C   UNL     1     -41.189  61.202 -58.625  1.00  0.00     0.142 A 
HETATM   18  O   UNL     1     -40.114  61.952 -58.216  1.00  0.00    -0.317 OA
HETATM   19  C   UNL     1     -39.795  62.785 -59.240  1.00  0.00     0.143 A 
HETATM   20  C   UNL     1     -40.643  62.588 -60.304  1.00  0.00     0.027 A 
HETATM   21  C   UNL     1     -41.544  61.571 -59.908  1.00  0.00     0.045 A 
ENDBRANCH  14  17
ENDBRANCH  10  13
ENDBRANCH   3   7
BRANCH   1  22
HETATM   22  C   UNL     1     -43.488  54.697 -51.536  1.00  0.00     0.130 C 
BRANCH  22  23
HETATM   23  C   UNL     1     -42.421  53.889 -52.265  1.00  0.00     0.031 C 
HETATM   24  C   UNL     1     -41.240  53.566 -51.368  1.00  0.00     0.241 C 
HETATM   25  N   UNL     1     -40.134  53.176 -52.337  1.00  0.00    -0.071 N 
HETATM   26  H   UNL     1     -39.276  53.651 -52.024  1.00  0.00     0.279 HD
HETATM   27  C   UNL     1     -40.522  53.751 -53.695  1.00  0.00     0.235 C 
HETATM   28  C   UNL     1     -41.741  54.611 -53.420  1.00  0.00     0.035 C 
BRANCH  25  29
HETATM   29  C   UNL     1     -39.857  51.691 -52.350  1.00  0.00     0.234 C 
BRANCH  29  30
HETATM   30  C   UNL     1     -39.401  51.245 -53.735  1.00  0.00     0.023 C 
HETATM   31  C   UNL     1     -40.199  50.038 -54.203  1.00  0.00     0.007 C 
ENDBRANCH  29  30
ENDBRANCH  25  29
ENDBRANCH  22  23
ENDBRANCH   1  22
TORSDOF 7
ENDMDL
MODEL 6
REMARK VINA RESULT:      -7.0     15.429     18.003
REMARK  7 active torsions:
REMARK  status: ('A' for Active; 'I' for Inactive)
REMARK    1  A    between atoms: C_2  and  C_3 
REMARK    2  A    between atoms: C_3  and  N_4 
REMARK    3  A    between atoms: C_7  and  C_8 
REMARK    4  A    between atoms: C_8  and  N_9 
REMARK       I    between atoms: N_9  and  C_10 
REMARK       I    between atoms: C_10  and  N_11 
REMARK    5  A    between atoms: N_11  and  C_12 
REMARK    6  A    between atoms: C_15  and  N_16 
REMARK       I    between atoms: N_16  and  C_17 
REMARK    7  A    between atoms: C_17  and  C_18 
ROOT
HETATM    1  N   UNL     1     -35.109  41.108 -54.181  1.00  0.00    -0.342 N 
HETATM    2  C   UNL     1     -36.097  42.014 -53.937  1.00  0.00     0.320 C 
HETATM    3  N   UNL     1     -36.927  42.323 -54.975  1.00  0.00    -0.309 N 
HETATM    4  O   UNL     1     -36.192  42.602 -52.863  1.00  0.00    -0.247 OA
HETATM    5  H   UNL     1     -34.878  40.956 -55.153  1.00  0.00     0.164 HD
HETATM    6  H   UNL     1     -37.463  43.165 -54.791  1.00  0.00     0.170 HD
ENDROOT
BRANCH   3   7
HETATM    7  C   UNL     1     -37.123  41.710 -56.226  1.00  0.00     0.036 A 
HETATM    8  C   UNL     1     -37.997  40.643 -56.437  1.00  0.00     0.032 A 
HETATM    9  C   UNL     1     -38.059  40.005 -57.683  1.00  0.00     0.032 A 
HETATM   10  C   UNL     1     -37.267  40.442 -58.742  1.00  0.00     0.035 A 
HETATM   11  C   UNL     1     -36.473  41.579 -58.561  1.00  0.00     0.032 A 
HETATM   12  C   UNL     1     -36.407  42.214 -57.315  1.00  0.00     0.032 A 
BRANCH  10  13
HETATM   13  N   UNL     1     -37.192  39.789 -59.985  1.00  0.00    -0.321 N 
HETATM   14  C   UNL     1     -36.265  38.846 -60.398  1.00  0.00     0.279 C 
HETATM   15  O   UNL     1     -35.391  38.354 -59.691  1.00  0.00    -0.265 OA
HETATM   16  H   UNL     1     -37.828  40.097 -60.714  1.00  0.00     0.169 HD
BRANCH  14  17
HETATM   17  C   UNL     1     -36.393  38.515 -61.806  1.00  0.00     0.142 A 
HETATM   18  O   UNL     1     -35.361  37.873 -62.445  1.00  0.00    -0.317 OA
HETATM   19  C   UNL     1     -35.757  37.657 -63.726  1.00  0.00     0.143 A 
HETATM   20  C   UNL     1     -37.025  38.148 -63.929  1.00  0.00     0.027 A 
HETATM   21  C   UNL     1     -37.435  38.703 -62.694  1.00  0.00     0.045 A 
ENDBRANCH  14  17
ENDBRANCH  10  13
ENDBRANCH   3   7
BRANCH   1  22
HETATM   22  C   UNL     1     -34.152  40.701 -53.177  1.00  0.00     0.130 C 
BRANCH  22  23
HETATM   23  C   UNL     1     -32.887  40.125 -53.801  1.00  0.00     0.031 C 
HETATM   24  C   UNL     1     -33.085  39.768 -55.262  1.00  0.00     0.241 C 
HETATM   25  N   UNL     1     -31.925  38.837 -55.577  1.00  0.00    -0.071 N 
HETATM   26  H   UNL     1     -32.309  38.044 -56.112  1.00  0.00     0.279 HD
HETATM   27  C   UNL     1     -31.422  38.301 -54.240  1.00  0.00     0.235 C 
HETATM   28  C   UNL     1     -32.428  38.796 -53.219  1.00  0.00     0.035 C 
BRANCH  25  29
HETATM   29  C   UNL     1     -30.857  39.487 -56.425  1.00  0.00     0.234 C 
BRANCH  29  30
HETATM   30  C   UNL     1     -29.526  38.763 -56.255  1.00  0.00     0.023 C 
HETATM   31  C   UNL     1     -29.054  38.184 -57.580  1.00  0.00     0.007 C 
ENDBRANCH  29  30
ENDBRANCH  25  29
ENDBRANCH  22  23
ENDBRANCH   1  22
TORSDOF 7
ENDMDL
MODEL 7
REMARK VINA RESULT:      -6.9      2.431      8.502
REMARK  7 active torsions:
REMARK  status: ('A' for Active; 'I' for Inactive)
REMARK    1  A    between atoms: C_2  and  C_3 
REMARK    2  A    between atoms: C_3  and  N_4 
REMARK    3  A    between atoms: C_7  and  C_8 
REMARK    4  A    between atoms: C_8  and  N_9 
REMARK       I    between atoms: N_9  and  C_10 
REMARK       I    between atoms: C_10  and  N_11 
REMARK    5  A    between atoms: N_11  and  C_12 
REMARK    6  A    between atoms: C_15  and  N_16 
REMARK       I    between atoms: N_16  and  C_17 
REMARK    7  A    between atoms: C_17  and  C_18 
ROOT
HETATM    1  N   UNL     1     -42.718  57.989 -57.113  1.00  0.00    -0.342 N 
HETATM    2  C   UNL     1     -43.038  58.954 -56.205  1.00  0.00     0.320 C 
HETATM    3  N   UNL     1     -43.034  58.596 -54.889  1.00  0.00    -0.309 N 
HETATM    4  O   UNL     1     -43.405  60.076 -56.547  1.00  0.00    -0.247 OA
HETATM    5  H   UNL     1     -42.789  57.035 -56.788  1.00  0.00     0.164 HD
HETATM    6  H   UNL     1     -43.512  59.279 -54.311  1.00  0.00     0.170 HD
ENDROOT
BRANCH   3   7
HETATM    7  C   UNL     1     -42.530  57.456 -54.235  1.00  0.00     0.036 A 
HETATM    8  C   UNL     1     -41.173  57.239 -53.993  1.00  0.00     0.032 A 
HETATM    9  C   UNL     1     -40.730  56.032 -53.440  1.00  0.00     0.032 A 
HETATM   10  C   UNL     1     -41.639  55.034 -53.097  1.00  0.00     0.035 A 
HETATM   11  C   UNL     1     -43.006  55.295 -53.238  1.00  0.00     0.032 A 
HETATM   12  C   UNL     1     -43.449  56.501 -53.795  1.00  0.00     0.032 A 
BRANCH  10  13
HETATM   13  N   UNL     1     -41.266  53.757 -52.640  1.00  0.00    -0.321 N 
HETATM   14  C   UNL     1     -40.659  53.425 -51.439  1.00  0.00     0.279 C 
HETATM   15  O   UNL     1     -40.429  54.207 -50.521  1.00  0.00    -0.265 OA
HETATM   16  H   UNL     1     -41.357  52.983 -53.290  1.00  0.00     0.169 HD
BRANCH  14  17
HETATM   17  C   UNL     1     -40.265  52.029 -51.379  1.00  0.00     0.142 A 
HETATM   18  O   UNL     1     -39.848  51.397 -52.524  1.00  0.00    -0.317 OA
HETATM   19  C   UNL     1     -39.511  50.128 -52.180  1.00  0.00     0.143 A 
HETATM   20  C   UNL     1     -39.702  49.926 -50.833  1.00  0.00     0.027 A 
HETATM   21  C   UNL     1     -40.191  51.149 -50.317  1.00  0.00     0.045 A 
ENDBRANCH  14  17
ENDBRANCH  10  13
ENDBRANCH   3   7
BRANCH   1  22
HETATM   22  C   UNL     1     -42.698  58.229 -58.538  1.00  0.00     0.130 C 
BRANCH  22  23
HETATM   23  C   UNL     1     -43.399  57.118 -59.309  1.00  0.00     0.031 C 
HETATM   24  C   UNL     1     -44.894  57.098 -59.044  1.00  0.00     0.241 C 
HETATM   25  N   UNL     1     -45.335  55.718 -59.510  1.00  0.00    -0.071 N 
HETATM   26  H   UNL     1     -45.965  55.342 -58.787  1.00  0.00     0.279 HD
HETATM   27  C   UNL     1     -44.082  54.849 -59.540  1.00  0.00     0.235 C 
HETATM   28  C   UNL     1     -42.998  55.704 -58.912  1.00  0.00     0.035 C 
BRANCH  25  29
HETATM   29  C   UNL     1     -46.098  55.750 -60.812  1.00  0.00     0.234 C 
BRANCH  29  30
HETATM   30  C   UNL     1     -47.395  56.535 -60.652  1.00  0.00     0.023 C 
HETATM   31  C   UNL     1     -48.107  56.681 -61.988  1.00  0.00     0.007 C 
ENDBRANCH  29  30
ENDBRANCH  25  29
ENDBRANCH  22  23
ENDBRANCH   1  22
TORSDOF 7
ENDMDL
MODEL 8
REMARK VINA RESULT:      -6.9     15.459     18.727
REMARK  7 active torsions:
REMARK  status: ('A' for Active; 'I' for Inactive)
REMARK    1  A    between atoms: C_2  and  C_3 
REMARK    2  A    between atoms: C_3  and  N_4 
REMARK    3  A    between atoms: C_7  and  C_8 
REMARK    4  A    between atoms: C_8  and  N_9 
REMARK       I    between atoms: N_9  and  C_10 
REMARK       I    between atoms: C_10  and  N_11 
REMARK    5  A    between atoms: N_11  and  C_12 
REMARK    6  A    between atoms: C_15  and  N_16 
REMARK       I    between atoms: N_16  and  C_17 
REMARK    7  A    between atoms: C_17  and  C_18 
ROOT
HETATM    1  N   UNL     1     -37.182  40.643 -59.890  1.00  0.00    -0.342 N 
HETATM    2  C   UNL     1     -37.306  41.993 -59.754  1.00  0.00     0.320 C 
HETATM    3  N   UNL     1     -37.259  42.496 -58.486  1.00  0.00    -0.309 N 
HETATM    4  O   UNL     1     -37.542  42.727 -60.710  1.00  0.00    -0.247 OA
HETATM    5  H   UNL     1     -37.357  40.095 -59.059  1.00  0.00     0.164 HD
HETATM    6  H   UNL     1     -37.601  43.451 -58.447  1.00  0.00     0.170 HD
ENDROOT
BRANCH   3   7
HETATM    7  C   UNL     1     -36.868  41.914 -57.266  1.00  0.00     0.036 A 
HETATM    8  C   UNL     1     -37.767  41.413 -56.324  1.00  0.00     0.032 A 
HETATM    9  C   UNL     1     -37.317  40.952 -55.081  1.00  0.00     0.032 A 
HETATM   10  C   UNL     1     -35.958  40.959 -54.773  1.00  0.00     0.035 A 
HETATM   11  C   UNL     1     -35.049  41.358 -55.758  1.00  0.00     0.032 A 
HETATM   12  C   UNL     1     -35.500  41.824 -57.000  1.00  0.00     0.032 A 
BRANCH  10  13
HETATM   13  N   UNL     1     -35.439  40.615 -53.512  1.00  0.00    -0.321 N 
HETATM   14  C   UNL     1     -35.164  41.456 -52.445  1.00  0.00     0.279 C 
HETATM   15  O   UNL     1     -35.422  42.655 -52.403  1.00  0.00    -0.265 OA
HETATM   16  H   UNL     1     -35.136  39.656 -53.377  1.00  0.00     0.169 HD
BRANCH  14  17
HETATM   17  C   UNL     1     -34.476  40.777 -51.362  1.00  0.00     0.142 A 
HETATM   18  O   UNL     1     -35.078  39.706 -50.748  1.00  0.00    -0.317 OA
HETATM   19  C   UNL     1     -34.212  39.246 -49.808  1.00  0.00     0.143 A 
HETATM   20  C   UNL     1     -33.062  40.000 -49.801  1.00  0.00     0.027 A 
HETATM   21  C   UNL     1     -33.232  40.988 -50.800  1.00  0.00     0.045 A 
ENDBRANCH  14  17
ENDBRANCH  10  13
ENDBRANCH   3   7
BRANCH   1  22
HETATM   22  C   UNL     1     -37.228  39.977 -61.172  1.00  0.00     0.130 C 
BRANCH  22  23
HETATM   23  C   UNL     1     -38.329  38.925 -61.225  1.00  0.00     0.031 C 
HETATM   24  C   UNL     1     -38.855  38.584 -59.842  1.00  0.00     0.241 C 
HETATM   25  N   UNL     1     -39.583  37.262 -60.040  1.00  0.00    -0.071 N 
HETATM   26  H   UNL     1     -39.308  36.646 -59.261  1.00  0.00     0.279 HD
HETATM   27  C   UNL     1     -39.045  36.658 -61.332  1.00  0.00     0.235 C 
HETATM   28  C   UNL     1     -37.893  37.559 -61.735  1.00  0.00     0.035 C 
BRANCH  25  29
HETATM   29  C   UNL     1     -41.086  37.404 -60.001  1.00  0.00     0.234 C 
BRANCH  29  30
HETATM   30  C   UNL     1     -41.697  36.976 -61.331  1.00  0.00     0.023 C 
HETATM   31  C   UNL     1     -42.121  38.189 -62.146  1.00  0.00     0.007 C 
ENDBRANCH  29  30
ENDBRANCH  25  29
ENDBRANCH  22  23
ENDBRANCH   1  22
TORSDOF 7
ENDMDL
MODEL 9
REMARK VINA RESULT:      -6.8      2.586      7.693
REMARK  7 active torsions:
REMARK  status: ('A' for Active; 'I' for Inactive)
REMARK    1  A    between atoms: C_2  and  C_3 
REMARK    2  A    between atoms: C_3  and  N_4 
REMARK    3  A    between atoms: C_7  and  C_8 
REMARK    4  A    between atoms: C_8  and  N_9 
REMARK       I    between atoms: N_9  and  C_10 
REMARK       I    between atoms: C_10  and  N_11 
REMARK    5  A    between atoms: N_11  and  C_12 
REMARK    6  A    between atoms: C_15  and  N_16 
REMARK       I    between atoms: N_16  and  C_17 
REMARK    7  A    between atoms: C_17  and  C_18 
ROOT
HETATM    1  N   UNL     1     -42.840  58.997 -54.412  1.00  0.00    -0.342 N 
HETATM    2  C   UNL     1     -43.247  59.694 -53.314  1.00  0.00     0.320 C 
HETATM    3  N   UNL     1     -43.263  59.026 -52.124  1.00  0.00    -0.309 N 
HETATM    4  O   UNL     1     -43.670  60.844 -53.392  1.00  0.00    -0.247 OA
HETATM    5  H   UNL     1     -42.862  57.990 -54.330  1.00  0.00     0.164 HD
HETATM    6  H   UNL     1     -43.800  59.522 -51.421  1.00  0.00     0.170 HD
ENDROOT
BRANCH   3   7
HETATM    7  C   UNL     1     -42.711  57.789 -51.743  1.00  0.00     0.036 A 
HETATM    8  C   UNL     1     -41.543  57.661 -50.990  1.00  0.00     0.032 A 
HETATM    9  C   UNL     1     -40.986  56.401 -50.742  1.00  0.00     0.032 A 
HETATM   10  C   UNL     1     -41.604  55.247 -51.220  1.00  0.00     0.035 A 
HETATM   11  C   UNL     1     -42.832  55.368 -51.879  1.00  0.00     0.032 A 
HETATM   12  C   UNL     1     -43.387  56.629 -52.131  1.00  0.00     0.032 A 
BRANCH  10  13
HETATM   13  N   UNL     1     -41.053  53.959 -51.107  1.00  0.00    -0.321 N 
HETATM   14  C   UNL     1     -40.443  53.203 -52.095  1.00  0.00     0.279 C 
HETATM   15  O   UNL     1     -40.201  53.588 -53.235  1.00  0.00    -0.265 OA
HETATM   16  H   UNL     1     -41.189  53.467 -50.229  1.00  0.00     0.169 HD
BRANCH  14  17
HETATM   17  C   UNL     1     -40.145  51.850 -51.660  1.00  0.00     0.142 A 
HETATM   18  O   UNL     1     -39.674  50.937 -52.571  1.00  0.00    -0.317 OA
HETATM   19  C   UNL     1     -39.449  49.780 -51.897  1.00  0.00     0.143 A 
HETATM   20  C   UNL     1     -39.766  49.926 -50.567  1.00  0.00     0.027 A 
HETATM   21  C   UNL     1     -40.217  51.258 -50.413  1.00  0.00     0.045 A 
ENDBRANCH  14  17
ENDBRANCH  10  13
ENDBRANCH   3   7
BRANCH   1  22
HETATM   22  C   UNL     1     -42.788  59.577 -55.734  1.00  0.00     0.130 C 
BRANCH  22  23
HETATM   23  C   UNL     1     -42.983  58.527 -56.821  1.00  0.00     0.031 C 
HETATM   24  C   UNL     1     -44.450  58.211 -57.049  1.00  0.00     0.241 C 
HETATM   25  N   UNL     1     -44.432  56.888 -57.800  1.00  0.00    -0.071 N 
HETATM   26  H   UNL     1     -45.147  56.284 -57.368  1.00  0.00     0.279 HD
HETATM   27  C   UNL     1     -43.067  56.259 -57.540  1.00  0.00     0.235 C 
HETATM   28  C   UNL     1     -42.419  57.151 -56.498  1.00  0.00     0.035 C 
BRANCH  25  29
HETATM   29  C   UNL     1     -44.778  57.033 -59.263  1.00  0.00     0.234 C 
BRANCH  29  30
HETATM   30  C   UNL     1     -43.919  56.100 -60.109  1.00  0.00     0.023 C 
HETATM   31  C   UNL     1     -44.686  54.835 -60.466  1.00  0.00     0.007 C 
ENDBRANCH  29  30
ENDBRANCH  25  29
ENDBRANCH  22  23
ENDBRANCH   1  22
TORSDOF 7
ENDMDL
MODEL 10
REMARK VINA RESULT:      -6.7      3.321      8.151
REMARK  7 active torsions:
REMARK  status: ('A' for Active; 'I' for Inactive)
REMARK    1  A    between atoms: C_2  and  C_3 
REMARK    2  A    between atoms: C_3  and  N_4 
REMARK    3  A    between atoms: C_7  and  C_8 
REMARK    4  A    between atoms: C_8  and  N_9 
REMARK       I    between atoms: N_9  and  C_10 
REMARK       I    between atoms: C_10  and  N_11 
REMARK    5  A    between atoms: N_11  and  C_12 
REMARK    6  A    between atoms: C_15  and  N_16 
REMARK       I    between atoms: N_16  and  C_17 
REMARK    7  A    between atoms: C_17  and  C_18 
ROOT
HETATM    1  N   UNL     1     -42.604  59.294 -55.423  1.00  0.00    -0.342 N 
HETATM    2  C   UNL     1     -43.694  59.476 -54.625  1.00  0.00     0.320 C 
HETATM    3  N   UNL     1     -44.077  58.423 -53.846  1.00  0.00    -0.309 N 
HETATM    4  O   UNL     1     -44.367  60.503 -54.664  1.00  0.00    -0.247 OA
HETATM    5  H   UNL     1     -42.341  58.335 -55.601  1.00  0.00     0.164 HD
HETATM    6  H   UNL     1     -45.015  58.546 -53.480  1.00  0.00     0.170 HD
ENDROOT
BRANCH   3   7
HETATM    7  C   UNL     1     -43.421  57.223 -53.514  1.00  0.00     0.036 A 
HETATM    8  C   UNL     1     -42.373  57.142 -52.597  1.00  0.00     0.032 A 
HETATM    9  C   UNL     1     -41.689  55.936 -52.398  1.00  0.00     0.032 A 
HETATM   10  C   UNL     1     -42.061  54.788 -53.092  1.00  0.00     0.035 A 
HETATM   11  C   UNL     1     -43.182  54.843 -53.928  1.00  0.00     0.032 A 
HETATM   12  C   UNL     1     -43.863  56.050 -54.131  1.00  0.00     0.032 A 
BRANCH  10  13
HETATM   13  N   UNL     1     -41.359  53.572 -53.029  1.00  0.00    -0.321 N 
HETATM   14  C   UNL     1     -40.483  53.043 -53.963  1.00  0.00     0.279 C 
HETATM   15  O   UNL     1     -40.103  53.614 -54.981  1.00  0.00    -0.265 OA
HETATM   16  H   UNL     1     -41.575  52.947 -52.259  1.00  0.00     0.169 HD
BRANCH  14  17
HETATM   17  C   UNL     1     -40.074  51.687 -53.643  1.00  0.00     0.142 A 
HETATM   18  O   UNL     1     -39.836  51.347 -52.334  1.00  0.00    -0.317 OA
HETATM   19  C   UNL     1     -39.509  50.029 -52.318  1.00  0.00     0.143 A 
HETATM   20  C   UNL     1     -39.530  49.510 -53.591  1.00  0.00     0.027 A 
HETATM   21  C   UNL     1     -39.891  50.578 -54.446  1.00  0.00     0.045 A 
ENDBRANCH  14  17
ENDBRANCH  10  13
ENDBRANCH   3   7
BRANCH   1  22
HETATM   22  C   UNL     1     -42.100  60.320 -56.307  1.00  0.00     0.130 C 
BRANCH  22  23
HETATM   23  C   UNL     1     -42.155  59.885 -57.767  1.00  0.00     0.031 C 
HETATM   24  C   UNL     1     -43.543  60.051 -58.358  1.00  0.00     0.241 C 
HETATM   25  N   UNL     1     -43.518  59.187 -59.610  1.00  0.00    -0.071 N 
HETATM   26  H   UNL     1     -44.398  58.651 -59.625  1.00  0.00     0.279 HD
HETATM   27  C   UNL     1     -42.368  58.201 -59.435  1.00  0.00     0.235 C 
HETATM   28  C   UNL     1     -41.891  58.406 -58.010  1.00  0.00     0.035 C 
BRANCH  25  29
HETATM   29  C   UNL     1     -43.452  59.995 -60.884  1.00  0.00     0.234 C 
BRANCH  29  30
HETATM   30  C   UNL     1     -42.014  60.095 -61.379  1.00  0.00     0.023 C 
HETATM   31  C   UNL     1     -41.450  61.485 -61.126  1.00  0.00     0.007 C 
ENDBRANCH  29  30
ENDBRANCH  25  29
ENDBRANCH  22  23
ENDBRANCH   1  22
TORSDOF 7
ENDMDL
