MODEL 1
REMARK VINA RESULT:      -7.6      0.000      0.000
REMARK  8 active torsions:
REMARK  status: ('A' for Active; 'I' for Inactive)
REMARK    1  A    between atoms: C_7  and  C_8 
REMARK    2  A    between atoms: C_11  and  N_12 
REMARK       I    between atoms: N_12  and  C_13 
REMARK    3  A    between atoms: C_13  and  C_14 
REMARK    4  A    between atoms: C_14  and  N_15 
REMARK    5  A    between atoms: N_15  and  C_18 
REMARK    6  A    between atoms: C_18  and  C_19 
REMARK    7  A    between atoms: C_19  and  C_20 
REMARK    8  A    between atoms: C_20  and  O_21 
ROOT
HETATM    1  C   UNL     1     -42.378  56.518 -52.053  1.00  0.00    -0.000 A 
HETATM    2  C   UNL     1     -41.617  57.530 -51.452  1.00  0.00     0.016 A 
HETATM    3  C   UNL     1     -42.202  58.745 -51.064  1.00  0.00     0.030 A 
HETATM    4  C   UNL     1     -43.562  58.978 -51.265  1.00  0.00     0.034 A 
HETATM    5  C   UNL     1     -44.325  57.984 -51.887  1.00  0.00     0.030 A 
HETATM    6  C   UNL     1     -43.741  56.769 -52.268  1.00  0.00     0.016 A 
ENDROOT
BRANCH   4   7
HETATM    7  N   UNL     1     -44.235  60.151 -50.851  1.00  0.00    -0.326 N 
HETATM    8  C   UNL     1     -45.385  60.210 -50.094  1.00  0.00     0.247 C 
HETATM    9  O   UNL     1     -46.006  59.273 -49.592  1.00  0.00    -0.271 OA
HETATM   10  H   UNL     1     -43.830  61.013 -51.198  1.00  0.00     0.169 HD
BRANCH   8  11
HETATM   11  C   UNL     1     -45.958  61.617 -49.904  1.00  0.00     0.334 C 
BRANCH  11  12
HETATM   12  N   UNL     1     -46.311  61.813 -48.448  1.00  0.00    -0.067 N 
HETATM   13  H   UNL     1     -47.025  62.554 -48.393  1.00  0.00     0.277 HD
HETATM   14  H   UNL     1     -46.830  60.967 -48.157  1.00  0.00     0.277 HD
BRANCH  12  15
HETATM   15  C   UNL     1     -45.172  62.079 -47.530  1.00  0.00     0.235 C 
BRANCH  15  16
HETATM   16  C   UNL     1     -45.022  60.898 -46.580  1.00  0.00     0.053 C 
BRANCH  16  17
HETATM   17  C   UNL     1     -46.377  60.343 -46.167  1.00  0.00     0.165 C 
BRANCH  17  18
HETATM   18  O   UNL     1     -46.625  59.162 -46.910  1.00  0.00    -0.401 OA
HETATM   19  H   UNL     1     -45.769  58.703 -47.019  1.00  0.00     0.209 HD
ENDBRANCH  17  18
ENDBRANCH  16  17
ENDBRANCH  15  16
ENDBRANCH  12  15
ENDBRANCH  11  12
ENDBRANCH   8  11
ENDBRANCH   4   7
BRANCH   1  20
HETATM   20  C   UNL     1     -41.823  55.198 -52.410  1.00  0.00     0.109 A 
HETATM   21  N   UNL     1     -41.044  54.497 -51.611  1.00  0.00    -0.240 NA
HETATM   22  C   UNL     1     -40.630  53.333 -52.238  1.00  0.00     0.075 A 
HETATM   23  C   UNL     1     -41.138  53.134 -53.521  1.00  0.00     0.036 A 
HETATM   24  C   UNL     1     -39.755  52.369 -51.700  1.00  0.00     0.033 A 
HETATM   25  C   UNL     1     -40.804  52.005 -54.289  1.00  0.00     0.028 A 
HETATM   26  S   UNL     1     -42.164  54.453 -53.924  1.00  0.00    -0.067 SA
HETATM   27  C   UNL     1     -39.925  51.057 -53.742  1.00  0.00    -0.061 A 
HETATM   28  C   UNL     1     -39.522  49.847 -54.536  1.00  0.00     0.048 C 
HETATM   29  C   UNL     1     -39.408  51.245 -52.458  1.00  0.00     0.009 A 
ENDBRANCH   1  20
TORSDOF 8
ENDMDL
MODEL 2
REMARK VINA RESULT:      -6.6      1.619      2.186
REMARK  8 active torsions:
REMARK  status: ('A' for Active; 'I' for Inactive)
REMARK    1  A    between atoms: C_7  and  C_8 
REMARK    2  A    between atoms: C_11  and  N_12 
REMARK       I    between atoms: N_12  and  C_13 
REMARK    3  A    between atoms: C_13  and  C_14 
REMARK    4  A    between atoms: C_14  and  N_15 
REMARK    5  A    between atoms: N_15  and  C_18 
REMARK    6  A    between atoms: C_18  and  C_19 
REMARK    7  A    between atoms: C_19  and  C_20 
REMARK    8  A    between atoms: C_20  and  O_21 
ROOT
HETATM    1  C   UNL     1     -43.334  57.777 -51.727  1.00  0.00    -0.000 A 
HETATM    2  C   UNL     1     -42.735  58.991 -51.365  1.00  0.00     0.016 A 
HETATM    3  C   UNL     1     -43.485  60.029 -50.792  1.00  0.00     0.030 A 
HETATM    4  C   UNL     1     -44.853  59.879 -50.566  1.00  0.00     0.034 A 
HETATM    5  C   UNL     1     -45.465  58.681 -50.947  1.00  0.00     0.030 A 
HETATM    6  C   UNL     1     -44.714  57.642 -51.513  1.00  0.00     0.016 A 
ENDROOT
BRANCH   4   7
HETATM    7  N   UNL     1     -45.665  60.855 -49.943  1.00  0.00    -0.326 N 
HETATM    8  C   UNL     1     -46.138  62.014 -50.518  1.00  0.00     0.247 C 
HETATM    9  O   UNL     1     -45.996  62.391 -51.681  1.00  0.00    -0.271 OA
HETATM   10  H   UNL     1     -45.865  60.674 -48.965  1.00  0.00     0.169 HD
BRANCH   8  11
HETATM   11  C   UNL     1     -46.892  62.944 -49.564  1.00  0.00     0.334 C 
BRANCH  11  12
HETATM   12  N   UNL     1     -46.106  63.074 -48.280  1.00  0.00    -0.067 N 
HETATM   13  H   UNL     1     -45.199  62.602 -48.415  1.00  0.00     0.277 HD
HETATM   14  H   UNL     1     -45.839  64.070 -48.199  1.00  0.00     0.277 HD
BRANCH  12  15
HETATM   15  C   UNL     1     -46.789  62.606 -47.045  1.00  0.00     0.235 C 
BRANCH  15  16
HETATM   16  C   UNL     1     -45.736  62.113 -46.060  1.00  0.00     0.053 C 
BRANCH  16  17
HETATM   17  C   UNL     1     -45.559  60.604 -46.147  1.00  0.00     0.165 C 
BRANCH  17  18
HETATM   18  O   UNL     1     -46.333  60.123 -47.232  1.00  0.00    -0.401 OA
HETATM   19  H   UNL     1     -46.530  60.887 -47.810  1.00  0.00     0.209 HD
ENDBRANCH  17  18
ENDBRANCH  16  17
ENDBRANCH  15  16
ENDBRANCH  12  15
ENDBRANCH  11  12
ENDBRANCH   8  11
ENDBRANCH   4   7
BRANCH   1  20
HETATM   20  C   UNL     1     -42.574  56.632 -52.263  1.00  0.00     0.109 A 
HETATM   21  N   UNL     1     -41.952  56.652 -53.425  1.00  0.00    -0.240 NA
HETATM   22  C   UNL     1     -41.379  55.419 -53.689  1.00  0.00     0.075 A 
HETATM   23  C   UNL     1     -41.538  54.461 -52.688  1.00  0.00     0.036 A 
HETATM   24  C   UNL     1     -40.677  55.066 -54.857  1.00  0.00     0.033 A 
HETATM   25  C   UNL     1     -41.021  53.160 -52.812  1.00  0.00     0.028 A 
HETATM   26  S   UNL     1     -42.429  55.154 -51.392  1.00  0.00    -0.067 SA
HETATM   27  C   UNL     1     -40.331  52.820 -53.986  1.00  0.00    -0.061 A 
HETATM   28  C   UNL     1     -39.781  51.434 -54.171  1.00  0.00     0.048 C 
HETATM   29  C   UNL     1     -40.164  53.770 -54.997  1.00  0.00     0.009 A 
ENDBRANCH   1  20
TORSDOF 8
ENDMDL
MODEL 3
REMARK VINA RESULT:      -6.5     17.768     20.524
REMARK  8 active torsions:
REMARK  status: ('A' for Active; 'I' for Inactive)
REMARK    1  A    between atoms: C_7  and  C_8 
REMARK    2  A    between atoms: C_11  and  N_12 
REMARK       I    between atoms: N_12  and  C_13 
REMARK    3  A    between atoms: C_13  and  C_14 
REMARK    4  A    between atoms: C_14  and  N_15 
REMARK    5  A    between atoms: N_15  and  C_18 
REMARK    6  A    between atoms: C_18  and  C_19 
REMARK    7  A    between atoms: C_19  and  C_20 
REMARK    8  A    between atoms: C_20  and  O_21 
ROOT
HETATM    1  C   UNL     1     -32.666  39.828 -49.914  1.00  0.00    -0.000 A 
HETATM    2  C   UNL     1     -31.937  40.239 -51.038  1.00  0.00     0.016 A 
HETATM    3  C   UNL     1     -32.575  40.517 -52.256  1.00  0.00     0.030 A 
HETATM    4  C   UNL     1     -33.958  40.393 -52.381  1.00  0.00     0.034 A 
HETATM    5  C   UNL     1     -34.692  39.960 -51.272  1.00  0.00     0.030 A 
HETATM    6  C   UNL     1     -34.055  39.689 -50.054  1.00  0.00     0.016 A 
ENDROOT
BRANCH   4   7
HETATM    7  N   UNL     1     -34.680  40.709 -53.555  1.00  0.00    -0.326 N 
HETATM    8  C   UNL     1     -35.468  41.820 -53.758  1.00  0.00     0.247 C 
HETATM    9  O   UNL     1     -35.649  42.765 -52.990  1.00  0.00    -0.271 OA
HETATM   10  H   UNL     1     -34.623  40.006 -54.285  1.00  0.00     0.169 HD
BRANCH   8  11
HETATM   11  C   UNL     1     -36.230  41.835 -55.085  1.00  0.00     0.334 C 
BRANCH  11  12
HETATM   12  N   UNL     1     -35.278  42.219 -56.194  1.00  0.00    -0.067 N 
HETATM   13  H   UNL     1     -35.260  43.248 -56.254  1.00  0.00     0.277 HD
HETATM   14  H   UNL     1     -34.328  41.990 -55.857  1.00  0.00     0.277 HD
BRANCH  12  15
HETATM   15  C   UNL     1     -35.535  41.598 -57.520  1.00  0.00     0.235 C 
BRANCH  15  16
HETATM   16  C   UNL     1     -36.844  42.150 -58.074  1.00  0.00     0.053 C 
BRANCH  16  17
HETATM   17  C   UNL     1     -37.201  41.499 -59.402  1.00  0.00     0.165 C 
BRANCH  17  18
HETATM   18  O   UNL     1     -37.255  42.508 -60.396  1.00  0.00    -0.401 OA
HETATM   19  H   UNL     1     -36.502  43.111 -60.239  1.00  0.00     0.209 HD
ENDBRANCH  17  18
ENDBRANCH  16  17
ENDBRANCH  15  16
ENDBRANCH  12  15
ENDBRANCH  11  12
ENDBRANCH   8  11
ENDBRANCH   4   7
BRANCH   1  20
HETATM   20  C   UNL     1     -32.049  39.596 -48.594  1.00  0.00     0.109 A 
HETATM   21  N   UNL     1     -31.206  40.437 -48.027  1.00  0.00    -0.240 NA
HETATM   22  C   UNL     1     -30.747  39.926 -46.825  1.00  0.00     0.075 A 
HETATM   23  C   UNL     1     -31.282  38.692 -46.459  1.00  0.00     0.036 A 
HETATM   24  C   UNL     1     -29.803  40.533 -45.974  1.00  0.00     0.033 A 
HETATM   25  C   UNL     1     -30.909  38.039 -45.271  1.00  0.00     0.028 A 
HETATM   26  S   UNL     1     -32.393  38.186 -47.669  1.00  0.00    -0.067 SA
HETATM   27  C   UNL     1     -29.961  38.652 -44.437  1.00  0.00    -0.061 A 
HETATM   28  C   UNL     1     -29.514  37.981 -43.170  1.00  0.00     0.048 C 
HETATM   29  C   UNL     1     -29.415  39.889 -44.793  1.00  0.00     0.009 A 
ENDBRANCH   1  20
TORSDOF 8
ENDMDL
MODEL 4
REMARK VINA RESULT:      -6.5     17.769     20.600
REMARK  8 active torsions:
REMARK  status: ('A' for Active; 'I' for Inactive)
REMARK    1  A    between atoms: C_7  and  C_8 
REMARK    2  A    between atoms: C_11  and  N_12 
REMARK       I    between atoms: N_12  and  C_13 
REMARK    3  A    between atoms: C_13  and  C_14 
REMARK    4  A    between atoms: C_14  and  N_15 
REMARK    5  A    between atoms: N_15  and  C_18 
REMARK    6  A    between atoms: C_18  and  C_19 
REMARK    7  A    between atoms: C_19  and  C_20 
REMARK    8  A    between atoms: C_20  and  O_21 
ROOT
HETATM    1  C   UNL     1     -33.726  40.315 -52.108  1.00  0.00    -0.000 A 
HETATM    2  C   UNL     1     -32.334  40.239 -51.972  1.00  0.00     0.016 A 
HETATM    3  C   UNL     1     -31.744  39.768 -50.791  1.00  0.00     0.030 A 
HETATM    4  C   UNL     1     -32.531  39.358 -49.715  1.00  0.00     0.034 A 
HETATM    5  C   UNL     1     -33.922  39.453 -49.831  1.00  0.00     0.030 A 
HETATM    6  C   UNL     1     -34.510  39.919 -51.014  1.00  0.00     0.016 A 
ENDROOT
BRANCH   4   7
HETATM    7  N   UNL     1     -32.014  38.818 -48.514  1.00  0.00    -0.326 N 
HETATM    8  C   UNL     1     -31.243  39.480 -47.584  1.00  0.00     0.247 C 
HETATM    9  O   UNL     1     -30.907  40.665 -47.590  1.00  0.00    -0.271 OA
HETATM   10  H   UNL     1     -32.214  37.833 -48.375  1.00  0.00     0.169 HD
BRANCH   8  11
HETATM   11  C   UNL     1     -30.722  38.606 -46.441  1.00  0.00     0.334 C 
BRANCH  11  12
HETATM   12  N   UNL     1     -30.253  39.497 -45.315  1.00  0.00    -0.067 N 
HETATM   13  H   UNL     1     -30.567  40.457 -45.519  1.00  0.00     0.277 HD
HETATM   14  H   UNL     1     -30.815  39.240 -44.485  1.00  0.00     0.277 HD
BRANCH  12  15
HETATM   15  C   UNL     1     -28.799  39.450 -45.007  1.00  0.00     0.235 C 
BRANCH  15  16
HETATM   16  C   UNL     1     -28.086  38.695 -46.122  1.00  0.00     0.053 C 
BRANCH  16  17
HETATM   17  C   UNL     1     -27.252  39.634 -46.981  1.00  0.00     0.165 C 
BRANCH  17  18
HETATM   18  O   UNL     1     -27.970  40.844 -47.152  1.00  0.00    -0.401 OA
HETATM   19  H   UNL     1     -28.899  40.667 -46.904  1.00  0.00     0.209 HD
ENDBRANCH  17  18
ENDBRANCH  16  17
ENDBRANCH  15  16
ENDBRANCH  12  15
ENDBRANCH  11  12
ENDBRANCH   8  11
ENDBRANCH   4   7
BRANCH   1  20
HETATM   20  C   UNL     1     -34.392  40.735 -53.356  1.00  0.00     0.109 A 
HETATM   21  N   UNL     1     -35.634  41.175 -53.405  1.00  0.00    -0.240 NA
HETATM   22  C   UNL     1     -36.005  41.433 -54.714  1.00  0.00     0.075 A 
HETATM   23  C   UNL     1     -35.011  41.222 -55.668  1.00  0.00     0.036 A 
HETATM   24  C   UNL     1     -37.272  41.873 -55.144  1.00  0.00     0.033 A 
HETATM   25  C   UNL     1     -35.237  41.432 -57.039  1.00  0.00     0.028 A 
HETATM   26  S   UNL     1     -33.583  40.689 -54.874  1.00  0.00    -0.067 SA
HETATM   27  C   UNL     1     -36.507  41.861 -57.453  1.00  0.00    -0.061 A 
HETATM   28  C   UNL     1     -36.800  42.077 -58.911  1.00  0.00     0.048 C 
HETATM   29  C   UNL     1     -37.512  42.077 -56.508  1.00  0.00     0.009 A 
ENDBRANCH   1  20
TORSDOF 8
ENDMDL
MODEL 5
REMARK VINA RESULT:      -6.4      2.032      2.309
REMARK  8 active torsions:
REMARK  status: ('A' for Active; 'I' for Inactive)
REMARK    1  A    between atoms: C_7  and  C_8 
REMARK    2  A    between atoms: C_11  and  N_12 
REMARK       I    between atoms: N_12  and  C_13 
REMARK    3  A    between atoms: C_13  and  C_14 
REMARK    4  A    between atoms: C_14  and  N_15 
REMARK    5  A    between atoms: N_15  and  C_18 
REMARK    6  A    between atoms: C_18  and  C_19 
REMARK    7  A    between atoms: C_19  and  C_20 
REMARK    8  A    between atoms: C_20  and  O_21 
ROOT
HETATM    1  C   UNL     1     -42.859  56.705 -52.001  1.00  0.00    -0.000 A 
HETATM    2  C   UNL     1     -42.205  57.940 -52.098  1.00  0.00     0.016 A 
HETATM    3  C   UNL     1     -42.826  59.126 -51.681  1.00  0.00     0.030 A 
HETATM    4  C   UNL     1     -44.117  59.108 -51.155  1.00  0.00     0.034 A 
HETATM    5  C   UNL     1     -44.789  57.883 -51.077  1.00  0.00     0.030 A 
HETATM    6  C   UNL     1     -44.165  56.698 -51.488  1.00  0.00     0.016 A 
ENDROOT
BRANCH   4   7
HETATM    7  N   UNL     1     -44.789  60.251 -50.661  1.00  0.00    -0.326 N 
HETATM    8  C   UNL     1     -45.901  60.848 -51.212  1.00  0.00     0.247 C 
HETATM    9  O   UNL     1     -46.548  60.477 -52.191  1.00  0.00    -0.271 OA
HETATM   10  H   UNL     1     -44.358  60.671 -49.845  1.00  0.00     0.169 HD
BRANCH   8  11
HETATM   11  C   UNL     1     -46.337  62.147 -50.530  1.00  0.00     0.334 C 
BRANCH  11  12
HETATM   12  N   UNL     1     -45.439  63.271 -50.993  1.00  0.00    -0.067 N 
HETATM   13  H   UNL     1     -44.558  62.854 -51.330  1.00  0.00     0.277 HD
HETATM   14  H   UNL     1     -45.863  63.648 -51.857  1.00  0.00     0.277 HD
BRANCH  12  15
HETATM   15  C   UNL     1     -45.189  64.356 -50.007  1.00  0.00     0.235 C 
BRANCH  15  16
HETATM   16  C   UNL     1     -43.998  63.965 -49.140  1.00  0.00     0.053 C 
BRANCH  16  17
HETATM   17  C   UNL     1     -42.739  63.788 -49.975  1.00  0.00     0.165 C 
BRANCH  17  18
HETATM   18  O   UNL     1     -42.660  62.435 -50.387  1.00  0.00    -0.401 OA
HETATM   19  H   UNL     1     -42.216  62.421 -51.258  1.00  0.00     0.209 HD
ENDBRANCH  17  18
ENDBRANCH  16  17
ENDBRANCH  15  16
ENDBRANCH  12  15
ENDBRANCH  11  12
ENDBRANCH   8  11
ENDBRANCH   4   7
BRANCH   1  20
HETATM   20  C   UNL     1     -42.220  55.424 -52.358  1.00  0.00     0.109 A 
HETATM   21  N   UNL     1     -41.367  54.794 -51.574  1.00  0.00    -0.240 NA
HETATM   22  C   UNL     1     -40.888  53.654 -52.198  1.00  0.00     0.075 A 
HETATM   23  C   UNL     1     -41.418  53.398 -53.461  1.00  0.00     0.036 A 
HETATM   24  C   UNL     1     -39.929  52.766 -51.674  1.00  0.00     0.033 A 
HETATM   25  C   UNL     1     -41.025  52.284 -54.223  1.00  0.00     0.028 A 
HETATM   26  S   UNL     1     -42.549  54.632 -53.850  1.00  0.00    -0.067 SA
HETATM   27  C   UNL     1     -40.062  51.412 -53.692  1.00  0.00    -0.061 A 
HETATM   28  C   UNL     1     -39.595  50.222 -54.481  1.00  0.00     0.048 C 
HETATM   29  C   UNL     1     -39.522  51.658 -52.427  1.00  0.00     0.009 A 
ENDBRANCH   1  20
TORSDOF 8
ENDMDL
MODEL 6
REMARK VINA RESULT:      -6.4      5.612      7.252
REMARK  8 active torsions:
REMARK  status: ('A' for Active; 'I' for Inactive)
REMARK    1  A    between atoms: C_7  and  C_8 
REMARK    2  A    between atoms: C_11  and  N_12 
REMARK       I    between atoms: N_12  and  C_13 
REMARK    3  A    between atoms: C_13  and  C_14 
REMARK    4  A    between atoms: C_14  and  N_15 
REMARK    5  A    between atoms: N_15  and  C_18 
REMARK    6  A    between atoms: C_18  and  C_19 
REMARK    7  A    between atoms: C_19  and  C_20 
REMARK    8  A    between atoms: C_20  and  O_21 
ROOT
HETATM    1  C   UNL     1     -41.812  55.423 -55.205  1.00  0.00    -0.000 A 
HETATM    2  C   UNL     1     -41.759  56.746 -54.748  1.00  0.00     0.016 A 
HETATM    3  C   UNL     1     -42.375  57.786 -55.459  1.00  0.00     0.030 A 
HETATM    4  C   UNL     1     -43.062  57.529 -56.645  1.00  0.00     0.034 A 
HETATM    5  C   UNL     1     -43.100  56.215 -57.124  1.00  0.00     0.030 A 
HETATM    6  C   UNL     1     -42.490  55.177 -56.408  1.00  0.00     0.016 A 
ENDROOT
BRANCH   4   7
HETATM    7  N   UNL     1     -43.756  58.512 -57.389  1.00  0.00    -0.326 N 
HETATM    8  C   UNL     1     -45.089  58.838 -57.270  1.00  0.00     0.247 C 
HETATM    9  O   UNL     1     -45.907  58.386 -56.469  1.00  0.00    -0.271 OA
HETATM   10  H   UNL     1     -43.199  58.973 -58.100  1.00  0.00     0.169 HD
BRANCH   8  11
HETATM   11  C   UNL     1     -45.596  59.856 -58.295  1.00  0.00     0.334 C 
BRANCH  11  12
HETATM   12  N   UNL     1     -46.679  59.216 -59.131  1.00  0.00    -0.067 N 
HETATM   13  H   UNL     1     -47.292  58.680 -58.499  1.00  0.00     0.277 HD
HETATM   14  H   UNL     1     -47.292  59.983 -59.455  1.00  0.00     0.277 HD
BRANCH  12  15
HETATM   15  C   UNL     1     -46.216  58.388 -60.276  1.00  0.00     0.235 C 
BRANCH  15  16
HETATM   16  C   UNL     1     -46.569  56.931 -60.001  1.00  0.00     0.053 C 
BRANCH  16  17
HETATM   17  C   UNL     1     -45.437  56.000 -60.411  1.00  0.00     0.165 C 
BRANCH  17  18
HETATM   18  O   UNL     1     -45.561  54.793 -59.679  1.00  0.00    -0.401 OA
HETATM   19  H   UNL     1     -46.095  54.988 -58.884  1.00  0.00     0.209 HD
ENDBRANCH  17  18
ENDBRANCH  16  17
ENDBRANCH  15  16
ENDBRANCH  12  15
ENDBRANCH  11  12
ENDBRANCH   8  11
ENDBRANCH   4   7
BRANCH   1  20
HETATM   20  C   UNL     1     -41.243  54.288 -54.454  1.00  0.00     0.109 A 
HETATM   21  N   UNL     1     -40.924  53.135 -55.009  1.00  0.00    -0.240 NA
HETATM   22  C   UNL     1     -40.473  52.244 -54.050  1.00  0.00     0.075 A 
HETATM   23  C   UNL     1     -40.414  52.746 -52.751  1.00  0.00     0.036 A 
HETATM   24  C   UNL     1     -40.089  50.908 -54.277  1.00  0.00     0.033 A 
HETATM   25  C   UNL     1     -39.985  51.961 -51.667  1.00  0.00     0.028 A 
HETATM   26  S   UNL     1     -40.939  54.383 -52.763  1.00  0.00    -0.067 SA
HETATM   27  C   UNL     1     -39.614  50.629 -51.907  1.00  0.00    -0.061 A 
HETATM   28  C   UNL     1     -39.171  49.746 -50.775  1.00  0.00     0.048 C 
HETATM   29  C   UNL     1     -39.669  50.113 -53.204  1.00  0.00     0.009 A 
ENDBRANCH   1  20
TORSDOF 8
ENDMDL
MODEL 7
REMARK VINA RESULT:      -6.4     17.649     20.577
REMARK  8 active torsions:
REMARK  status: ('A' for Active; 'I' for Inactive)
REMARK    1  A    between atoms: C_7  and  C_8 
REMARK    2  A    between atoms: C_11  and  N_12 
REMARK       I    between atoms: N_12  and  C_13 
REMARK    3  A    between atoms: C_13  and  C_14 
REMARK    4  A    between atoms: C_14  and  N_15 
REMARK    5  A    between atoms: N_15  and  C_18 
REMARK    6  A    between atoms: C_18  and  C_19 
REMARK    7  A    between atoms: C_19  and  C_20 
REMARK    8  A    between atoms: C_20  and  O_21 
ROOT
HETATM    1  C   UNL     1     -32.468  39.929 -49.963  1.00  0.00    -0.000 A 
HETATM    2  C   UNL     1     -31.596  40.027 -51.056  1.00  0.00     0.016 A 
HETATM    3  C   UNL     1     -32.061  40.402 -52.325  1.00  0.00     0.030 A 
HETATM    4  C   UNL     1     -33.410  40.689 -52.533  1.00  0.00     0.034 A 
HETATM    5  C   UNL     1     -34.293  40.569 -51.455  1.00  0.00     0.030 A 
HETATM    6  C   UNL     1     -33.825  40.201 -50.187  1.00  0.00     0.016 A 
ENDROOT
BRANCH   4   7
HETATM    7  N   UNL     1     -33.946  41.127 -53.767  1.00  0.00    -0.326 N 
HETATM    8  C   UNL     1     -34.105  40.369 -54.906  1.00  0.00     0.247 C 
HETATM    9  O   UNL     1     -33.868  39.170 -55.052  1.00  0.00    -0.271 OA
HETATM   10  H   UNL     1     -34.187  42.112 -53.794  1.00  0.00     0.169 HD
BRANCH   8  11
HETATM   11  C   UNL     1     -34.597  41.144 -56.131  1.00  0.00     0.334 C 
BRANCH  11  12
HETATM   12  N   UNL     1     -35.989  41.664 -55.858  1.00  0.00    -0.067 N 
HETATM   13  H   UNL     1     -35.942  42.270 -55.025  1.00  0.00     0.277 HD
HETATM   14  H   UNL     1     -36.207  42.330 -56.618  1.00  0.00     0.277 HD
BRANCH  12  15
HETATM   15  C   UNL     1     -37.056  40.637 -55.729  1.00  0.00     0.235 C 
BRANCH  15  16
HETATM   16  C   UNL     1     -38.074  41.115 -54.700  1.00  0.00     0.053 C 
BRANCH  16  17
HETATM   17  C   UNL     1     -37.463  41.186 -53.308  1.00  0.00     0.165 C 
BRANCH  17  18
HETATM   18  O   UNL     1     -36.802  42.431 -53.171  1.00  0.00    -0.401 OA
HETATM   19  H   UNL     1     -35.846  42.268 -53.299  1.00  0.00     0.209 HD
ENDBRANCH  17  18
ENDBRANCH  16  17
ENDBRANCH  15  16
ENDBRANCH  12  15
ENDBRANCH  11  12
ENDBRANCH   8  11
ENDBRANCH   4   7
BRANCH   1  20
HETATM   20  C   UNL     1     -32.013  39.611 -48.596  1.00  0.00     0.109 A 
HETATM   21  N   UNL     1     -31.138  40.341 -47.933  1.00  0.00    -0.240 NA
HETATM   22  C   UNL     1     -30.860  39.765 -46.704  1.00  0.00     0.075 A 
HETATM   23  C   UNL     1     -31.567  38.598 -46.418  1.00  0.00     0.036 A 
HETATM   24  C   UNL     1     -29.939  40.247 -45.754  1.00  0.00     0.033 A 
HETATM   25  C   UNL     1     -31.389  37.893 -45.215  1.00  0.00     0.028 A 
HETATM   26  S   UNL     1     -32.606  38.240 -47.740  1.00  0.00    -0.067 SA
HETATM   27  C   UNL     1     -30.462  38.382 -44.282  1.00  0.00    -0.061 A 
HETATM   28  C   UNL     1     -30.222  37.648 -42.993  1.00  0.00     0.048 C 
HETATM   29  C   UNL     1     -29.745  39.549 -44.556  1.00  0.00     0.009 A 
ENDBRANCH   1  20
TORSDOF 8
ENDMDL
MODEL 8
REMARK VINA RESULT:      -6.2      1.938      3.111
REMARK  8 active torsions:
REMARK  status: ('A' for Active; 'I' for Inactive)
REMARK    1  A    between atoms: C_7  and  C_8 
REMARK    2  A    between atoms: C_11  and  N_12 
REMARK       I    between atoms: N_12  and  C_13 
REMARK    3  A    between atoms: C_13  and  C_14 
REMARK    4  A    between atoms: C_14  and  N_15 
REMARK    5  A    between atoms: N_15  and  C_18 
REMARK    6  A    between atoms: C_18  and  C_19 
REMARK    7  A    between atoms: C_19  and  C_20 
REMARK    8  A    between atoms: C_20  and  O_21 
ROOT
HETATM    1  C   UNL     1     -42.480  56.540 -52.159  1.00  0.00    -0.000 A 
HETATM    2  C   UNL     1     -41.824  57.479 -51.352  1.00  0.00     0.016 A 
HETATM    3  C   UNL     1     -42.437  58.692 -51.003  1.00  0.00     0.030 A 
HETATM    4  C   UNL     1     -43.722  58.996 -51.451  1.00  0.00     0.034 A 
HETATM    5  C   UNL     1     -44.376  58.076 -52.277  1.00  0.00     0.030 A 
HETATM    6  C   UNL     1     -43.765  56.862 -52.619  1.00  0.00     0.016 A 
ENDROOT
BRANCH   4   7
HETATM    7  N   UNL     1     -44.428  60.169 -51.097  1.00  0.00    -0.326 N 
HETATM    8  C   UNL     1     -45.494  60.252 -50.228  1.00  0.00     0.247 C 
HETATM    9  O   UNL     1     -45.993  59.346 -49.559  1.00  0.00    -0.271 OA
HETATM   10  H   UNL     1     -44.122  61.006 -51.581  1.00  0.00     0.169 HD
BRANCH   8  11
HETATM   11  C   UNL     1     -46.140  61.636 -50.133  1.00  0.00     0.334 C 
BRANCH  11  12
HETATM   12  N   UNL     1     -45.751  62.445 -51.348  1.00  0.00    -0.067 N 
HETATM   13  H   UNL     1     -45.361  63.341 -51.019  1.00  0.00     0.277 HD
HETATM   14  H   UNL     1     -44.930  61.973 -51.763  1.00  0.00     0.277 HD
BRANCH  12  15
HETATM   15  C   UNL     1     -46.816  62.651 -52.364  1.00  0.00     0.235 C 
BRANCH  15  16
HETATM   16  C   UNL     1     -46.560  61.714 -53.539  1.00  0.00     0.053 C 
BRANCH  16  17
HETATM   17  C   UNL     1     -45.208  61.986 -54.180  1.00  0.00     0.165 C 
BRANCH  17  18
HETATM   18  O   UNL     1     -45.411  62.273 -55.553  1.00  0.00    -0.401 OA
HETATM   19  H   UNL     1     -46.235  61.823 -55.825  1.00  0.00     0.209 HD
ENDBRANCH  17  18
ENDBRANCH  16  17
ENDBRANCH  15  16
ENDBRANCH  12  15
ENDBRANCH  11  12
ENDBRANCH   8  11
ENDBRANCH   4   7
BRANCH   1  20
HETATM   20  C   UNL     1     -41.906  55.222 -52.490  1.00  0.00     0.109 A 
HETATM   21  N   UNL     1     -41.097  54.559 -51.688  1.00  0.00    -0.240 NA
HETATM   22  C   UNL     1     -40.671  53.387 -52.291  1.00  0.00     0.075 A 
HETATM   23  C   UNL     1     -41.200  53.141 -53.557  1.00  0.00     0.036 A 
HETATM   24  C   UNL     1     -39.767  52.456 -51.743  1.00  0.00     0.033 A 
HETATM   25  C   UNL     1     -40.858  51.998 -54.300  1.00  0.00     0.028 A 
HETATM   26  S   UNL     1     -42.259  54.429 -53.976  1.00  0.00    -0.067 SA
HETATM   27  C   UNL     1     -39.949  51.084 -53.745  1.00  0.00    -0.061 A 
HETATM   28  C   UNL     1     -39.537  49.860 -54.513  1.00  0.00     0.048 C 
HETATM   29  C   UNL     1     -39.411  51.317 -52.477  1.00  0.00     0.009 A 
ENDBRANCH   1  20
TORSDOF 8
ENDMDL
MODEL 9
REMARK VINA RESULT:      -6.2     17.806     20.927
REMARK  8 active torsions:
REMARK  status: ('A' for Active; 'I' for Inactive)
REMARK    1  A    between atoms: C_7  and  C_8 
REMARK    2  A    between atoms: C_11  and  N_12 
REMARK       I    between atoms: N_12  and  C_13 
REMARK    3  A    between atoms: C_13  and  C_14 
REMARK    4  A    between atoms: C_14  and  N_15 
REMARK    5  A    between atoms: N_15  and  C_18 
REMARK    6  A    between atoms: C_18  and  C_19 
REMARK    7  A    between atoms: C_19  and  C_20 
REMARK    8  A    between atoms: C_20  and  O_21 
ROOT
HETATM    1  C   UNL     1     -32.715  39.816 -49.563  1.00  0.00    -0.000 A 
HETATM    2  C   UNL     1     -34.087  39.584 -49.724  1.00  0.00     0.016 A 
HETATM    3  C   UNL     1     -34.742  39.899 -50.923  1.00  0.00     0.030 A 
HETATM    4  C   UNL     1     -34.041  40.455 -51.993  1.00  0.00     0.034 A 
HETATM    5  C   UNL     1     -32.676  40.714 -51.834  1.00  0.00     0.030 A 
HETATM    6  C   UNL     1     -32.022  40.392 -50.638  1.00  0.00     0.016 A 
ENDROOT
BRANCH   4   7
HETATM    7  N   UNL     1     -34.616  40.748 -53.252  1.00  0.00    -0.326 N 
HETATM    8  C   UNL     1     -35.504  41.763 -53.530  1.00  0.00     0.247 C 
HETATM    9  O   UNL     1     -35.918  42.633 -52.763  1.00  0.00    -0.271 OA
HETATM   10  H   UNL     1     -34.361  40.101 -53.991  1.00  0.00     0.169 HD
BRANCH   8  11
HETATM   11  C   UNL     1     -36.056  41.762 -54.957  1.00  0.00     0.334 C 
BRANCH  11  12
HETATM   12  N   UNL     1     -35.027  42.369 -55.883  1.00  0.00    -0.067 N 
HETATM   13  H   UNL     1     -35.324  43.333 -56.098  1.00  0.00     0.277 HD
HETATM   14  H   UNL     1     -34.172  42.509 -55.319  1.00  0.00     0.277 HD
BRANCH  12  15
HETATM   15  C   UNL     1     -34.728  41.601 -57.120  1.00  0.00     0.235 C 
BRANCH  15  16
HETATM   16  C   UNL     1     -34.167  40.239 -56.728  1.00  0.00     0.053 C 
BRANCH  16  17
HETATM   17  C   UNL     1     -32.671  40.313 -56.456  1.00  0.00     0.165 C 
BRANCH  17  18
HETATM   18  O   UNL     1     -32.474  40.926 -55.194  1.00  0.00    -0.401 OA
HETATM   19  H   UNL     1     -31.511  40.938 -55.024  1.00  0.00     0.209 HD
ENDBRANCH  17  18
ENDBRANCH  16  17
ENDBRANCH  15  16
ENDBRANCH  12  15
ENDBRANCH  11  12
ENDBRANCH   8  11
ENDBRANCH   4   7
BRANCH   1  20
HETATM   20  C   UNL     1     -31.970  39.433 -48.348  1.00  0.00     0.109 A 
HETATM   21  N   UNL     1     -31.091  40.218 -47.757  1.00  0.00    -0.240 NA
HETATM   22  C   UNL     1     -30.509  39.568 -46.681  1.00  0.00     0.075 A 
HETATM   23  C   UNL     1     -30.987  38.283 -46.431  1.00  0.00     0.036 A 
HETATM   24  C   UNL     1     -29.498  40.087 -45.850  1.00  0.00     0.033 A 
HETATM   25  C   UNL     1     -30.490  37.493 -45.380  1.00  0.00     0.028 A 
HETATM   26  S   UNL     1     -32.201  37.906 -47.589  1.00  0.00    -0.067 SA
HETATM   27  C   UNL     1     -29.476  38.020 -44.565  1.00  0.00    -0.061 A 
HETATM   28  C   UNL     1     -28.900  37.204 -43.444  1.00  0.00     0.048 C 
HETATM   29  C   UNL     1     -28.988  39.307 -44.804  1.00  0.00     0.009 A 
ENDBRANCH   1  20
TORSDOF 8
ENDMDL
MODEL 10
REMARK VINA RESULT:      -6.1     18.294     19.979
REMARK  8 active torsions:
REMARK  status: ('A' for Active; 'I' for Inactive)
REMARK    1  A    between atoms: C_7  and  C_8 
REMARK    2  A    between atoms: C_11  and  N_12 
REMARK       I    between atoms: N_12  and  C_13 
REMARK    3  A    between atoms: C_13  and  C_14 
REMARK    4  A    between atoms: C_14  and  N_15 
REMARK    5  A    between atoms: N_15  and  C_18 
REMARK    6  A    between atoms: C_18  and  C_19 
REMARK    7  A    between atoms: C_19  and  C_20 
REMARK    8  A    between atoms: C_20  and  O_21 
ROOT
HETATM    1  C   UNL     1     -35.253  40.572 -53.093  1.00  0.00    -0.000 A 
HETATM    2  C   UNL     1     -34.919  41.590 -52.189  1.00  0.00     0.016 A 
HETATM    3  C   UNL     1     -34.337  41.297 -50.947  1.00  0.00     0.030 A 
HETATM    4  C   UNL     1     -34.072  39.979 -50.577  1.00  0.00     0.034 A 
HETATM    5  C   UNL     1     -34.424  38.953 -51.461  1.00  0.00     0.030 A 
HETATM    6  C   UNL     1     -35.000  39.248 -52.704  1.00  0.00     0.016 A 
ENDROOT
BRANCH   4   7
HETATM    7  N   UNL     1     -33.437  39.606 -49.369  1.00  0.00    -0.326 N 
HETATM    8  C   UNL     1     -32.080  39.539 -49.145  1.00  0.00     0.247 C 
HETATM    9  O   UNL     1     -31.172  39.839 -49.922  1.00  0.00    -0.271 OA
HETATM   10  H   UNL     1     -34.072  39.327 -48.629  1.00  0.00     0.169 HD
BRANCH   8  11
HETATM   11  C   UNL     1     -31.680  38.983 -47.776  1.00  0.00     0.334 C 
BRANCH  11  12
HETATM   12  N   UNL     1     -32.846  38.217 -47.197  1.00  0.00    -0.067 N 
HETATM   13  H   UNL     1     -33.561  38.901 -46.905  1.00  0.00     0.277 HD
HETATM   14  H   UNL     1     -33.300  37.731 -47.989  1.00  0.00     0.277 HD
BRANCH  12  15
HETATM   15  C   UNL     1     -32.522  37.263 -46.103  1.00  0.00     0.235 C 
BRANCH  15  16
HETATM   16  C   UNL     1     -31.446  37.879 -45.219  1.00  0.00     0.053 C 
BRANCH  16  17
HETATM   17  C   UNL     1     -32.056  38.638 -44.049  1.00  0.00     0.165 C 
BRANCH  17  18
HETATM   18  O   UNL     1     -33.468  38.547 -44.143  1.00  0.00    -0.401 OA
HETATM   19  H   UNL     1     -33.734  37.708 -43.717  1.00  0.00     0.209 HD
ENDBRANCH  17  18
ENDBRANCH  16  17
ENDBRANCH  15  16
ENDBRANCH  12  15
ENDBRANCH  11  12
ENDBRANCH   8  11
ENDBRANCH   4   7
BRANCH   1  20
HETATM   20  C   UNL     1     -35.798  40.835 -54.438  1.00  0.00     0.109 A 
HETATM   21  N   UNL     1     -36.786  40.143 -54.970  1.00  0.00    -0.240 NA
HETATM   22  C   UNL     1     -37.039  40.576 -56.261  1.00  0.00     0.075 A 
HETATM   23  C   UNL     1     -36.252  41.641 -56.698  1.00  0.00     0.036 A 
HETATM   24  C   UNL     1     -37.995  40.035 -57.143  1.00  0.00     0.033 A 
HETATM   25  C   UNL     1     -36.385  42.187 -57.987  1.00  0.00     0.028 A 
HETATM   26  S   UNL     1     -35.179  42.095 -55.434  1.00  0.00    -0.067 SA
HETATM   27  C   UNL     1     -37.335  41.631 -58.857  1.00  0.00    -0.061 A 
HETATM   28  C   UNL     1     -37.495  42.167 -60.252  1.00  0.00     0.048 C 
HETATM   29  C   UNL     1     -38.130  40.563 -58.433  1.00  0.00     0.009 A 
ENDBRANCH   1  20
TORSDOF 8
ENDMDL
