MODEL 1
REMARK VINA RESULT:      -7.3      0.000      0.000
REMARK  7 active torsions:
REMARK  status: ('A' for Active; 'I' for Inactive)
REMARK    1  A    between atoms: C_2  and  C_3 
REMARK    2  A    between atoms: C_3  and  N_4 
REMARK    3  A    between atoms: C_3  and  C_15 
REMARK       I    between atoms: N_4  and  C_5 
REMARK    4  A    between atoms: C_5  and  C_6 
REMARK    5  A    between atoms: C_9  and  O_10 
REMARK    6  A    between atoms: C_15  and  N_16 
REMARK    7  A    between atoms: C_18  and  C_19 
ROOT
HETATM    1  C   UNL     1     -41.887  57.247 -54.038  1.00  0.00     0.107 C 
ENDROOT
BRANCH   1   2
HETATM    2  C   UNL     1     -41.493  58.632 -53.454  1.00  0.00     0.002 C 
HETATM    3  C   UNL     1     -41.785  59.799 -54.403  1.00  0.00     0.011 C 
HETATM    4  C   UNL     1     -40.024  58.681 -53.022  1.00  0.00     0.011 C 
ENDBRANCH   1   2
BRANCH   1   5
HETATM    5  N   UNL     1     -42.682  57.372 -55.264  1.00  0.00    -0.354 N 
HETATM    6  C   UNL     1     -42.724  56.399 -56.238  1.00  0.00     0.222 C 
HETATM    7  O   UNL     1     -42.028  55.391 -56.207  1.00  0.00    -0.273 OA
HETATM    8  H   UNL     1     -43.427  58.067 -55.263  1.00  0.00     0.162 HD
BRANCH   6   9
HETATM    9  C   UNL     1     -43.746  56.686 -57.343  1.00  0.00     0.078 C 
HETATM   10  C   UNL     1     -43.903  58.190 -57.607  1.00  0.00     0.016 C 
HETATM   11  C   UNL     1     -42.740  58.772 -58.415  1.00  0.00     0.033 C 
HETATM   12  C   UNL     1     -42.518  58.017 -59.729  1.00  0.00     0.120 C 
HETATM   13  C   UNL     1     -42.288  56.531 -59.444  1.00  0.00     0.033 C 
HETATM   14  C   UNL     1     -43.433  55.916 -58.635  1.00  0.00     0.016 C 
BRANCH  12  15
HETATM   15  O   UNL     1     -43.678  58.227 -60.543  1.00  0.00    -0.391 OA
HETATM   16  C   UNL     1     -43.837  59.570 -60.977  1.00  0.00     0.202 C 
ENDBRANCH  12  15
ENDBRANCH   6   9
ENDBRANCH   1   5
BRANCH   1  17
HETATM   17  C   UNL     1     -42.633  56.391 -52.983  1.00  0.00     0.180 C 
BRANCH  17  18
HETATM   18  N   UNL     1     -41.729  55.542 -52.206  1.00  0.00    -0.232 N 
HETATM   19  N   UNL     1     -41.383  54.341 -52.785  1.00  0.00    -0.168 NA
HETATM   20  C   UNL     1     -40.626  53.517 -52.119  1.00  0.00     0.094 A 
HETATM   21  C   UNL     1     -40.124  53.823 -50.756  1.00  0.00     0.040 A 
HETATM   22  C   UNL     1     -40.482  54.984 -50.204  1.00  0.00     0.078 A 
HETATM   23  C   UNL     1     -41.352  55.928 -50.929  1.00  0.00     0.263 A 
HETATM   24  O   UNL     1     -41.701  56.970 -50.378  1.00  0.00    -0.267 OA
BRANCH  20  25
HETATM   25  C   UNL     1     -40.285  52.255 -52.775  1.00  0.00     0.035 A 
HETATM   26  S   UNL     1     -39.528  50.951 -51.957  1.00  0.00    -0.100 SA
HETATM   27  C   UNL     1     -39.501  49.975 -53.356  1.00  0.00     0.050 A 
HETATM   28  C   UNL     1     -40.054  50.617 -54.440  1.00  0.00     0.008 A 
HETATM   29  C   UNL     1     -40.503  51.927 -54.106  1.00  0.00     0.022 A 
ENDBRANCH  20  25
ENDBRANCH  17  18
ENDBRANCH   1  17
TORSDOF 7
ENDMDL
MODEL 2
REMARK VINA RESULT:      -7.2      3.326      7.723
REMARK  7 active torsions:
REMARK  status: ('A' for Active; 'I' for Inactive)
REMARK    1  A    between atoms: C_2  and  C_3 
REMARK    2  A    between atoms: C_3  and  N_4 
REMARK    3  A    between atoms: C_3  and  C_15 
REMARK       I    between atoms: N_4  and  C_5 
REMARK    4  A    between atoms: C_5  and  C_6 
REMARK    5  A    between atoms: C_9  and  O_10 
REMARK    6  A    between atoms: C_15  and  N_16 
REMARK    7  A    between atoms: C_18  and  C_19 
ROOT
HETATM    1  C   UNL     1     -43.494  57.674 -55.258  1.00  0.00     0.107 C 
ENDROOT
BRANCH   1   2
HETATM    2  C   UNL     1     -44.673  57.869 -54.266  1.00  0.00     0.002 C 
HETATM    3  C   UNL     1     -45.188  59.311 -54.207  1.00  0.00     0.011 C 
HETATM    4  C   UNL     1     -44.325  57.392 -52.853  1.00  0.00     0.011 C 
ENDBRANCH   1   2
BRANCH   1   5
HETATM    5  N   UNL     1     -42.389  56.918 -54.658  1.00  0.00    -0.354 N 
HETATM    6  C   UNL     1     -41.799  55.833 -55.268  1.00  0.00     0.222 C 
HETATM    7  O   UNL     1     -42.208  55.351 -56.318  1.00  0.00    -0.273 OA
HETATM    8  H   UNL     1     -41.872  57.373 -53.907  1.00  0.00     0.162 HD
BRANCH   6   9
HETATM    9  C   UNL     1     -40.565  55.312 -54.524  1.00  0.00     0.078 C 
HETATM   10  C   UNL     1     -40.737  55.386 -53.001  1.00  0.00     0.016 C 
HETATM   11  C   UNL     1     -41.640  54.277 -52.453  1.00  0.00     0.033 C 
HETATM   12  C   UNL     1     -41.160  52.884 -52.872  1.00  0.00     0.120 C 
HETATM   13  C   UNL     1     -41.066  52.802 -54.398  1.00  0.00     0.033 C 
HETATM   14  C   UNL     1     -40.170  53.899 -54.980  1.00  0.00     0.016 C 
BRANCH  12  15
HETATM   15  O   UNL     1     -39.886  52.668 -52.250  1.00  0.00    -0.391 OA
HETATM   16  C   UNL     1     -39.497  51.303 -52.205  1.00  0.00     0.202 C 
ENDBRANCH  12  15
ENDBRANCH   6   9
ENDBRANCH   1   5
BRANCH   1  17
HETATM   17  C   UNL     1     -42.996  59.036 -55.804  1.00  0.00     0.180 C 
BRANCH  17  18
HETATM   18  N   UNL     1     -42.917  59.062 -57.265  1.00  0.00    -0.232 N 
HETATM   19  N   UNL     1     -43.724  58.165 -57.929  1.00  0.00    -0.168 NA
HETATM   20  C   UNL     1     -43.658  58.101 -59.228  1.00  0.00     0.094 A 
HETATM   21  C   UNL     1     -42.742  58.959 -60.021  1.00  0.00     0.040 A 
HETATM   22  C   UNL     1     -41.957  59.812 -59.361  1.00  0.00     0.078 A 
HETATM   23  C   UNL     1     -41.999  59.893 -57.889  1.00  0.00     0.263 A 
HETATM   24  O   UNL     1     -41.232  60.656 -57.305  1.00  0.00    -0.267 OA
BRANCH  20  25
HETATM   25  C   UNL     1     -44.534  57.132 -59.887  1.00  0.00     0.035 A 
HETATM   26  S   UNL     1     -46.209  57.408 -60.139  1.00  0.00    -0.100 SA
HETATM   27  C   UNL     1     -46.430  55.897 -60.901  1.00  0.00     0.050 A 
HETATM   28  C   UNL     1     -45.258  55.179 -60.968  1.00  0.00     0.008 A 
HETATM   29  C   UNL     1     -44.170  55.889 -60.385  1.00  0.00     0.022 A 
ENDBRANCH  20  25
ENDBRANCH  17  18
ENDBRANCH   1  17
TORSDOF 7
ENDMDL
MODEL 3
REMARK VINA RESULT:      -7.2      3.638      7.969
REMARK  7 active torsions:
REMARK  status: ('A' for Active; 'I' for Inactive)
REMARK    1  A    between atoms: C_2  and  C_3 
REMARK    2  A    between atoms: C_3  and  N_4 
REMARK    3  A    between atoms: C_3  and  C_15 
REMARK       I    between atoms: N_4  and  C_5 
REMARK    4  A    between atoms: C_5  and  C_6 
REMARK    5  A    between atoms: C_9  and  O_10 
REMARK    6  A    between atoms: C_15  and  N_16 
REMARK    7  A    between atoms: C_18  and  C_19 
ROOT
HETATM    1  C   UNL     1     -42.326  57.815 -54.707  1.00  0.00     0.107 C 
ENDROOT
BRANCH   1   2
HETATM    2  C   UNL     1     -43.446  57.906 -55.779  1.00  0.00     0.002 C 
HETATM    3  C   UNL     1     -44.859  57.934 -55.185  1.00  0.00     0.011 C 
HETATM    4  C   UNL     1     -43.350  56.780 -56.813  1.00  0.00     0.011 C 
ENDBRANCH   1   2
BRANCH   1   5
HETATM    5  N   UNL     1     -42.792  57.165 -53.477  1.00  0.00    -0.354 N 
HETATM    6  C   UNL     1     -42.600  55.827 -53.211  1.00  0.00     0.222 C 
HETATM    7  O   UNL     1     -42.106  55.049 -54.020  1.00  0.00    -0.273 OA
HETATM    8  H   UNL     1     -43.017  57.772 -52.690  1.00  0.00     0.162 HD
BRANCH   6   9
HETATM    9  C   UNL     1     -43.030  55.417 -51.800  1.00  0.00     0.078 C 
HETATM   10  C   UNL     1     -42.709  53.946 -51.503  1.00  0.00     0.016 C 
HETATM   11  C   UNL     1     -41.224  53.712 -51.210  1.00  0.00     0.033 C 
HETATM   12  C   UNL     1     -40.713  54.611 -50.080  1.00  0.00     0.120 C 
HETATM   13  C   UNL     1     -40.972  56.080 -50.424  1.00  0.00     0.033 C 
HETATM   14  C   UNL     1     -42.449  56.349 -50.725  1.00  0.00     0.016 C 
BRANCH  12  15
HETATM   15  O   UNL     1     -41.395  54.219 -48.882  1.00  0.00    -0.391 OA
HETATM   16  C   UNL     1     -40.526  53.787 -47.845  1.00  0.00     0.202 C 
ENDBRANCH  12  15
ENDBRANCH   6   9
ENDBRANCH   1   5
BRANCH   1  17
HETATM   17  C   UNL     1     -41.737  59.215 -54.399  1.00  0.00     0.180 C 
BRANCH  17  18
HETATM   18  N   UNL     1     -41.541  59.440 -52.966  1.00  0.00    -0.232 N 
HETATM   19  N   UNL     1     -42.622  59.947 -52.281  1.00  0.00    -0.168 NA
HETATM   20  C   UNL     1     -42.493  60.222 -51.015  1.00  0.00     0.094 A 
HETATM   21  C   UNL     1     -41.219  60.010 -50.282  1.00  0.00     0.040 A 
HETATM   22  C   UNL     1     -40.177  59.533 -50.964  1.00  0.00     0.078 A 
HETATM   23  C   UNL     1     -40.291  59.230 -52.402  1.00  0.00     0.263 A 
HETATM   24  O   UNL     1     -39.302  58.833 -53.015  1.00  0.00    -0.267 OA
BRANCH  20  25
HETATM   25  C   UNL     1     -43.670  60.758 -50.331  1.00  0.00     0.035 A 
HETATM   26  S   UNL     1     -45.221  60.032 -50.434  1.00  0.00    -0.100 SA
HETATM   27  C   UNL     1     -45.934  61.212 -49.427  1.00  0.00     0.050 A 
HETATM   28  C   UNL     1     -45.020  62.153 -49.013  1.00  0.00     0.008 A 
HETATM   29  C   UNL     1     -43.720  61.893 -49.534  1.00  0.00     0.022 A 
ENDBRANCH  20  25
ENDBRANCH  17  18
ENDBRANCH   1  17
TORSDOF 7
ENDMDL
MODEL 4
REMARK VINA RESULT:      -7.1      2.263      3.295
REMARK  7 active torsions:
REMARK  status: ('A' for Active; 'I' for Inactive)
REMARK    1  A    between atoms: C_2  and  C_3 
REMARK    2  A    between atoms: C_3  and  N_4 
REMARK    3  A    between atoms: C_3  and  C_15 
REMARK       I    between atoms: N_4  and  C_5 
REMARK    4  A    between atoms: C_5  and  C_6 
REMARK    5  A    between atoms: C_9  and  O_10 
REMARK    6  A    between atoms: C_15  and  N_16 
REMARK    7  A    between atoms: C_18  and  C_19 
ROOT
HETATM    1  C   UNL     1     -43.104  59.701 -55.106  1.00  0.00     0.107 C 
ENDROOT
BRANCH   1   2
HETATM    2  C   UNL     1     -44.310  59.356 -54.189  1.00  0.00     0.002 C 
HETATM    3  C   UNL     1     -44.976  58.020 -54.534  1.00  0.00     0.011 C 
HETATM    4  C   UNL     1     -45.366  60.466 -54.182  1.00  0.00     0.011 C 
ENDBRANCH   1   2
BRANCH   1   5
HETATM    5  N   UNL     1     -42.910  58.699 -56.160  1.00  0.00    -0.354 N 
HETATM    6  C   UNL     1     -42.393  58.999 -57.401  1.00  0.00     0.222 C 
HETATM    7  O   UNL     1     -42.140  60.144 -57.761  1.00  0.00    -0.273 OA
HETATM    8  H   UNL     1     -42.901  57.721 -55.872  1.00  0.00     0.162 HD
BRANCH   6   9
HETATM    9  C   UNL     1     -42.135  57.764 -58.270  1.00  0.00     0.078 C 
HETATM   10  C   UNL     1     -43.182  56.666 -58.035  1.00  0.00     0.016 C 
HETATM   11  C   UNL     1     -44.520  56.970 -58.715  1.00  0.00     0.033 C 
HETATM   12  C   UNL     1     -44.354  57.243 -60.213  1.00  0.00     0.120 C 
HETATM   13  C   UNL     1     -43.365  58.391 -60.428  1.00  0.00     0.033 C 
HETATM   14  C   UNL     1     -42.015  58.120 -59.759  1.00  0.00     0.016 C 
BRANCH  12  15
HETATM   15  O   UNL     1     -43.896  56.028 -60.820  1.00  0.00    -0.391 OA
HETATM   16  C   UNL     1     -44.926  55.073 -61.036  1.00  0.00     0.202 C 
ENDBRANCH  12  15
ENDBRANCH   6   9
ENDBRANCH   1   5
BRANCH   1  17
HETATM   17  C   UNL     1     -41.809  59.884 -54.276  1.00  0.00     0.180 C 
BRANCH  17  18
HETATM   18  N   UNL     1     -41.608  58.808 -53.304  1.00  0.00    -0.232 N 
HETATM   19  N   UNL     1     -41.397  57.552 -53.829  1.00  0.00    -0.168 NA
HETATM   20  C   UNL     1     -41.267  56.544 -53.015  1.00  0.00     0.094 A 
HETATM   21  C   UNL     1     -41.340  56.697 -51.540  1.00  0.00     0.040 A 
HETATM   22  C   UNL     1     -41.560  57.918 -51.050  1.00  0.00     0.078 A 
HETATM   23  C   UNL     1     -41.728  59.074 -51.948  1.00  0.00     0.263 A 
HETATM   24  O   UNL     1     -41.974  60.180 -51.470  1.00  0.00    -0.267 OA
BRANCH  20  25
HETATM   25  C   UNL     1     -41.045  55.230 -53.621  1.00  0.00     0.035 A 
HETATM   26  S   UNL     1     -41.705  53.782 -52.978  1.00  0.00    -0.100 SA
HETATM   27  C   UNL     1     -41.000  52.819 -54.198  1.00  0.00     0.050 A 
HETATM   28  C   UNL     1     -40.269  53.571 -55.087  1.00  0.00     0.008 A 
HETATM   29  C   UNL     1     -40.294  54.956 -54.754  1.00  0.00     0.022 A 
ENDBRANCH  20  25
ENDBRANCH  17  18
ENDBRANCH   1  17
TORSDOF 7
ENDMDL
MODEL 5
REMARK VINA RESULT:      -7.1      2.984      6.613
REMARK  7 active torsions:
REMARK  status: ('A' for Active; 'I' for Inactive)
REMARK    1  A    between atoms: C_2  and  C_3 
REMARK    2  A    between atoms: C_3  and  N_4 
REMARK    3  A    between atoms: C_3  and  C_15 
REMARK       I    between atoms: N_4  and  C_5 
REMARK    4  A    between atoms: C_5  and  C_6 
REMARK    5  A    between atoms: C_9  and  O_10 
REMARK    6  A    between atoms: C_15  and  N_16 
REMARK    7  A    between atoms: C_18  and  C_19 
ROOT
HETATM    1  C   UNL     1     -42.013  57.806 -52.363  1.00  0.00     0.107 C 
ENDROOT
BRANCH   1   2
HETATM    2  C   UNL     1     -41.468  58.097 -50.937  1.00  0.00     0.002 C 
HETATM    3  C   UNL     1     -40.307  59.097 -50.921  1.00  0.00     0.011 C 
HETATM    4  C   UNL     1     -41.051  56.818 -50.205  1.00  0.00     0.011 C 
ENDBRANCH   1   2
BRANCH   1   5
HETATM    5  N   UNL     1     -42.185  56.369 -52.603  1.00  0.00    -0.354 N 
HETATM    6  C   UNL     1     -43.226  55.847 -53.339  1.00  0.00     0.222 C 
HETATM    7  O   UNL     1     -44.146  56.529 -53.774  1.00  0.00    -0.273 OA
HETATM    8  H   UNL     1     -41.370  55.775 -52.455  1.00  0.00     0.162 HD
BRANCH   6   9
HETATM    9  C   UNL     1     -43.102  54.340 -53.586  1.00  0.00     0.078 C 
HETATM   10  C   UNL     1     -42.661  54.026 -55.022  1.00  0.00     0.016 C 
HETATM   11  C   UNL     1     -41.167  54.271 -55.249  1.00  0.00     0.033 C 
HETATM   12  C   UNL     1     -40.300  53.509 -54.243  1.00  0.00     0.120 C 
HETATM   13  C   UNL     1     -40.700  53.890 -52.816  1.00  0.00     0.033 C 
HETATM   14  C   UNL     1     -42.191  53.658 -52.554  1.00  0.00     0.016 C 
BRANCH  12  15
HETATM   15  O   UNL     1     -40.489  52.110 -54.491  1.00  0.00    -0.391 OA
HETATM   16  C   UNL     1     -39.606  51.274 -53.756  1.00  0.00     0.202 C 
ENDBRANCH  12  15
ENDBRANCH   6   9
ENDBRANCH   1   5
BRANCH   1  17
HETATM   17  C   UNL     1     -41.103  58.440 -53.445  1.00  0.00     0.180 C 
BRANCH  17  18
HETATM   18  N   UNL     1     -41.866  59.023 -54.549  1.00  0.00    -0.232 N 
HETATM   19  N   UNL     1     -42.024  58.227 -55.662  1.00  0.00    -0.168 NA
HETATM   20  C   UNL     1     -42.645  58.711 -56.699  1.00  0.00     0.094 A 
HETATM   21  C   UNL     1     -43.189  60.092 -56.727  1.00  0.00     0.040 A 
HETATM   22  C   UNL     1     -43.014  60.855 -55.647  1.00  0.00     0.078 A 
HETATM   23  C   UNL     1     -42.299  60.339 -54.466  1.00  0.00     0.263 A 
HETATM   24  O   UNL     1     -42.113  61.079 -53.502  1.00  0.00    -0.267 OA
BRANCH  20  25
HETATM   25  C   UNL     1     -42.788  57.827 -57.856  1.00  0.00     0.035 A 
HETATM   26  S   UNL     1     -42.862  58.405 -59.470  1.00  0.00    -0.100 SA
HETATM   27  C   UNL     1     -43.020  56.834 -60.116  1.00  0.00     0.050 A 
HETATM   28  C   UNL     1     -43.021  55.872 -59.133  1.00  0.00     0.008 A 
HETATM   29  C   UNL     1     -42.889  56.443 -57.835  1.00  0.00     0.022 A 
ENDBRANCH  20  25
ENDBRANCH  17  18
ENDBRANCH   1  17
TORSDOF 7
ENDMDL
MODEL 6
REMARK VINA RESULT:      -7.1     15.369     17.583
REMARK  7 active torsions:
REMARK  status: ('A' for Active; 'I' for Inactive)
REMARK    1  A    between atoms: C_2  and  C_3 
REMARK    2  A    between atoms: C_3  and  N_4 
REMARK    3  A    between atoms: C_3  and  C_15 
REMARK       I    between atoms: N_4  and  C_5 
REMARK    4  A    between atoms: C_5  and  C_6 
REMARK    5  A    between atoms: C_9  and  O_10 
REMARK    6  A    between atoms: C_15  and  N_16 
REMARK    7  A    between atoms: C_18  and  C_19 
ROOT
HETATM    1  C   UNL     1     -33.351  40.194 -53.076  1.00  0.00     0.107 C 
ENDROOT
BRANCH   1   2
HETATM    2  C   UNL     1     -31.987  39.758 -53.679  1.00  0.00     0.002 C 
HETATM    3  C   UNL     1     -31.906  39.938 -55.199  1.00  0.00     0.011 C 
HETATM    4  C   UNL     1     -31.631  38.313 -53.317  1.00  0.00     0.011 C 
ENDBRANCH   1   2
BRANCH   1   5
HETATM    5  N   UNL     1     -34.105  41.059 -53.990  1.00  0.00    -0.354 N 
HETATM    6  C   UNL     1     -35.470  40.972 -54.157  1.00  0.00     0.222 C 
HETATM    7  O   UNL     1     -36.155  40.104 -53.627  1.00  0.00    -0.273 OA
HETATM    8  H   UNL     1     -33.649  41.917 -54.297  1.00  0.00     0.162 HD
BRANCH   6   9
HETATM    9  C   UNL     1     -36.049  42.082 -55.039  1.00  0.00     0.078 C 
HETATM   10  C   UNL     1     -35.112  42.443 -56.200  1.00  0.00     0.016 C 
HETATM   11  C   UNL     1     -35.147  41.411 -57.330  1.00  0.00     0.033 C 
HETATM   12  C   UNL     1     -36.570  41.169 -57.844  1.00  0.00     0.120 C 
HETATM   13  C   UNL     1     -37.475  40.736 -56.688  1.00  0.00     0.033 C 
HETATM   14  C   UNL     1     -37.463  41.747 -55.538  1.00  0.00     0.016 C 
BRANCH  12  15
HETATM   15  O   UNL     1     -37.021  42.390 -58.442  1.00  0.00    -0.391 OA
HETATM   16  C   UNL     1     -37.286  42.283 -59.833  1.00  0.00     0.202 C 
ENDBRANCH  12  15
ENDBRANCH   6   9
ENDBRANCH   1   5
BRANCH   1  17
HETATM   17  C   UNL     1     -33.156  40.884 -51.702  1.00  0.00     0.180 C 
BRANCH  17  18
HETATM   18  N   UNL     1     -33.403  39.979 -50.579  1.00  0.00    -0.232 N 
HETATM   19  N   UNL     1     -34.720  39.648 -50.348  1.00  0.00    -0.168 NA
HETATM   20  C   UNL     1     -35.009  38.891 -49.329  1.00  0.00     0.094 A 
HETATM   21  C   UNL     1     -33.971  38.372 -48.403  1.00  0.00     0.040 A 
HETATM   22  C   UNL     1     -32.702  38.715 -48.633  1.00  0.00     0.078 A 
HETATM   23  C   UNL     1     -32.348  39.585 -49.769  1.00  0.00     0.263 A 
HETATM   24  O   UNL     1     -31.176  39.920 -49.930  1.00  0.00    -0.267 OA
BRANCH  20  25
HETATM   25  C   UNL     1     -36.421  38.568 -49.126  1.00  0.00     0.035 A 
HETATM   26  S   UNL     1     -37.582  38.616 -50.389  1.00  0.00    -0.100 SA
HETATM   27  C   UNL     1     -38.854  38.143 -49.355  1.00  0.00     0.050 A 
HETATM   28  C   UNL     1     -38.420  37.950 -48.064  1.00  0.00     0.008 A 
HETATM   29  C   UNL     1     -37.024  38.196 -47.933  1.00  0.00     0.022 A 
ENDBRANCH  20  25
ENDBRANCH  17  18
ENDBRANCH   1  17
TORSDOF 7
ENDMDL
MODEL 7
REMARK VINA RESULT:      -7.1      3.183      6.866
REMARK  7 active torsions:
REMARK  status: ('A' for Active; 'I' for Inactive)
REMARK    1  A    between atoms: C_2  and  C_3 
REMARK    2  A    between atoms: C_3  and  N_4 
REMARK    3  A    between atoms: C_3  and  C_15 
REMARK       I    between atoms: N_4  and  C_5 
REMARK    4  A    between atoms: C_5  and  C_6 
REMARK    5  A    between atoms: C_9  and  O_10 
REMARK    6  A    between atoms: C_15  and  N_16 
REMARK    7  A    between atoms: C_18  and  C_19 
ROOT
HETATM    1  C   UNL     1     -43.702  58.967 -54.399  1.00  0.00     0.107 C 
ENDROOT
BRANCH   1   2
HETATM    2  C   UNL     1     -42.668  59.648 -53.460  1.00  0.00     0.002 C 
HETATM    3  C   UNL     1     -42.706  61.179 -53.519  1.00  0.00     0.011 C 
HETATM    4  C   UNL     1     -41.239  59.162 -53.724  1.00  0.00     0.011 C 
ENDBRANCH   1   2
BRANCH   1   5
HETATM    5  N   UNL     1     -43.266  57.632 -54.821  1.00  0.00    -0.354 N 
HETATM    6  C   UNL     1     -43.551  56.486 -54.111  1.00  0.00     0.222 C 
HETATM    7  O   UNL     1     -44.110  56.496 -53.020  1.00  0.00    -0.273 OA
HETATM    8  H   UNL     1     -42.987  57.523 -55.795  1.00  0.00     0.162 HD
BRANCH   6   9
HETATM    9  C   UNL     1     -43.132  55.201 -54.833  1.00  0.00     0.078 C 
HETATM   10  C   UNL     1     -41.826  55.382 -55.619  1.00  0.00     0.016 C 
HETATM   11  C   UNL     1     -40.588  55.381 -54.718  1.00  0.00     0.033 C 
HETATM   12  C   UNL     1     -40.517  54.128 -53.840  1.00  0.00     0.120 C 
HETATM   13  C   UNL     1     -41.794  54.002 -53.006  1.00  0.00     0.033 C 
HETATM   14  C   UNL     1     -43.053  54.001 -53.877  1.00  0.00     0.016 C 
BRANCH  12  15
HETATM   15  O   UNL     1     -40.342  53.005 -54.714  1.00  0.00    -0.391 OA
HETATM   16  C   UNL     1     -40.042  51.793 -54.036  1.00  0.00     0.202 C 
ENDBRANCH  12  15
ENDBRANCH   6   9
ENDBRANCH   1   5
BRANCH   1  17
HETATM   17  C   UNL     1     -44.008  59.860 -55.628  1.00  0.00     0.180 C 
BRANCH  17  18
HETATM   18  N   UNL     1     -43.373  59.369 -56.852  1.00  0.00    -0.232 N 
HETATM   19  N   UNL     1     -43.998  58.311 -57.474  1.00  0.00    -0.168 NA
HETATM   20  C   UNL     1     -43.450  57.793 -58.536  1.00  0.00     0.094 A 
HETATM   21  C   UNL     1     -42.175  58.300 -59.101  1.00  0.00     0.040 A 
HETATM   22  C   UNL     1     -41.575  59.316 -58.477  1.00  0.00     0.078 A 
HETATM   23  C   UNL     1     -42.163  59.909 -57.263  1.00  0.00     0.263 A 
HETATM   24  O   UNL     1     -41.566  60.815 -56.684  1.00  0.00    -0.267 OA
BRANCH  20  25
HETATM   25  C   UNL     1     -44.151  56.671 -59.160  1.00  0.00     0.035 A 
HETATM   26  S   UNL     1     -45.701  56.823 -59.881  1.00  0.00    -0.100 SA
HETATM   27  C   UNL     1     -45.755  55.174 -60.315  1.00  0.00     0.050 A 
HETATM   28  C   UNL     1     -44.621  54.502 -59.924  1.00  0.00     0.008 A 
HETATM   29  C   UNL     1     -43.701  55.363 -59.259  1.00  0.00     0.022 A 
ENDBRANCH  20  25
ENDBRANCH  17  18
ENDBRANCH   1  17
TORSDOF 7
ENDMDL
MODEL 8
REMARK VINA RESULT:      -7.0      3.304      6.152
REMARK  7 active torsions:
REMARK  status: ('A' for Active; 'I' for Inactive)
REMARK    1  A    between atoms: C_2  and  C_3 
REMARK    2  A    between atoms: C_3  and  N_4 
REMARK    3  A    between atoms: C_3  and  C_15 
REMARK       I    between atoms: N_4  and  C_5 
REMARK    4  A    between atoms: C_5  and  C_6 
REMARK    5  A    between atoms: C_9  and  O_10 
REMARK    6  A    between atoms: C_15  and  N_16 
REMARK    7  A    between atoms: C_18  and  C_19 
ROOT
HETATM    1  C   UNL     1     -42.576  56.496 -51.871  1.00  0.00     0.107 C 
ENDROOT
BRANCH   1   2
HETATM    2  C   UNL     1     -42.439  55.879 -50.452  1.00  0.00     0.002 C 
HETATM    3  C   UNL     1     -40.997  55.523 -50.078  1.00  0.00     0.011 C 
HETATM    4  C   UNL     1     -43.333  54.648 -50.269  1.00  0.00     0.011 C 
ENDBRANCH   1   2
BRANCH   1   5
HETATM    5  N   UNL     1     -43.396  57.712 -51.866  1.00  0.00    -0.354 N 
HETATM    6  C   UNL     1     -42.867  58.979 -51.750  1.00  0.00     0.222 C 
HETATM    7  O   UNL     1     -41.677  59.191 -51.548  1.00  0.00    -0.273 OA
HETATM    8  H   UNL     1     -44.345  57.632 -52.230  1.00  0.00     0.162 HD
BRANCH   6   9
HETATM    9  C   UNL     1     -43.904  60.092 -51.932  1.00  0.00     0.078 C 
HETATM   10  C   UNL     1     -45.339  59.579 -51.749  1.00  0.00     0.016 C 
HETATM   11  C   UNL     1     -45.706  59.362 -50.278  1.00  0.00     0.033 C 
HETATM   12  C   UNL     1     -45.474  60.620 -49.436  1.00  0.00     0.120 C 
HETATM   13  C   UNL     1     -44.019  61.076 -49.569  1.00  0.00     0.033 C 
HETATM   14  C   UNL     1     -43.618  61.302 -51.030  1.00  0.00     0.016 C 
BRANCH  12  15
HETATM   15  O   UNL     1     -46.388  61.620 -49.903  1.00  0.00    -0.391 OA
HETATM   16  C   UNL     1     -46.512  62.734 -49.031  1.00  0.00     0.202 C 
ENDBRANCH  12  15
ENDBRANCH   6   9
ENDBRANCH   1   5
BRANCH   1  17
HETATM   17  C   UNL     1     -43.136  55.459 -52.877  1.00  0.00     0.180 C 
BRANCH  17  18
HETATM   18  N   UNL     1     -42.081  54.775 -53.625  1.00  0.00    -0.232 N 
HETATM   19  N   UNL     1     -41.615  53.601 -53.076  1.00  0.00    -0.168 NA
HETATM   20  C   UNL     1     -40.638  52.975 -53.667  1.00  0.00     0.094 A 
HETATM   21  C   UNL     1     -40.004  53.482 -54.910  1.00  0.00     0.040 A 
HETATM   22  C   UNL     1     -40.457  54.628 -55.419  1.00  0.00     0.078 A 
HETATM   23  C   UNL     1     -41.551  55.367 -54.762  1.00  0.00     0.263 A 
HETATM   24  O   UNL     1     -41.918  56.443 -55.230  1.00  0.00    -0.267 OA
BRANCH  20  25
HETATM   25  C   UNL     1     -40.178  51.732 -53.045  1.00  0.00     0.035 A 
HETATM   26  S   UNL     1     -39.990  50.266 -53.917  1.00  0.00    -0.100 SA
HETATM   27  C   UNL     1     -39.469  49.412 -52.535  1.00  0.00     0.050 A 
HETATM   28  C   UNL     1     -39.434  50.214 -51.418  1.00  0.00     0.008 A 
HETATM   29  C   UNL     1     -39.844  51.546 -51.712  1.00  0.00     0.022 A 
ENDBRANCH  20  25
ENDBRANCH  17  18
ENDBRANCH   1  17
TORSDOF 7
ENDMDL
MODEL 9
REMARK VINA RESULT:      -7.0      2.770      4.736
REMARK  7 active torsions:
REMARK  status: ('A' for Active; 'I' for Inactive)
REMARK    1  A    between atoms: C_2  and  C_3 
REMARK    2  A    between atoms: C_3  and  N_4 
REMARK    3  A    between atoms: C_3  and  C_15 
REMARK       I    between atoms: N_4  and  C_5 
REMARK    4  A    between atoms: C_5  and  C_6 
REMARK    5  A    between atoms: C_9  and  O_10 
REMARK    6  A    between atoms: C_15  and  N_16 
REMARK    7  A    between atoms: C_18  and  C_19 
ROOT
HETATM    1  C   UNL     1     -42.725  56.152 -53.795  1.00  0.00     0.107 C 
ENDROOT
BRANCH   1   2
HETATM    2  C   UNL     1     -42.576  55.604 -55.241  1.00  0.00     0.002 C 
HETATM    3  C   UNL     1     -43.192  56.517 -56.306  1.00  0.00     0.011 C 
HETATM    4  C   UNL     1     -43.149  54.191 -55.385  1.00  0.00     0.011 C 
ENDBRANCH   1   2
BRANCH   1   5
HETATM    5  N   UNL     1     -43.553  57.362 -53.748  1.00  0.00    -0.354 N 
HETATM    6  C   UNL     1     -44.291  57.729 -52.644  1.00  0.00     0.222 C 
HETATM    7  O   UNL     1     -44.391  57.028 -51.643  1.00  0.00    -0.273 OA
HETATM    8  H   UNL     1     -43.362  58.081 -54.444  1.00  0.00     0.162 HD
BRANCH   6   9
HETATM    9  C   UNL     1     -44.943  59.108 -52.776  1.00  0.00     0.078 C 
HETATM   10  C   UNL     1     -45.264  59.728 -51.409  1.00  0.00     0.016 C 
HETATM   11  C   UNL     1     -44.023  60.288 -50.708  1.00  0.00     0.033 C 
HETATM   12  C   UNL     1     -43.269  61.290 -51.588  1.00  0.00     0.120 C 
HETATM   13  C   UNL     1     -42.890  60.634 -52.917  1.00  0.00     0.033 C 
HETATM   14  C   UNL     1     -44.108  60.061 -53.646  1.00  0.00     0.016 C 
BRANCH  12  15
HETATM   15  O   UNL     1     -44.130  62.420 -51.780  1.00  0.00    -0.391 OA
HETATM   16  C   UNL     1     -43.434  63.636 -52.015  1.00  0.00     0.202 C 
ENDBRANCH  12  15
ENDBRANCH   6   9
ENDBRANCH   1   5
BRANCH   1  17
HETATM   17  C   UNL     1     -41.339  56.410 -53.153  1.00  0.00     0.180 C 
BRANCH  17  18
HETATM   18  N   UNL     1     -40.958  55.366 -52.200  1.00  0.00    -0.232 N 
HETATM   19  N   UNL     1     -40.660  54.135 -52.739  1.00  0.00    -0.168 NA
HETATM   20  C   UNL     1     -40.369  53.151 -51.938  1.00  0.00     0.094 A 
HETATM   21  C   UNL     1     -40.348  53.306 -50.462  1.00  0.00     0.040 A 
HETATM   22  C   UNL     1     -40.654  54.502 -49.955  1.00  0.00     0.078 A 
HETATM   23  C   UNL     1     -41.005  55.629 -50.838  1.00  0.00     0.263 A 
HETATM   24  O   UNL     1     -41.326  56.707 -50.342  1.00  0.00    -0.267 OA
BRANCH  20  25
HETATM   25  C   UNL     1     -40.060  51.862 -52.559  1.00  0.00     0.035 A 
HETATM   26  S   UNL     1     -39.550  50.491 -51.662  1.00  0.00    -0.100 SA
HETATM   27  C   UNL     1     -39.419  49.519 -53.058  1.00  0.00     0.050 A 
HETATM   28  C   UNL     1     -39.752  50.212 -54.199  1.00  0.00     0.008 A 
HETATM   29  C   UNL     1     -40.118  51.558 -53.911  1.00  0.00     0.022 A 
ENDBRANCH  20  25
ENDBRANCH  17  18
ENDBRANCH   1  17
TORSDOF 7
ENDMDL
MODEL 10
REMARK VINA RESULT:      -6.9      3.129      7.487
REMARK  7 active torsions:
REMARK  status: ('A' for Active; 'I' for Inactive)
REMARK    1  A    between atoms: C_2  and  C_3 
REMARK    2  A    between atoms: C_3  and  N_4 
REMARK    3  A    between atoms: C_3  and  C_15 
REMARK       I    between atoms: N_4  and  C_5 
REMARK    4  A    between atoms: C_5  and  C_6 
REMARK    5  A    between atoms: C_9  and  O_10 
REMARK    6  A    between atoms: C_15  and  N_16 
REMARK    7  A    between atoms: C_18  and  C_19 
ROOT
HETATM    1  C   UNL     1     -43.163  56.129 -58.009  1.00  0.00     0.107 C 
ENDROOT
BRANCH   1   2
HETATM    2  C   UNL     1     -43.460  55.508 -59.401  1.00  0.00     0.002 C 
HETATM    3  C   UNL     1     -44.103  56.492 -60.384  1.00  0.00     0.011 C 
HETATM    4  C   UNL     1     -44.328  54.249 -59.298  1.00  0.00     0.011 C 
ENDBRANCH   1   2
BRANCH   1   5
HETATM    5  N   UNL     1     -43.230  55.133 -56.935  1.00  0.00    -0.354 N 
HETATM    6  C   UNL     1     -42.356  55.110 -55.870  1.00  0.00     0.222 C 
HETATM    7  O   UNL     1     -41.392  55.863 -55.780  1.00  0.00    -0.273 OA
HETATM    8  H   UNL     1     -44.105  54.620 -56.833  1.00  0.00     0.162 HD
BRANCH   6   9
HETATM    9  C   UNL     1     -42.725  54.079 -54.799  1.00  0.00     0.078 C 
HETATM   10  C   UNL     1     -41.593  53.072 -54.554  1.00  0.00     0.016 C 
HETATM   11  C   UNL     1     -40.451  53.657 -53.718  1.00  0.00     0.033 C 
HETATM   12  C   UNL     1     -40.949  54.238 -52.391  1.00  0.00     0.120 C 
HETATM   13  C   UNL     1     -42.024  55.295 -52.655  1.00  0.00     0.033 C 
HETATM   14  C   UNL     1     -43.182  54.743 -53.491  1.00  0.00     0.016 C 
BRANCH  12  15
HETATM   15  O   UNL     1     -41.458  53.147 -51.613  1.00  0.00    -0.391 OA
HETATM   16  C   UNL     1     -40.539  52.654 -50.649  1.00  0.00     0.202 C 
ENDBRANCH  12  15
ENDBRANCH   6   9
ENDBRANCH   1   5
BRANCH   1  17
HETATM   17  C   UNL     1     -44.114  57.318 -57.716  1.00  0.00     0.180 C 
BRANCH  17  18
HETATM   18  N   UNL     1     -43.535  58.285 -56.783  1.00  0.00    -0.232 N 
HETATM   19  N   UNL     1     -44.022  58.247 -55.495  1.00  0.00    -0.168 NA
HETATM   20  C   UNL     1     -43.587  59.120 -54.632  1.00  0.00     0.094 A 
HETATM   21  C   UNL     1     -42.585  60.157 -54.986  1.00  0.00     0.040 A 
HETATM   22  C   UNL     1     -42.136  60.188 -56.242  1.00  0.00     0.078 A 
HETATM   23  C   UNL     1     -42.624  59.224 -57.243  1.00  0.00     0.263 A 
HETATM   24  O   UNL     1     -42.226  59.305 -58.404  1.00  0.00    -0.267 OA
BRANCH  20  25
HETATM   25  C   UNL     1     -44.134  59.039 -53.278  1.00  0.00     0.035 A 
HETATM   26  S   UNL     1     -44.253  60.398 -52.236  1.00  0.00    -0.100 SA
HETATM   27  C   UNL     1     -44.937  59.477 -50.973  1.00  0.00     0.050 A 
HETATM   28  C   UNL     1     -45.079  58.154 -51.321  1.00  0.00     0.008 A 
HETATM   29  C   UNL     1     -44.615  57.903 -52.644  1.00  0.00     0.022 A 
ENDBRANCH  20  25
ENDBRANCH  17  18
ENDBRANCH   1  17
TORSDOF 7
ENDMDL
