MODEL 1
REMARK VINA RESULT:      -9.2      0.000      0.000
REMARK  6 active torsions:
REMARK  status: ('A' for Active; 'I' for Inactive)
REMARK    1  A    between atoms: C_2  and  N_3 
REMARK    2  A    between atoms: C_11  and  C_12 
REMARK    3  A    between atoms: C_14  and  C_15 
REMARK    4  A    between atoms: C_15  and  O_16 
REMARK    5  A    between atoms: O_16  and  C_17 
REMARK    6  A    between atoms: C_25  and  O_26 
ROOT
HETATM    1  N   UNL     1     -47.720  57.922 -62.187  1.00  0.00    -0.067 N 
HETATM    2  H   UNL     1     -46.906  57.883 -62.814  1.00  0.00     0.280 HD
HETATM    3  C   UNL     1     -47.385  58.971 -61.124  1.00  0.00     0.281 C 
HETATM    4  C   UNL     1     -46.289  58.483 -60.240  1.00  0.00     0.018 A 
HETATM    5  C   UNL     1     -45.864  57.172 -60.147  1.00  0.00    -0.023 A 
HETATM    6  C   UNL     1     -44.756  57.048 -59.249  1.00  0.00     0.073 A 
HETATM    7  C   UNL     1     -44.427  58.252 -58.674  1.00  0.00     0.088 A 
HETATM    8  N   UNL     1     -43.416  58.409 -57.801  1.00  0.00    -0.358 N 
HETATM    9  C   UNL     1     -42.695  57.270 -57.282  1.00  0.00     0.219 C 
HETATM   10  N   UNL     1     -42.950  56.069 -58.041  1.00  0.00    -0.332 N 
HETATM   11  C   UNL     1     -43.979  55.872 -58.914  1.00  0.00     0.256 C 
HETATM   12  O   UNL     1     -44.214  54.768 -59.395  1.00  0.00    -0.267 OA
HETATM   13  S   UNL     1     -45.427  59.522 -59.205  1.00  0.00    -0.074 SA
HETATM   14  C   UNL     1     -46.497  56.082 -60.959  1.00  0.00     0.068 C 
HETATM   15  C   UNL     1     -47.843  56.530 -61.558  1.00  0.00     0.240 C 
HETATM   16  H   UNL     1     -43.317  59.269 -57.269  1.00  0.00     0.162 HD
HETATM   17  H   UNL     1     -42.440  55.238 -57.784  1.00  0.00     0.165 HD
ENDROOT
BRANCH   9  18
HETATM   18  C   UNL     1     -42.984  57.084 -55.805  1.00  0.00    -0.016 A 
HETATM   19  C   UNL     1     -42.057  56.416 -54.988  1.00  0.00     0.023 A 
HETATM   20  C   UNL     1     -42.300  56.209 -53.614  1.00  0.00    -0.000 A 
HETATM   21  C   UNL     1     -43.494  56.687 -53.046  1.00  0.00     0.076 A 
HETATM   22  C   UNL     1     -44.407  57.376 -53.848  1.00  0.00     0.038 A 
HETATM   23  C   UNL     1     -44.154  57.575 -55.210  1.00  0.00     0.014 A 
BRANCH  20  24
HETATM   24  C   UNL     1     -41.261  55.481 -52.787  1.00  0.00     0.217 C 
BRANCH  24  25
HETATM   25  O   UNL     1     -40.593  54.543 -53.633  1.00  0.00    -0.347 OA
BRANCH  25  26
HETATM   26  C   UNL     1     -40.274  53.329 -53.089  1.00  0.00     0.070 A 
HETATM   27  C   UNL     1     -40.129  52.296 -54.021  1.00  0.00     0.063 A 
HETATM   28  C   UNL     1     -39.801  51.007 -53.599  1.00  0.00     0.075 A 
HETATM   29 CL   UNL     1     -39.626  49.752 -54.764  1.00  0.00    -0.081 Cl
HETATM   30  C   UNL     1     -39.620  50.749 -52.243  1.00  0.00     0.138 A 
HETATM   31  F   UNL     1     -39.303  49.520 -51.812  1.00  0.00    -0.204 F 
HETATM   32  C   UNL     1     -39.767  51.768 -51.307  1.00  0.00     0.047 A 
HETATM   33  C   UNL     1     -40.098  53.059 -51.729  1.00  0.00     0.040 A 
ENDBRANCH  25  26
ENDBRANCH  24  25
ENDBRANCH  20  24
BRANCH  21  34
HETATM   34  O   UNL     1     -43.667  56.438 -51.711  1.00  0.00    -0.355 OA
HETATM   35  C   UNL     1     -44.568  57.271 -50.993  1.00  0.00     0.210 C 
ENDBRANCH  21  34
ENDBRANCH   9  18
BRANCH   1  36
HETATM   36  C   UNL     1     -48.930  58.274 -63.015  1.00  0.00     0.231 C 
HETATM   37  C   UNL     1     -49.585  59.543 -62.502  1.00  0.00     0.034 C 
ENDBRANCH   1  36
TORSDOF 6
ENDMDL
MODEL 2
REMARK VINA RESULT:      -9.0      6.998     10.533
REMARK  6 active torsions:
REMARK  status: ('A' for Active; 'I' for Inactive)
REMARK    1  A    between atoms: C_2  and  N_3 
REMARK    2  A    between atoms: C_11  and  C_12 
REMARK    3  A    between atoms: C_14  and  C_15 
REMARK    4  A    between atoms: C_15  and  O_16 
REMARK    5  A    between atoms: O_16  and  C_17 
REMARK    6  A    between atoms: C_25  and  O_26 
ROOT
HETATM    1  N   UNL     1     -40.399  52.284 -53.356  1.00  0.00    -0.067 N 
HETATM    2  H   UNL     1     -41.286  51.806 -53.561  1.00  0.00     0.280 HD
HETATM    3  C   UNL     1     -40.538  52.845 -51.939  1.00  0.00     0.281 C 
HETATM    4  C   UNL     1     -41.540  53.948 -51.913  1.00  0.00     0.018 A 
HETATM    5  C   UNL     1     -42.024  54.611 -53.025  1.00  0.00    -0.023 A 
HETATM    6  C   UNL     1     -43.016  55.578 -52.661  1.00  0.00     0.073 A 
HETATM    7  C   UNL     1     -43.202  55.632 -51.300  1.00  0.00     0.088 A 
HETATM    8  N   UNL     1     -44.085  56.451 -50.702  1.00  0.00    -0.358 N 
HETATM    9  C   UNL     1     -44.798  57.457 -51.454  1.00  0.00     0.219 C 
HETATM   10  N   UNL     1     -44.708  57.242 -52.878  1.00  0.00    -0.332 N 
HETATM   11  C   UNL     1     -43.809  56.438 -53.516  1.00  0.00     0.256 C 
HETATM   12  O   UNL     1     -43.699  56.435 -54.737  1.00  0.00    -0.267 OA
HETATM   13  S   UNL     1     -42.207  54.536 -50.462  1.00  0.00    -0.074 SA
HETATM   14  C   UNL     1     -41.559  54.267 -54.408  1.00  0.00     0.068 C 
HETATM   15  C   UNL     1     -40.277  53.416 -54.380  1.00  0.00     0.240 C 
HETATM   16  H   UNL     1     -44.069  56.587 -49.695  1.00  0.00     0.162 HD
HETATM   17  H   UNL     1     -45.227  57.863 -53.478  1.00  0.00     0.165 HD
ENDROOT
BRANCH   9  18
HETATM   18  C   UNL     1     -44.337  58.846 -51.057  1.00  0.00    -0.016 A 
HETATM   19  C   UNL     1     -45.259  59.770 -50.538  1.00  0.00     0.023 A 
HETATM   20  C   UNL     1     -44.870  61.075 -50.175  1.00  0.00    -0.000 A 
HETATM   21  C   UNL     1     -43.528  61.462 -50.328  1.00  0.00     0.076 A 
HETATM   22  C   UNL     1     -42.600  60.539 -50.818  1.00  0.00     0.038 A 
HETATM   23  C   UNL     1     -42.999  59.246 -51.174  1.00  0.00     0.014 A 
BRANCH  20  24
HETATM   24  C   UNL     1     -45.913  62.025 -49.622  1.00  0.00     0.217 C 
BRANCH  24  25
HETATM   25  O   UNL     1     -46.521  61.407 -48.485  1.00  0.00    -0.347 OA
BRANCH  25  26
HETATM   26  C   UNL     1     -45.971  61.675 -47.262  1.00  0.00     0.070 A 
HETATM   27  C   UNL     1     -46.375  62.889 -46.697  1.00  0.00     0.063 A 
HETATM   28  C   UNL     1     -45.890  63.282 -45.449  1.00  0.00     0.075 A 
HETATM   29 CL   UNL     1     -46.403  64.780 -44.773  1.00  0.00    -0.081 Cl
HETATM   30  C   UNL     1     -44.999  62.461 -44.764  1.00  0.00     0.138 A 
HETATM   31  F   UNL     1     -44.520  62.814 -43.563  1.00  0.00    -0.204 F 
HETATM   32  C   UNL     1     -44.587  61.253 -45.319  1.00  0.00     0.047 A 
HETATM   33  C   UNL     1     -45.070  60.860 -46.571  1.00  0.00     0.040 A 
ENDBRANCH  25  26
ENDBRANCH  24  25
ENDBRANCH  20  24
BRANCH  21  34
HETATM   34  O   UNL     1     -43.227  62.748 -49.968  1.00  0.00    -0.355 OA
HETATM   35  C   UNL     1     -43.059  63.706 -51.006  1.00  0.00     0.210 C 
ENDBRANCH  21  34
ENDBRANCH   9  18
BRANCH   1  36
HETATM   36  C   UNL     1     -39.284  51.278 -53.495  1.00  0.00     0.231 C 
HETATM   37  C   UNL     1     -39.782  50.009 -54.163  1.00  0.00     0.034 C 
ENDBRANCH   1  36
TORSDOF 6
ENDMDL
MODEL 3
REMARK VINA RESULT:      -9.0      4.825      7.540
REMARK  6 active torsions:
REMARK  status: ('A' for Active; 'I' for Inactive)
REMARK    1  A    between atoms: C_2  and  N_3 
REMARK    2  A    between atoms: C_11  and  C_12 
REMARK    3  A    between atoms: C_14  and  C_15 
REMARK    4  A    between atoms: C_15  and  O_16 
REMARK    5  A    between atoms: O_16  and  C_17 
REMARK    6  A    between atoms: C_25  and  O_26 
ROOT
HETATM    1  N   UNL     1     -44.973  61.720 -53.565  1.00  0.00    -0.067 N 
HETATM    2  H   UNL     1     -44.774  62.205 -52.681  1.00  0.00     0.280 HD
HETATM    3  C   UNL     1     -45.554  60.358 -53.178  1.00  0.00     0.281 C 
HETATM    4  C   UNL     1     -44.508  59.508 -52.544  1.00  0.00     0.018 A 
HETATM    5  C   UNL     1     -43.147  59.745 -52.597  1.00  0.00    -0.023 A 
HETATM    6  C   UNL     1     -42.421  58.772 -51.837  1.00  0.00     0.073 A 
HETATM    7  C   UNL     1     -43.254  57.827 -51.288  1.00  0.00     0.088 A 
HETATM    8  N   UNL     1     -42.822  56.810 -50.522  1.00  0.00    -0.358 N 
HETATM    9  C   UNL     1     -41.411  56.550 -50.352  1.00  0.00     0.219 C 
HETATM   10  N   UNL     1     -40.595  57.658 -50.788  1.00  0.00    -0.332 N 
HETATM   11  C   UNL     1     -40.997  58.690 -51.584  1.00  0.00     0.256 C 
HETATM   12  O   UNL     1     -40.199  59.504 -52.037  1.00  0.00    -0.267 OA
HETATM   13  S   UNL     1     -44.890  58.099 -51.669  1.00  0.00    -0.074 SA
HETATM   14  C   UNL     1     -42.585  60.925 -53.331  1.00  0.00     0.068 C 
HETATM   15  C   UNL     1     -43.625  61.554 -54.275  1.00  0.00     0.240 C 
HETATM   16  H   UNL     1     -43.440  56.040 -50.283  1.00  0.00     0.162 HD
HETATM   17  H   UNL     1     -39.599  57.587 -50.649  1.00  0.00     0.165 HD
ENDROOT
BRANCH   9  18
HETATM   18  C   UNL     1     -41.021  55.252 -51.032  1.00  0.00    -0.016 A 
HETATM   19  C   UNL     1     -41.246  55.087 -52.409  1.00  0.00     0.023 A 
HETATM   20  C   UNL     1     -40.913  53.887 -53.071  1.00  0.00    -0.000 A 
HETATM   21  C   UNL     1     -40.336  52.834 -52.340  1.00  0.00     0.076 A 
HETATM   22  C   UNL     1     -40.085  53.003 -50.977  1.00  0.00     0.038 A 
HETATM   23  C   UNL     1     -40.419  54.199 -50.331  1.00  0.00     0.014 A 
BRANCH  20  24
HETATM   24  C   UNL     1     -41.182  53.771 -54.557  1.00  0.00     0.217 C 
BRANCH  24  25
HETATM   25  O   UNL     1     -42.585  53.934 -54.772  1.00  0.00    -0.347 OA
BRANCH  25  26
HETATM   26  C   UNL     1     -42.992  55.079 -55.400  1.00  0.00     0.070 A 
HETATM   27  C   UNL     1     -42.789  55.084 -56.784  1.00  0.00     0.063 A 
HETATM   28  C   UNL     1     -43.162  56.192 -57.546  1.00  0.00     0.075 A 
HETATM   29 CL   UNL     1     -42.903  56.175 -59.248  1.00  0.00    -0.081 Cl
HETATM   30  C   UNL     1     -43.738  57.296 -56.925  1.00  0.00     0.138 A 
HETATM   31  F   UNL     1     -44.106  58.371 -57.636  1.00  0.00    -0.204 F 
HETATM   32  C   UNL     1     -43.940  57.303 -55.549  1.00  0.00     0.047 A 
HETATM   33  C   UNL     1     -43.564  56.195 -54.784  1.00  0.00     0.040 A 
ENDBRANCH  25  26
ENDBRANCH  24  25
ENDBRANCH  20  24
BRANCH  21  34
HETATM   34  O   UNL     1     -40.052  51.697 -53.046  1.00  0.00    -0.355 OA
HETATM   35  C   UNL     1     -39.459  50.611 -52.344  1.00  0.00     0.210 C 
ENDBRANCH  21  34
ENDBRANCH   9  18
BRANCH   1  36
HETATM   36  C   UNL     1     -45.927  62.574 -54.362  1.00  0.00     0.231 C 
HETATM   37  C   UNL     1     -46.470  61.808 -55.555  1.00  0.00     0.034 C 
ENDBRANCH   1  36
TORSDOF 6
ENDMDL
MODEL 4
REMARK VINA RESULT:      -8.7      4.295      8.973
REMARK  6 active torsions:
REMARK  status: ('A' for Active; 'I' for Inactive)
REMARK    1  A    between atoms: C_2  and  N_3 
REMARK    2  A    between atoms: C_11  and  C_12 
REMARK    3  A    between atoms: C_14  and  C_15 
REMARK    4  A    between atoms: C_15  and  O_16 
REMARK    5  A    between atoms: O_16  and  C_17 
REMARK    6  A    between atoms: C_25  and  O_26 
ROOT
HETATM    1  N   UNL     1     -40.130  51.825 -52.041  1.00  0.00    -0.067 N 
HETATM    2  H   UNL     1     -41.000  51.297 -51.894  1.00  0.00     0.280 HD
HETATM    3  C   UNL     1     -40.306  53.147 -51.291  1.00  0.00     0.281 C 
HETATM    4  C   UNL     1     -41.339  53.989 -51.958  1.00  0.00     0.018 A 
HETATM    5  C   UNL     1     -41.825  53.792 -53.236  1.00  0.00    -0.023 A 
HETATM    6  C   UNL     1     -42.850  54.741 -53.554  1.00  0.00     0.073 A 
HETATM    7  C   UNL     1     -43.057  55.631 -52.528  1.00  0.00     0.088 A 
HETATM    8  N   UNL     1     -43.972  56.616 -52.572  1.00  0.00    -0.358 N 
HETATM    9  C   UNL     1     -44.702  56.903 -53.785  1.00  0.00     0.219 C 
HETATM   10  N   UNL     1     -44.585  55.844 -54.758  1.00  0.00    -0.332 N 
HETATM   11  C   UNL     1     -43.654  54.847 -54.754  1.00  0.00     0.256 C 
HETATM   12  O   UNL     1     -43.526  54.081 -55.703  1.00  0.00    -0.267 OA
HETATM   13  S   UNL     1     -42.044  55.337 -51.194  1.00  0.00    -0.074 SA
HETATM   14  C   UNL     1     -41.330  52.670 -54.099  1.00  0.00     0.068 C 
HETATM   15  C   UNL     1     -40.025  52.067 -53.550  1.00  0.00     0.240 C 
HETATM   16  H   UNL     1     -43.975  57.355 -51.875  1.00  0.00     0.162 HD
HETATM   17  H   UNL     1     -45.113  55.934 -55.612  1.00  0.00     0.165 HD
ENDROOT
BRANCH   9  18
HETATM   18  C   UNL     1     -44.287  58.247 -54.352  1.00  0.00    -0.016 A 
HETATM   19  C   UNL     1     -43.541  58.306 -55.541  1.00  0.00     0.023 A 
HETATM   20  C   UNL     1     -43.122  59.537 -56.088  1.00  0.00    -0.000 A 
HETATM   21  C   UNL     1     -43.464  60.733 -55.434  1.00  0.00     0.076 A 
HETATM   22  C   UNL     1     -44.229  60.682 -54.266  1.00  0.00     0.038 A 
HETATM   23  C   UNL     1     -44.640  59.454 -53.734  1.00  0.00     0.014 A 
BRANCH  20  24
HETATM   24  C   UNL     1     -42.319  59.534 -57.372  1.00  0.00     0.217 C 
BRANCH  24  25
HETATM   25  O   UNL     1     -43.229  59.412 -58.468  1.00  0.00    -0.347 OA
BRANCH  25  26
HETATM   26  C   UNL     1     -43.438  58.156 -58.969  1.00  0.00     0.070 A 
HETATM   27  C   UNL     1     -44.774  57.865 -59.267  1.00  0.00     0.063 A 
HETATM   28  C   UNL     1     -45.124  56.619 -59.787  1.00  0.00     0.075 A 
HETATM   29 CL   UNL     1     -46.774  56.285 -60.148  1.00  0.00    -0.081 Cl
HETATM   30  C   UNL     1     -44.139  55.661 -60.009  1.00  0.00     0.138 A 
HETATM   31  F   UNL     1     -44.450  54.457 -60.510  1.00  0.00    -0.204 F 
HETATM   32  C   UNL     1     -42.809  55.938 -59.712  1.00  0.00     0.047 A 
HETATM   33  C   UNL     1     -42.457  57.186 -59.187  1.00  0.00     0.040 A 
ENDBRANCH  25  26
ENDBRANCH  24  25
ENDBRANCH  20  24
BRANCH  21  34
HETATM   34  O   UNL     1     -43.012  61.887 -56.015  1.00  0.00    -0.355 OA
HETATM   35  C   UNL     1     -43.979  62.778 -56.558  1.00  0.00     0.210 C 
ENDBRANCH  21  34
ENDBRANCH   9  18
BRANCH   1  36
HETATM   36  C   UNL     1     -38.985  50.991 -51.524  1.00  0.00     0.231 C 
HETATM   37  C   UNL     1     -39.497  49.738 -50.838  1.00  0.00     0.034 C 
ENDBRANCH   1  36
TORSDOF 6
ENDMDL
MODEL 5
REMARK VINA RESULT:      -8.6      4.821      8.766
REMARK  6 active torsions:
REMARK  status: ('A' for Active; 'I' for Inactive)
REMARK    1  A    between atoms: C_2  and  N_3 
REMARK    2  A    between atoms: C_11  and  C_12 
REMARK    3  A    between atoms: C_14  and  C_15 
REMARK    4  A    between atoms: C_15  and  O_16 
REMARK    5  A    between atoms: O_16  and  C_17 
REMARK    6  A    between atoms: C_25  and  O_26 
ROOT
HETATM    1  N   UNL     1     -40.242  52.091 -52.983  1.00  0.00    -0.067 N 
HETATM    2  H   UNL     1     -41.090  51.591 -52.686  1.00  0.00     0.280 HD
HETATM    3  C   UNL     1     -39.986  53.159 -51.917  1.00  0.00     0.281 C 
HETATM    4  C   UNL     1     -41.043  54.208 -51.967  1.00  0.00     0.018 A 
HETATM    5  C   UNL     1     -41.924  54.402 -53.013  1.00  0.00    -0.023 A 
HETATM    6  C   UNL     1     -42.850  55.456 -52.723  1.00  0.00     0.073 A 
HETATM    7  C   UNL     1     -42.599  56.034 -51.502  1.00  0.00     0.088 A 
HETATM    8  N   UNL     1     -43.331  57.040 -50.992  1.00  0.00    -0.358 N 
HETATM    9  C   UNL     1     -44.352  57.694 -51.776  1.00  0.00     0.219 C 
HETATM   10  N   UNL     1     -44.696  56.944 -52.960  1.00  0.00    -0.332 N 
HETATM   11  C   UNL     1     -43.963  55.936 -53.516  1.00  0.00     0.256 C 
HETATM   12  O   UNL     1     -44.247  55.460 -54.610  1.00  0.00    -0.267 OA
HETATM   13  S   UNL     1     -41.275  55.325 -50.704  1.00  0.00    -0.074 SA
HETATM   14  C   UNL     1     -41.888  53.540 -54.240  1.00  0.00     0.068 C 
HETATM   15  C   UNL     1     -40.578  52.738 -54.331  1.00  0.00     0.240 C 
HETATM   16  H   UNL     1     -43.011  57.554 -50.175  1.00  0.00     0.162 HD
HETATM   17  H   UNL     1     -45.445  57.297 -53.536  1.00  0.00     0.165 HD
ENDROOT
BRANCH   9  18
HETATM   18  C   UNL     1     -43.945  59.118 -52.101  1.00  0.00    -0.016 A 
HETATM   19  C   UNL     1     -43.551  59.454 -53.407  1.00  0.00     0.023 A 
HETATM   20  C   UNL     1     -43.149  60.763 -53.742  1.00  0.00    -0.000 A 
HETATM   21  C   UNL     1     -43.149  61.759 -52.750  1.00  0.00     0.076 A 
HETATM   22  C   UNL     1     -43.567  61.438 -51.456  1.00  0.00     0.038 A 
HETATM   23  C   UNL     1     -43.964  60.134 -51.136  1.00  0.00     0.014 A 
BRANCH  20  24
HETATM   24  C   UNL     1     -42.734  61.061 -55.168  1.00  0.00     0.217 C 
BRANCH  24  25
HETATM   25  O   UNL     1     -41.796  60.064 -55.578  1.00  0.00    -0.347 OA
BRANCH  25  26
HETATM   26  C   UNL     1     -42.006  59.471 -56.793  1.00  0.00     0.070 A 
HETATM   27  C   UNL     1     -42.380  58.125 -56.725  1.00  0.00     0.063 A 
HETATM   28  C   UNL     1     -42.628  57.403 -57.893  1.00  0.00     0.075 A 
HETATM   29 CL   UNL     1     -43.089  55.748 -57.784  1.00  0.00    -0.081 Cl
HETATM   30  C   UNL     1     -42.501  58.026 -59.131  1.00  0.00     0.138 A 
HETATM   31  F   UNL     1     -42.735  57.354 -60.267  1.00  0.00    -0.204 F 
HETATM   32  C   UNL     1     -42.124  59.363 -59.210  1.00  0.00     0.047 A 
HETATM   33  C   UNL     1     -41.873  60.087 -58.040  1.00  0.00     0.040 A 
ENDBRANCH  25  26
ENDBRANCH  24  25
ENDBRANCH  20  24
BRANCH  21  34
HETATM   34  O   UNL     1     -42.735  63.002 -53.145  1.00  0.00    -0.355 OA
HETATM   35  C   UNL     1     -43.422  64.129 -52.615  1.00  0.00     0.210 C 
ENDBRANCH  21  34
ENDBRANCH   9  18
BRANCH   1  36
HETATM   36  C   UNL     1     -39.126  51.085 -53.105  1.00  0.00     0.231 C 
HETATM   37  C   UNL     1     -39.496  49.982 -54.079  1.00  0.00     0.034 C 
ENDBRANCH   1  36
TORSDOF 6
ENDMDL
MODEL 6
REMARK VINA RESULT:      -8.3      4.303      9.360
REMARK  6 active torsions:
REMARK  status: ('A' for Active; 'I' for Inactive)
REMARK    1  A    between atoms: C_2  and  N_3 
REMARK    2  A    between atoms: C_11  and  C_12 
REMARK    3  A    between atoms: C_14  and  C_15 
REMARK    4  A    between atoms: C_15  and  O_16 
REMARK    5  A    between atoms: O_16  and  C_17 
REMARK    6  A    between atoms: C_25  and  O_26 
ROOT
HETATM    1  N   UNL     1     -41.283  53.895 -50.159  1.00  0.00    -0.067 N 
HETATM    2  H   UNL     1     -42.264  53.692 -49.926  1.00  0.00     0.280 HD
HETATM    3  C   UNL     1     -41.157  55.420 -50.159  1.00  0.00     0.281 C 
HETATM    4  C   UNL     1     -41.914  56.004 -51.303  1.00  0.00     0.018 A 
HETATM    5  C   UNL     1     -42.374  55.298 -52.398  1.00  0.00    -0.023 A 
HETATM    6  C   UNL     1     -43.112  56.144 -53.287  1.00  0.00     0.073 A 
HETATM    7  C   UNL     1     -43.136  57.447 -52.851  1.00  0.00     0.088 A 
HETATM    8  N   UNL     1     -43.772  58.437 -53.502  1.00  0.00    -0.358 N 
HETATM    9  C   UNL     1     -44.350  58.222 -54.808  1.00  0.00     0.219 C 
HETATM   10  N   UNL     1     -44.458  56.820 -55.134  1.00  0.00    -0.332 N 
HETATM   11  C   UNL     1     -43.808  55.796 -54.509  1.00  0.00     0.256 C 
HETATM   12  O   UNL     1     -43.833  54.652 -54.951  1.00  0.00    -0.267 OA
HETATM   13  S   UNL     1     -42.292  57.661 -51.390  1.00  0.00    -0.074 SA
HETATM   14  C   UNL     1     -42.138  53.824 -52.537  1.00  0.00     0.068 C 
HETATM   15  C   UNL     1     -41.052  53.330 -51.564  1.00  0.00     0.240 C 
HETATM   16  H   UNL     1     -43.621  59.409 -53.245  1.00  0.00     0.162 HD
HETATM   17  H   UNL     1     -44.906  56.576 -56.003  1.00  0.00     0.165 HD
ENDROOT
BRANCH   9  18
HETATM   18  C   UNL     1     -43.585  58.996 -55.864  1.00  0.00    -0.016 A 
HETATM   19  C   UNL     1     -43.051  58.324 -56.976  1.00  0.00     0.023 A 
HETATM   20  C   UNL     1     -42.319  59.008 -57.969  1.00  0.00    -0.000 A 
HETATM   21  C   UNL     1     -42.124  60.395 -57.848  1.00  0.00     0.076 A 
HETATM   22  C   UNL     1     -42.676  61.073 -56.759  1.00  0.00     0.038 A 
HETATM   23  C   UNL     1     -43.402  60.383 -55.780  1.00  0.00     0.014 A 
BRANCH  20  24
HETATM   24  C   UNL     1     -41.768  58.227 -59.143  1.00  0.00     0.217 C 
BRANCH  24  25
HETATM   25  O   UNL     1     -42.618  58.454 -60.270  1.00  0.00    -0.347 OA
BRANCH  25  26
HETATM   26  C   UNL     1     -43.869  57.903 -60.228  1.00  0.00     0.070 A 
HETATM   27  C   UNL     1     -43.886  56.507 -60.139  1.00  0.00     0.063 A 
HETATM   28  C   UNL     1     -45.099  55.819 -60.086  1.00  0.00     0.075 A 
HETATM   29 CL   UNL     1     -45.094  54.102 -59.975  1.00  0.00    -0.081 Cl
HETATM   30  C   UNL     1     -46.297  56.526 -60.123  1.00  0.00     0.138 A 
HETATM   31  F   UNL     1     -47.475  55.889 -60.072  1.00  0.00    -0.204 F 
HETATM   32  C   UNL     1     -46.292  57.915 -60.217  1.00  0.00     0.047 A 
HETATM   33  C   UNL     1     -45.077  58.605 -60.273  1.00  0.00     0.040 A 
ENDBRANCH  25  26
ENDBRANCH  24  25
ENDBRANCH  20  24
BRANCH  21  34
HETATM   34  O   UNL     1     -41.393  60.989 -58.842  1.00  0.00    -0.355 OA
HETATM   35  C   UNL     1     -40.512  62.044 -58.476  1.00  0.00     0.210 C 
ENDBRANCH  21  34
ENDBRANCH   9  18
BRANCH   1  36
HETATM   36  C   UNL     1     -40.410  53.222 -49.131  1.00  0.00     0.231 C 
HETATM   37  C   UNL     1     -40.327  54.054 -47.864  1.00  0.00     0.034 C 
ENDBRANCH   1  36
TORSDOF 6
ENDMDL
MODEL 7
REMARK VINA RESULT:      -8.2      7.218     10.644
REMARK  6 active torsions:
REMARK  status: ('A' for Active; 'I' for Inactive)
REMARK    1  A    between atoms: C_2  and  N_3 
REMARK    2  A    between atoms: C_11  and  C_12 
REMARK    3  A    between atoms: C_14  and  C_15 
REMARK    4  A    between atoms: C_15  and  O_16 
REMARK    5  A    between atoms: O_16  and  C_17 
REMARK    6  A    between atoms: C_25  and  O_26 
ROOT
HETATM    1  N   UNL     1     -39.894  52.179 -52.554  1.00  0.00    -0.067 N 
HETATM    2  H   UNL     1     -38.978  52.559 -52.284  1.00  0.00     0.280 HD
HETATM    3  C   UNL     1     -40.407  53.076 -53.683  1.00  0.00     0.281 C 
HETATM    4  C   UNL     1     -40.735  54.433 -53.160  1.00  0.00     0.018 A 
HETATM    5  C   UNL     1     -40.893  54.756 -51.826  1.00  0.00    -0.023 A 
HETATM    6  C   UNL     1     -41.147  56.155 -51.658  1.00  0.00     0.073 A 
HETATM    7  C   UNL     1     -41.215  56.810 -52.864  1.00  0.00     0.088 A 
HETATM    8  N   UNL     1     -41.435  58.132 -52.981  1.00  0.00    -0.358 N 
HETATM    9  C   UNL     1     -41.775  58.937 -51.831  1.00  0.00     0.219 C 
HETATM   10  N   UNL     1     -41.514  58.253 -50.588  1.00  0.00    -0.332 N 
HETATM   11  C   UNL     1     -41.312  56.912 -50.434  1.00  0.00     0.256 C 
HETATM   12  O   UNL     1     -41.256  56.392 -49.325  1.00  0.00    -0.267 OA
HETATM   13  S   UNL     1     -40.972  55.769 -54.187  1.00  0.00    -0.074 SA
HETATM   14  C   UNL     1     -40.745  53.726 -50.746  1.00  0.00     0.068 C 
HETATM   15  C   UNL     1     -40.789  52.297 -51.316  1.00  0.00     0.240 C 
HETATM   16  H   UNL     1     -41.652  58.545 -53.884  1.00  0.00     0.162 HD
HETATM   17  H   UNL     1     -41.666  58.764 -49.732  1.00  0.00     0.165 HD
ENDROOT
BRANCH   9  18
HETATM   18  C   UNL     1     -43.208  59.423 -51.925  1.00  0.00    -0.016 A 
HETATM   19  C   UNL     1     -43.719  60.292 -50.947  1.00  0.00     0.023 A 
HETATM   20  C   UNL     1     -45.052  60.750 -50.992  1.00  0.00    -0.000 A 
HETATM   21  C   UNL     1     -45.888  60.335 -52.043  1.00  0.00     0.076 A 
HETATM   22  C   UNL     1     -45.377  59.494 -53.034  1.00  0.00     0.038 A 
HETATM   23  C   UNL     1     -44.052  59.046 -52.978  1.00  0.00     0.014 A 
BRANCH  20  24
HETATM   24  C   UNL     1     -45.544  61.685 -49.906  1.00  0.00     0.217 C 
BRANCH  24  25
HETATM   25  O   UNL     1     -45.943  60.895 -48.784  1.00  0.00    -0.347 OA
BRANCH  25  26
HETATM   26  C   UNL     1     -45.686  61.403 -47.540  1.00  0.00     0.070 A 
HETATM   27  C   UNL     1     -46.293  62.636 -47.280  1.00  0.00     0.063 A 
HETATM   28  C   UNL     1     -46.114  63.263 -46.047  1.00  0.00     0.075 A 
HETATM   29 CL   UNL     1     -46.872  64.780 -45.750  1.00  0.00    -0.081 Cl
HETATM   30  C   UNL     1     -45.326  62.659 -45.071  1.00  0.00     0.138 A 
HETATM   31  F   UNL     1     -45.140  63.241 -43.878  1.00  0.00    -0.204 F 
HETATM   32  C   UNL     1     -44.714  61.435 -45.321  1.00  0.00     0.047 A 
HETATM   33  C   UNL     1     -44.890  60.806 -46.558  1.00  0.00     0.040 A 
ENDBRANCH  25  26
ENDBRANCH  24  25
ENDBRANCH  20  24
BRANCH  21  34
HETATM   34  O   UNL     1     -47.172  60.809 -52.014  1.00  0.00    -0.355 OA
HETATM   35  C   UNL     1     -47.536  61.794 -52.974  1.00  0.00     0.210 C 
ENDBRANCH  21  34
ENDBRANCH   9  18
BRANCH   1  36
HETATM   36  C   UNL     1     -39.699  50.743 -52.972  1.00  0.00     0.231 C 
HETATM   37  C   UNL     1     -40.152  50.531 -54.405  1.00  0.00     0.034 C 
ENDBRANCH   1  36
TORSDOF 6
ENDMDL
MODEL 8
REMARK VINA RESULT:      -8.1     17.239     20.471
REMARK  6 active torsions:
REMARK  status: ('A' for Active; 'I' for Inactive)
REMARK    1  A    between atoms: C_2  and  N_3 
REMARK    2  A    between atoms: C_11  and  C_12 
REMARK    3  A    between atoms: C_14  and  C_15 
REMARK    4  A    between atoms: C_15  and  O_16 
REMARK    5  A    between atoms: O_16  and  C_17 
REMARK    6  A    between atoms: C_25  and  O_26 
ROOT
HETATM    1  N   UNL     1     -32.998  39.417 -51.135  1.00  0.00    -0.067 N 
HETATM    2  H   UNL     1     -32.078  38.958 -51.177  1.00  0.00     0.280 HD
HETATM    3  C   UNL     1     -33.989  38.437 -51.766  1.00  0.00     0.281 C 
HETATM    4  C   UNL     1     -33.732  38.309 -53.229  1.00  0.00     0.018 A 
HETATM    5  C   UNL     1     -32.964  39.176 -53.982  1.00  0.00    -0.023 A 
HETATM    6  C   UNL     1     -32.871  38.738 -55.343  1.00  0.00     0.073 A 
HETATM    7  C   UNL     1     -33.604  37.596 -55.563  1.00  0.00     0.088 A 
HETATM    8  N   UNL     1     -33.675  36.977 -56.755  1.00  0.00    -0.358 N 
HETATM    9  C   UNL     1     -33.101  37.570 -57.940  1.00  0.00     0.219 C 
HETATM   10  N   UNL     1     -32.202  38.654 -57.628  1.00  0.00    -0.332 N 
HETATM   11  C   UNL     1     -32.123  39.318 -56.439  1.00  0.00     0.256 C 
HETATM   12  O   UNL     1     -31.444  40.332 -56.310  1.00  0.00    -0.267 OA
HETATM   13  S   UNL     1     -34.391  37.046 -54.159  1.00  0.00    -0.074 SA
HETATM   14  C   UNL     1     -32.300  40.372 -53.369  1.00  0.00     0.068 C 
HETATM   15  C   UNL     1     -32.879  40.690 -51.978  1.00  0.00     0.240 C 
HETATM   16  H   UNL     1     -34.359  36.244 -56.920  1.00  0.00     0.162 HD
HETATM   17  H   UNL     1     -31.709  39.087 -58.394  1.00  0.00     0.165 HD
ENDROOT
BRANCH   9  18
HETATM   18  C   UNL     1     -34.190  37.991 -58.907  1.00  0.00    -0.016 A 
HETATM   19  C   UNL     1     -35.259  38.783 -58.457  1.00  0.00     0.023 A 
HETATM   20  C   UNL     1     -36.299  39.179 -59.323  1.00  0.00    -0.000 A 
HETATM   21  C   UNL     1     -36.263  38.779 -60.670  1.00  0.00     0.076 A 
HETATM   22  C   UNL     1     -35.188  38.015 -61.130  1.00  0.00     0.038 A 
HETATM   23  C   UNL     1     -34.162  37.629 -60.260  1.00  0.00     0.014 A 
BRANCH  20  24
HETATM   24  C   UNL     1     -37.425  40.032 -58.776  1.00  0.00     0.217 C 
BRANCH  24  25
HETATM   25  O   UNL     1     -36.913  41.344 -58.533  1.00  0.00    -0.347 OA
BRANCH  25  26
HETATM   26  C   UNL     1     -36.464  41.614 -57.269  1.00  0.00     0.070 A 
HETATM   27  C   UNL     1     -37.365  41.285 -56.250  1.00  0.00     0.063 A 
HETATM   28  C   UNL     1     -37.029  41.508 -54.914  1.00  0.00     0.075 A 
HETATM   29 CL   UNL     1     -38.154  41.093 -53.679  1.00  0.00    -0.081 Cl
HETATM   30  C   UNL     1     -35.793  42.061 -54.595  1.00  0.00     0.138 A 
HETATM   31  F   UNL     1     -35.447  42.282 -53.319  1.00  0.00    -0.204 F 
HETATM   32  C   UNL     1     -34.891  42.396 -55.600  1.00  0.00     0.047 A 
HETATM   33  C   UNL     1     -35.228  42.176 -56.940  1.00  0.00     0.040 A 
ENDBRANCH  25  26
ENDBRANCH  24  25
ENDBRANCH  20  24
BRANCH  21  34
HETATM   34  O   UNL     1     -37.312  39.189 -61.448  1.00  0.00    -0.355 OA
HETATM   35  C   UNL     1     -37.346  38.750 -62.800  1.00  0.00     0.210 C 
ENDBRANCH  21  34
ENDBRANCH   9  18
BRANCH   1  36
HETATM   36  C   UNL     1     -33.299  39.726 -49.690  1.00  0.00     0.231 C 
HETATM   37  C   UNL     1     -32.019  39.817 -48.879  1.00  0.00     0.034 C 
ENDBRANCH   1  36
TORSDOF 6
ENDMDL
MODEL 9
REMARK VINA RESULT:      -8.1      3.741      7.408
REMARK  6 active torsions:
REMARK  status: ('A' for Active; 'I' for Inactive)
REMARK    1  A    between atoms: C_2  and  N_3 
REMARK    2  A    between atoms: C_11  and  C_12 
REMARK    3  A    between atoms: C_14  and  C_15 
REMARK    4  A    between atoms: C_15  and  O_16 
REMARK    5  A    between atoms: O_16  and  C_17 
REMARK    6  A    between atoms: C_25  and  O_26 
ROOT
HETATM    1  N   UNL     1     -45.244  61.957 -49.434  1.00  0.00    -0.067 N 
HETATM    2  H   UNL     1     -44.499  62.666 -49.450  1.00  0.00     0.280 HD
HETATM    3  C   UNL     1     -44.540  60.602 -49.532  1.00  0.00     0.281 C 
HETATM    4  C   UNL     1     -43.928  60.431 -50.880  1.00  0.00     0.018 A 
HETATM    5  C   UNL     1     -44.224  61.195 -51.993  1.00  0.00    -0.023 A 
HETATM    6  C   UNL     1     -43.422  60.811 -53.115  1.00  0.00     0.073 A 
HETATM    7  C   UNL     1     -42.597  59.754 -52.814  1.00  0.00     0.088 A 
HETATM    8  N   UNL     1     -41.736  59.210 -53.693  1.00  0.00    -0.358 N 
HETATM    9  C   UNL     1     -41.735  59.607 -55.081  1.00  0.00     0.219 C 
HETATM   10  N   UNL     1     -42.476  60.826 -55.302  1.00  0.00    -0.332 N 
HETATM   11  C   UNL     1     -43.373  61.389 -54.442  1.00  0.00     0.256 C 
HETATM   12  O   UNL     1     -44.076  62.337 -54.775  1.00  0.00    -0.267 OA
HETATM   13  S   UNL     1     -42.771  59.227 -51.207  1.00  0.00    -0.074 SA
HETATM   14  C   UNL     1     -45.231  62.305 -51.937  1.00  0.00     0.068 C 
HETATM   15  C   UNL     1     -46.106  62.214 -50.674  1.00  0.00     0.240 C 
HETATM   16  H   UNL     1     -41.275  58.327 -53.490  1.00  0.00     0.162 HD
HETATM   17  H   UNL     1     -42.477  61.209 -56.234  1.00  0.00     0.165 HD
ENDROOT
BRANCH   9  18
HETATM   18  C   UNL     1     -42.225  58.474 -55.961  1.00  0.00    -0.016 A 
HETATM   19  C   UNL     1     -42.134  57.146 -55.511  1.00  0.00     0.023 A 
HETATM   20  C   UNL     1     -42.563  56.066 -56.309  1.00  0.00    -0.000 A 
HETATM   21  C   UNL     1     -43.101  56.321 -57.582  1.00  0.00     0.076 A 
HETATM   22  C   UNL     1     -43.220  57.641 -58.024  1.00  0.00     0.038 A 
HETATM   23  C   UNL     1     -42.791  58.705 -57.222  1.00  0.00     0.014 A 
BRANCH  20  24
HETATM   24  C   UNL     1     -42.437  54.658 -55.766  1.00  0.00     0.217 C 
BRANCH  24  25
HETATM   25  O   UNL     1     -42.552  54.715 -54.343  1.00  0.00    -0.347 OA
BRANCH  25  26
HETATM   26  C   UNL     1     -41.668  53.969 -53.614  1.00  0.00     0.070 A 
HETATM   27  C   UNL     1     -41.258  52.784 -54.236  1.00  0.00     0.063 A 
HETATM   28  C   UNL     1     -40.354  51.932 -53.601  1.00  0.00     0.075 A 
HETATM   29 CL   UNL     1     -39.863  50.481 -54.387  1.00  0.00    -0.081 Cl
HETATM   30  C   UNL     1     -39.860  52.261 -52.343  1.00  0.00     0.138 A 
HETATM   31  F   UNL     1     -38.989  51.460 -51.713  1.00  0.00    -0.204 F 
HETATM   32  C   UNL     1     -40.264  53.434 -51.713  1.00  0.00     0.047 A 
HETATM   33  C   UNL     1     -41.172  54.288 -52.347  1.00  0.00     0.040 A 
ENDBRANCH  25  26
ENDBRANCH  24  25
ENDBRANCH  20  24
BRANCH  21  34
HETATM   34  O   UNL     1     -43.484  55.224 -58.305  1.00  0.00    -0.355 OA
HETATM   35  C   UNL     1     -43.869  55.423 -59.659  1.00  0.00     0.210 C 
ENDBRANCH  21  34
ENDBRANCH   9  18
BRANCH   1  36
HETATM   36  C   UNL     1     -46.028  62.134 -48.158  1.00  0.00     0.231 C 
HETATM   37  C   UNL     1     -45.318  61.469 -46.992  1.00  0.00     0.034 C 
ENDBRANCH   1  36
TORSDOF 6
ENDMDL
MODEL 10
REMARK VINA RESULT:      -8.1      4.281      7.763
REMARK  6 active torsions:
REMARK  status: ('A' for Active; 'I' for Inactive)
REMARK    1  A    between atoms: C_2  and  N_3 
REMARK    2  A    between atoms: C_11  and  C_12 
REMARK    3  A    between atoms: C_14  and  C_15 
REMARK    4  A    between atoms: C_15  and  O_16 
REMARK    5  A    between atoms: O_16  and  C_17 
REMARK    6  A    between atoms: C_25  and  O_26 
ROOT
HETATM    1  N   UNL     1     -45.308  63.450 -49.469  1.00  0.00    -0.067 N 
HETATM    2  H   UNL     1     -44.994  63.079 -48.562  1.00  0.00     0.280 HD
HETATM    3  C   UNL     1     -46.217  62.376 -50.071  1.00  0.00     0.281 C 
HETATM    4  C   UNL     1     -45.421  61.172 -50.445  1.00  0.00     0.018 A 
HETATM    5  C   UNL     1     -44.045  61.132 -50.565  1.00  0.00    -0.023 A 
HETATM    6  C   UNL     1     -43.591  59.811 -50.882  1.00  0.00     0.073 A 
HETATM    7  C   UNL     1     -44.637  58.933 -51.032  1.00  0.00     0.088 A 
HETATM    8  N   UNL     1     -44.478  57.630 -51.322  1.00  0.00    -0.358 N 
HETATM    9  C   UNL     1     -43.180  57.091 -51.655  1.00  0.00     0.219 C 
HETATM   10  N   UNL     1     -42.109  57.995 -51.310  1.00  0.00    -0.332 N 
HETATM   11  C   UNL     1     -42.235  59.325 -51.035  1.00  0.00     0.256 C 
HETATM   12  O   UNL     1     -41.255  60.053 -50.908  1.00  0.00    -0.267 OA
HETATM   13  S   UNL     1     -46.149  59.673 -50.790  1.00  0.00    -0.074 SA
HETATM   14  C   UNL     1     -43.200  62.347 -50.323  1.00  0.00     0.068 C 
HETATM   15  C   UNL     1     -44.046  63.633 -50.317  1.00  0.00     0.240 C 
HETATM   16  H   UNL     1     -45.272  57.057 -51.595  1.00  0.00     0.162 HD
HETATM   17  H   UNL     1     -41.164  57.675 -51.452  1.00  0.00     0.165 HD
ENDROOT
BRANCH   9  18
HETATM   18  C   UNL     1     -43.131  56.679 -53.113  1.00  0.00    -0.016 A 
HETATM   19  C   UNL     1     -42.635  55.414 -53.468  1.00  0.00     0.023 A 
HETATM   20  C   UNL     1     -42.558  55.003 -54.815  1.00  0.00    -0.000 A 
HETATM   21  C   UNL     1     -42.994  55.876 -55.827  1.00  0.00     0.076 A 
HETATM   22  C   UNL     1     -43.515  57.125 -55.479  1.00  0.00     0.038 A 
HETATM   23  C   UNL     1     -43.586  57.520 -54.138  1.00  0.00     0.014 A 
BRANCH  20  24
HETATM   24  C   UNL     1     -42.013  53.627 -55.132  1.00  0.00     0.217 C 
BRANCH  24  25
HETATM   25  O   UNL     1     -40.648  53.578 -54.709  1.00  0.00    -0.347 OA
BRANCH  25  26
HETATM   26  C   UNL     1     -40.298  52.578 -53.844  1.00  0.00     0.070 A 
HETATM   27  C   UNL     1     -40.413  52.914 -52.491  1.00  0.00     0.063 A 
HETATM   28  C   UNL     1     -40.090  51.982 -51.504  1.00  0.00     0.075 A 
HETATM   29 CL   UNL     1     -40.240  52.418 -49.846  1.00  0.00    -0.081 Cl
HETATM   30  C   UNL     1     -39.650  50.713 -51.869  1.00  0.00     0.138 A 
HETATM   31  F   UNL     1     -39.336  49.799 -50.939  1.00  0.00    -0.204 F 
HETATM   32  C   UNL     1     -39.528  50.369 -53.212  1.00  0.00     0.047 A 
HETATM   33  C   UNL     1     -39.849  51.304 -54.202  1.00  0.00     0.040 A 
ENDBRANCH  25  26
ENDBRANCH  24  25
ENDBRANCH  20  24
BRANCH  21  34
HETATM   34  O   UNL     1     -42.878  55.415 -57.111  1.00  0.00    -0.355 OA
HETATM   35  C   UNL     1     -43.239  56.296 -58.167  1.00  0.00     0.210 C 
ENDBRANCH  21  34
ENDBRANCH   9  18
BRANCH   1  36
HETATM   36  C   UNL     1     -46.013  64.759 -49.219  1.00  0.00     0.231 C 
HETATM   37  C   UNL     1     -47.519  64.587 -49.307  1.00  0.00     0.034 C 
ENDBRANCH   1  36
TORSDOF 6
ENDMDL
