MODEL 1
REMARK VINA RESULT:      -7.7      0.000      0.000
REMARK  3 active torsions:
REMARK  status: ('A' for Active; 'I' for Inactive)
REMARK    1  A    between atoms: N_6  and  C_7 
REMARK    2  A    between atoms: C_7  and  C_8 
REMARK    3  A    between atoms: N_10  and  C_11 
ROOT
HETATM    1  C   UNL     1     -40.239  52.183 -52.219  1.00  0.00     0.073 A 
HETATM    2  C   UNL     1     -39.975  50.845 -51.842  1.00  0.00     0.062 A 
HETATM    3 CL   UNL     1     -40.157  50.267 -50.219  1.00  0.00    -0.082 Cl
HETATM    4  C   UNL     1     -39.618  49.874 -52.791  1.00  0.00     0.026 A 
HETATM    5  C   UNL     1     -39.528  50.197 -54.141  1.00  0.00     0.003 A 
HETATM    6  C   UNL     1     -39.810  51.494 -54.552  1.00  0.00     0.025 A 
HETATM    7  C   UNL     1     -40.167  52.476 -53.611  1.00  0.00     0.072 A 
HETATM    8  C   UNL     1     -40.462  53.794 -54.115  1.00  0.00     0.102 C 
HETATM    9  N   UNL     1     -40.768  54.837 -54.531  1.00  0.00    -0.191 NA
ENDROOT
BRANCH   1  10
HETATM   10  N   UNL     1     -40.548  53.214 -51.326  1.00  0.00    -0.378 N 
HETATM   11  C   UNL     1     -41.940  53.666 -51.263  1.00  0.00     0.129 C 
HETATM   12  C   UNL     1     -41.891  55.194 -51.083  1.00  0.00     0.032 C 
HETATM   13  C   UNL     1     -41.176  55.525 -49.761  1.00  0.00     0.009 C 
HETATM   14  C   UNL     1     -39.773  54.902 -49.743  1.00  0.00     0.020 C 
HETATM   15  C   UNL     1     -39.793  53.405 -50.080  1.00  0.00     0.123 C 
BRANCH  12  16
HETATM   16  C   UNL     1     -43.295  55.806 -51.206  1.00  0.00     0.278 C 
BRANCH  16  17
HETATM   17  N   UNL     1     -43.492  56.721 -52.353  1.00  0.00     0.092 N 
HETATM   18  C   UNL     1     -42.307  57.587 -52.550  1.00  0.00     0.300 C 
HETATM   19  C   UNL     1     -42.155  58.738 -51.526  1.00  0.00     0.264 C 
HETATM   20  N   UNL     1     -43.439  59.548 -51.435  1.00  0.00    -0.072 N 
HETATM   21  C   UNL     1     -43.343  60.654 -50.430  1.00  0.00     0.269 C 
HETATM   22  H   UNL     1     -43.585  59.978 -52.357  1.00  0.00     0.279 HD
HETATM   23  C   UNL     1     -44.649  58.656 -51.180  1.00  0.00     0.264 C 
HETATM   24  C   UNL     1     -44.707  57.561 -52.263  1.00  0.00     0.300 C 
ENDBRANCH  16  17
ENDBRANCH  12  16
ENDBRANCH   1  10
TORSDOF 3
ENDMDL
MODEL 2
REMARK VINA RESULT:      -7.6      1.228      2.143
REMARK  3 active torsions:
REMARK  status: ('A' for Active; 'I' for Inactive)
REMARK    1  A    between atoms: N_6  and  C_7 
REMARK    2  A    between atoms: C_7  and  C_8 
REMARK    3  A    between atoms: N_10  and  C_11 
ROOT
HETATM    1  C   UNL     1     -40.144  51.996 -52.325  1.00  0.00     0.073 A 
HETATM    2  C   UNL     1     -39.951  50.692 -51.810  1.00  0.00     0.062 A 
HETATM    3 CL   UNL     1     -40.239  50.281 -50.151  1.00  0.00    -0.082 Cl
HETATM    4  C   UNL     1     -39.585  49.622 -52.641  1.00  0.00     0.026 A 
HETATM    5  C   UNL     1     -39.412  49.809 -54.008  1.00  0.00     0.003 A 
HETATM    6  C   UNL     1     -39.623  51.069 -54.555  1.00  0.00     0.025 A 
HETATM    7  C   UNL     1     -39.988  52.149 -53.733  1.00  0.00     0.072 A 
HETATM    8  C   UNL     1     -40.206  53.421 -54.376  1.00  0.00     0.102 C 
HETATM    9  N   UNL     1     -40.449  54.429 -54.905  1.00  0.00    -0.191 NA
ENDROOT
BRANCH   1  10
HETATM   10  N   UNL     1     -40.457  53.118 -51.553  1.00  0.00    -0.378 N 
HETATM   11  C   UNL     1     -41.830  53.625 -51.615  1.00  0.00     0.129 C 
HETATM   12  C   UNL     1     -41.727  55.160 -51.576  1.00  0.00     0.032 C 
HETATM   13  C   UNL     1     -41.072  55.589 -50.251  1.00  0.00     0.009 C 
HETATM   14  C   UNL     1     -39.700  54.920 -50.091  1.00  0.00     0.020 C 
HETATM   15  C   UNL     1     -39.765  53.399 -50.288  1.00  0.00     0.123 C 
BRANCH  12  16
HETATM   16  C   UNL     1     -43.095  55.809 -51.839  1.00  0.00     0.278 C 
BRANCH  16  17
HETATM   17  N   UNL     1     -43.074  57.277 -52.036  1.00  0.00     0.092 N 
HETATM   18  C   UNL     1     -44.409  57.776 -52.437  1.00  0.00     0.300 C 
HETATM   19  C   UNL     1     -44.809  57.481 -53.903  1.00  0.00     0.264 C 
HETATM   20  N   UNL     1     -43.722  57.943 -54.860  1.00  0.00    -0.072 N 
HETATM   21  C   UNL     1     -44.058  57.647 -56.289  1.00  0.00     0.269 C 
HETATM   22  H   UNL     1     -43.654  58.964 -54.762  1.00  0.00     0.279 HD
HETATM   23  C   UNL     1     -42.358  57.382 -54.472  1.00  0.00     0.264 C 
HETATM   24  C   UNL     1     -42.060  57.748 -53.005  1.00  0.00     0.300 C 
ENDBRANCH  16  17
ENDBRANCH  12  16
ENDBRANCH   1  10
TORSDOF 3
ENDMDL
MODEL 3
REMARK VINA RESULT:      -7.5      2.243      3.163
REMARK  3 active torsions:
REMARK  status: ('A' for Active; 'I' for Inactive)
REMARK    1  A    between atoms: N_6  and  C_7 
REMARK    2  A    between atoms: C_7  and  C_8 
REMARK    3  A    between atoms: N_10  and  C_11 
ROOT
HETATM    1  C   UNL     1     -41.329  53.455 -52.539  1.00  0.00     0.073 A 
HETATM    2  C   UNL     1     -41.316  52.948 -53.861  1.00  0.00     0.062 A 
HETATM    3 CL   UNL     1     -42.374  53.527 -55.104  1.00  0.00    -0.082 Cl
HETATM    4  C   UNL     1     -40.377  51.987 -54.268  1.00  0.00     0.026 A 
HETATM    5  C   UNL     1     -39.416  51.511 -53.382  1.00  0.00     0.003 A 
HETATM    6  C   UNL     1     -39.379  52.008 -52.085  1.00  0.00     0.025 A 
HETATM    7  C   UNL     1     -40.315  52.970 -51.665  1.00  0.00     0.072 A 
HETATM    8  C   UNL     1     -40.202  53.450 -50.310  1.00  0.00     0.102 C 
HETATM    9  N   UNL     1     -40.066  53.887 -49.240  1.00  0.00    -0.191 NA
ENDROOT
BRANCH   1  10
HETATM   10  N   UNL     1     -42.264  54.371 -52.049  1.00  0.00    -0.378 N 
HETATM   11  C   UNL     1     -42.280  55.711 -52.642  1.00  0.00     0.129 C 
HETATM   12  C   UNL     1     -42.553  56.692 -51.489  1.00  0.00     0.032 C 
HETATM   13  C   UNL     1     -43.928  56.379 -50.874  1.00  0.00     0.009 C 
HETATM   14  C   UNL     1     -43.984  54.917 -50.406  1.00  0.00     0.020 C 
HETATM   15  C   UNL     1     -43.557  53.935 -51.506  1.00  0.00     0.123 C 
BRANCH  12  16
HETATM   16  C   UNL     1     -42.392  58.147 -51.956  1.00  0.00     0.278 C 
BRANCH  16  17
HETATM   17  N   UNL     1     -42.673  58.390 -53.389  1.00  0.00     0.092 N 
HETATM   18  C   UNL     1     -41.909  59.554 -53.890  1.00  0.00     0.300 C 
HETATM   19  C   UNL     1     -42.446  60.936 -53.444  1.00  0.00     0.264 C 
HETATM   20  N   UNL     1     -43.930  61.059 -53.753  1.00  0.00    -0.072 N 
HETATM   21  C   UNL     1     -44.497  62.372 -53.309  1.00  0.00     0.269 C 
HETATM   22  H   UNL     1     -44.026  61.009 -54.775  1.00  0.00     0.279 HD
HETATM   23  C   UNL     1     -44.720  59.883 -53.189  1.00  0.00     0.264 C 
HETATM   24  C   UNL     1     -44.107  58.567 -53.709  1.00  0.00     0.300 C 
ENDBRANCH  16  17
ENDBRANCH  12  16
ENDBRANCH   1  10
TORSDOF 3
ENDMDL
MODEL 4
REMARK VINA RESULT:      -7.1      1.923      2.511
REMARK  3 active torsions:
REMARK  status: ('A' for Active; 'I' for Inactive)
REMARK    1  A    between atoms: N_6  and  C_7 
REMARK    2  A    between atoms: C_7  and  C_8 
REMARK    3  A    between atoms: N_10  and  C_11 
ROOT
HETATM    1  C   UNL     1     -41.295  53.427 -52.455  1.00  0.00     0.073 A 
HETATM    2  C   UNL     1     -40.333  52.792 -51.634  1.00  0.00     0.062 A 
HETATM    3 CL   UNL     1     -40.284  52.986 -49.913  1.00  0.00    -0.082 Cl
HETATM    4  C   UNL     1     -39.394  51.893 -52.166  1.00  0.00     0.026 A 
HETATM    5  C   UNL     1     -39.392  51.587 -53.522  1.00  0.00     0.003 A 
HETATM    6  C   UNL     1     -40.342  52.167 -54.354  1.00  0.00     0.025 A 
HETATM    7  C   UNL     1     -41.285  53.070 -53.834  1.00  0.00     0.072 A 
HETATM    8  C   UNL     1     -42.249  53.617 -54.755  1.00  0.00     0.102 C 
HETATM    9  N   UNL     1     -43.069  54.003 -55.485  1.00  0.00    -0.191 NA
ENDROOT
BRANCH   1  10
HETATM   10  N   UNL     1     -42.224  54.370 -52.006  1.00  0.00    -0.378 N 
HETATM   11  C   UNL     1     -42.157  55.717 -52.579  1.00  0.00     0.129 C 
HETATM   12  C   UNL     1     -42.462  56.692 -51.429  1.00  0.00     0.032 C 
HETATM   13  C   UNL     1     -43.881  56.422 -50.900  1.00  0.00     0.009 C 
HETATM   14  C   UNL     1     -44.017  54.958 -50.458  1.00  0.00     0.020 C 
HETATM   15  C   UNL     1     -43.561  53.975 -51.546  1.00  0.00     0.123 C 
BRANCH  12  16
HETATM   16  C   UNL     1     -42.222  58.147 -51.864  1.00  0.00     0.278 C 
BRANCH  16  17
HETATM   17  N   UNL     1     -42.454  58.428 -53.299  1.00  0.00     0.092 N 
HETATM   18  C   UNL     1     -41.801  59.693 -53.703  1.00  0.00     0.300 C 
HETATM   19  C   UNL     1     -42.515  60.983 -53.229  1.00  0.00     0.264 C 
HETATM   20  N   UNL     1     -43.984  60.956 -53.616  1.00  0.00    -0.072 N 
HETATM   21  C   UNL     1     -44.719  62.175 -53.148  1.00  0.00     0.269 C 
HETATM   22  H   UNL     1     -44.022  60.948 -54.643  1.00  0.00     0.279 HD
HETATM   23  C   UNL     1     -44.664  59.673 -53.151  1.00  0.00     0.264 C 
HETATM   24  C   UNL     1     -43.881  58.461 -53.691  1.00  0.00     0.300 C 
ENDBRANCH  16  17
ENDBRANCH  12  16
ENDBRANCH   1  10
TORSDOF 3
ENDMDL
MODEL 5
REMARK VINA RESULT:      -6.9      4.628      6.539
REMARK  3 active torsions:
REMARK  status: ('A' for Active; 'I' for Inactive)
REMARK    1  A    between atoms: N_6  and  C_7 
REMARK    2  A    between atoms: C_7  and  C_8 
REMARK    3  A    between atoms: N_10  and  C_11 
ROOT
HETATM    1  C   UNL     1     -42.293  55.849 -52.601  1.00  0.00     0.073 A 
HETATM    2  C   UNL     1     -43.044  55.755 -51.406  1.00  0.00     0.062 A 
HETATM    3 CL   UNL     1     -44.362  56.816 -51.033  1.00  0.00    -0.082 Cl
HETATM    4  C   UNL     1     -42.813  54.732 -50.473  1.00  0.00     0.026 A 
HETATM    5  C   UNL     1     -41.841  53.765 -50.704  1.00  0.00     0.003 A 
HETATM    6  C   UNL     1     -41.104  53.807 -51.881  1.00  0.00     0.025 A 
HETATM    7  C   UNL     1     -41.325  54.828 -52.822  1.00  0.00     0.072 A 
HETATM    8  C   UNL     1     -40.534  54.795 -54.027  1.00  0.00     0.102 C 
HETATM    9  N   UNL     1     -39.945  54.727 -55.028  1.00  0.00    -0.191 NA
ENDROOT
BRANCH   1  10
HETATM   10  N   UNL     1     -42.431  56.868 -53.549  1.00  0.00    -0.378 N 
HETATM   11  C   UNL     1     -43.454  56.700 -54.584  1.00  0.00     0.129 C 
HETATM   12  C   UNL     1     -42.851  57.261 -55.884  1.00  0.00     0.032 C 
HETATM   13  C   UNL     1     -42.543  58.757 -55.694  1.00  0.00     0.009 C 
HETATM   14  C   UNL     1     -41.607  58.961 -54.494  1.00  0.00     0.020 C 
HETATM   15  C   UNL     1     -42.122  58.266 -53.226  1.00  0.00     0.123 C 
BRANCH  12  16
HETATM   16  C   UNL     1     -43.757  56.956 -57.087  1.00  0.00     0.278 C 
BRANCH  16  17
HETATM   17  N   UNL     1     -43.134  57.143 -58.416  1.00  0.00     0.092 N 
HETATM   18  C   UNL     1     -43.830  58.200 -59.184  1.00  0.00     0.300 C 
HETATM   19  C   UNL     1     -45.203  57.792 -59.771  1.00  0.00     0.264 C 
HETATM   20  N   UNL     1     -45.084  56.502 -60.566  1.00  0.00    -0.072 N 
HETATM   21  C   UNL     1     -46.400  56.055 -61.126  1.00  0.00     0.269 C 
HETATM   22  H   UNL     1     -44.460  56.697 -61.358  1.00  0.00     0.279 HD
HETATM   23  C   UNL     1     -44.414  55.401 -59.751  1.00  0.00     0.264 C 
HETATM   24  C   UNL     1     -43.056  55.911 -59.233  1.00  0.00     0.300 C 
ENDBRANCH  16  17
ENDBRANCH  12  16
ENDBRANCH   1  10
TORSDOF 3
ENDMDL
MODEL 6
REMARK VINA RESULT:      -6.7      4.608      6.787
REMARK  3 active torsions:
REMARK  status: ('A' for Active; 'I' for Inactive)
REMARK    1  A    between atoms: N_6  and  C_7 
REMARK    2  A    between atoms: C_7  and  C_8 
REMARK    3  A    between atoms: N_10  and  C_11 
ROOT
HETATM    1  C   UNL     1     -42.278  55.883 -53.038  1.00  0.00     0.073 A 
HETATM    2  C   UNL     1     -41.304  54.904 -53.348  1.00  0.00     0.062 A 
HETATM    3 CL   UNL     1     -40.173  55.076 -54.649  1.00  0.00    -0.082 Cl
HETATM    4  C   UNL     1     -41.144  53.754 -52.560  1.00  0.00     0.026 A 
HETATM    5  C   UNL     1     -41.934  53.547 -51.434  1.00  0.00     0.003 A 
HETATM    6  C   UNL     1     -42.880  54.501 -51.080  1.00  0.00     0.025 A 
HETATM    7  C   UNL     1     -43.051  55.657 -51.863  1.00  0.00     0.072 A 
HETATM    8  C   UNL     1     -44.040  56.609 -51.423  1.00  0.00     0.102 C 
HETATM    9  N   UNL     1     -44.788  57.408 -51.029  1.00  0.00    -0.191 NA
ENDROOT
BRANCH   1  10
HETATM   10  N   UNL     1     -42.530  57.024 -53.805  1.00  0.00    -0.378 N 
HETATM   11  C   UNL     1     -43.643  56.973 -54.756  1.00  0.00     0.129 C 
HETATM   12  C   UNL     1     -43.181  57.742 -56.006  1.00  0.00     0.032 C 
HETATM   13  C   UNL     1     -42.891  59.203 -55.622  1.00  0.00     0.009 C 
HETATM   14  C   UNL     1     -41.849  59.263 -54.496  1.00  0.00     0.020 C 
HETATM   15  C   UNL     1     -42.224  58.370 -53.305  1.00  0.00     0.123 C 
BRANCH  12  16
HETATM   16  C   UNL     1     -44.191  57.584 -57.153  1.00  0.00     0.278 C 
BRANCH  16  17
HETATM   17  N   UNL     1     -43.775  58.162 -58.451  1.00  0.00     0.092 N 
HETATM   18  C   UNL     1     -44.947  58.408 -59.322  1.00  0.00     0.300 C 
HETATM   19  C   UNL     1     -45.564  57.143 -59.967  1.00  0.00     0.264 C 
HETATM   20  N   UNL     1     -44.495  56.325 -60.674  1.00  0.00    -0.072 N 
HETATM   21  C   UNL     1     -45.047  55.075 -61.286  1.00  0.00     0.269 C 
HETATM   22  H   UNL     1     -44.130  56.909 -61.437  1.00  0.00     0.279 HD
HETATM   23  C   UNL     1     -43.314  56.031 -59.756  1.00  0.00     0.264 C 
HETATM   24  C   UNL     1     -42.774  57.357 -59.186  1.00  0.00     0.300 C 
ENDBRANCH  16  17
ENDBRANCH  12  16
ENDBRANCH   1  10
TORSDOF 3
ENDMDL
MODEL 7
REMARK VINA RESULT:      -6.7     14.322     16.608
REMARK  3 active torsions:
REMARK  status: ('A' for Active; 'I' for Inactive)
REMARK    1  A    between atoms: N_6  and  C_7 
REMARK    2  A    between atoms: C_7  and  C_8 
REMARK    3  A    between atoms: N_10  and  C_11 
ROOT
HETATM    1  C   UNL     1     -36.067  40.048 -58.004  1.00  0.00     0.073 A 
HETATM    2  C   UNL     1     -36.768  39.488 -59.098  1.00  0.00     0.062 A 
HETATM    3 CL   UNL     1     -36.948  37.780 -59.329  1.00  0.00    -0.082 Cl
HETATM    4  C   UNL     1     -37.435  40.295 -60.033  1.00  0.00     0.026 A 
HETATM    5  C   UNL     1     -37.438  41.680 -59.902  1.00  0.00     0.003 A 
HETATM    6  C   UNL     1     -36.787  42.265 -58.824  1.00  0.00     0.025 A 
HETATM    7  C   UNL     1     -36.114  41.467 -57.882  1.00  0.00     0.072 A 
HETATM    8  C   UNL     1     -35.476  42.144 -56.781  1.00  0.00     0.102 C 
HETATM    9  N   UNL     1     -35.023  42.687 -55.857  1.00  0.00    -0.191 NA
ENDROOT
BRANCH   1  10
HETATM   10  N   UNL     1     -35.338  39.312 -57.065  1.00  0.00    -0.378 N 
HETATM   11  C   UNL     1     -36.061  38.780 -55.908  1.00  0.00     0.129 C 
HETATM   12  C   UNL     1     -35.112  38.917 -54.704  1.00  0.00     0.032 C 
HETATM   13  C   UNL     1     -33.848  38.078 -54.959  1.00  0.00     0.009 C 
HETATM   14  C   UNL     1     -33.175  38.510 -56.270  1.00  0.00     0.020 C 
HETATM   15  C   UNL     1     -34.156  38.531 -57.451  1.00  0.00     0.123 C 
BRANCH  12  16
HETATM   16  C   UNL     1     -35.836  38.577 -53.392  1.00  0.00     0.278 C 
BRANCH  16  17
HETATM   17  N   UNL     1     -35.793  39.628 -52.351  1.00  0.00     0.092 N 
HETATM   18  C   UNL     1     -36.758  39.340 -51.266  1.00  0.00     0.300 C 
HETATM   19  C   UNL     1     -38.242  39.604 -51.618  1.00  0.00     0.264 C 
HETATM   20  N   UNL     1     -38.420  41.008 -52.174  1.00  0.00    -0.072 N 
HETATM   21  C   UNL     1     -39.840  41.293 -52.556  1.00  0.00     0.269 C 
HETATM   22  H   UNL     1     -38.164  41.660 -51.422  1.00  0.00     0.279 HD
HETATM   23  C   UNL     1     -37.459  41.281 -53.326  1.00  0.00     0.264 C 
HETATM   24  C   UNL     1     -36.018  41.000 -52.859  1.00  0.00     0.300 C 
ENDBRANCH  16  17
ENDBRANCH  12  16
ENDBRANCH   1  10
TORSDOF 3
ENDMDL
MODEL 8
REMARK VINA RESULT:      -6.6     14.598     17.386
REMARK  3 active torsions:
REMARK  status: ('A' for Active; 'I' for Inactive)
REMARK    1  A    between atoms: N_6  and  C_7 
REMARK    2  A    between atoms: C_7  and  C_8 
REMARK    3  A    between atoms: N_10  and  C_11 
ROOT
HETATM    1  C   UNL     1     -34.259  40.512 -52.531  1.00  0.00     0.073 A 
HETATM    2  C   UNL     1     -34.641  40.379 -51.175  1.00  0.00     0.062 A 
HETATM    3 CL   UNL     1     -36.290  40.440 -50.648  1.00  0.00    -0.082 Cl
HETATM    4  C   UNL     1     -33.698  40.108 -50.172  1.00  0.00     0.026 A 
HETATM    5  C   UNL     1     -32.352  39.947 -50.485  1.00  0.00     0.003 A 
HETATM    6  C   UNL     1     -31.944  40.040 -51.809  1.00  0.00     0.025 A 
HETATM    7  C   UNL     1     -32.880  40.313 -52.823  1.00  0.00     0.072 A 
HETATM    8  C   UNL     1     -32.384  40.378 -54.175  1.00  0.00     0.102 C 
HETATM    9  N   UNL     1     -31.994  40.360 -55.272  1.00  0.00    -0.191 NA
ENDROOT
BRANCH   1  10
HETATM   10  N   UNL     1     -35.133  40.833 -53.575  1.00  0.00    -0.378 N 
HETATM   11  C   UNL     1     -35.995  39.768 -54.092  1.00  0.00     0.129 C 
HETATM   12  C   UNL     1     -36.069  39.972 -55.616  1.00  0.00     0.032 C 
HETATM   13  C   UNL     1     -36.701  41.344 -55.912  1.00  0.00     0.009 C 
HETATM   14  C   UNL     1     -35.902  42.460 -55.223  1.00  0.00     0.020 C 
HETATM   15  C   UNL     1     -35.684  42.186 -53.729  1.00  0.00     0.123 C 
BRANCH  12  16
HETATM   16  C   UNL     1     -36.785  38.793 -56.294  1.00  0.00     0.278 C 
BRANCH  16  17
HETATM   17  N   UNL     1     -35.967  38.024 -57.260  1.00  0.00     0.092 N 
HETATM   18  C   UNL     1     -35.401  38.912 -58.300  1.00  0.00     0.300 C 
HETATM   19  C   UNL     1     -36.406  39.391 -59.375  1.00  0.00     0.264 C 
HETATM   20  N   UNL     1     -37.147  38.210 -59.982  1.00  0.00    -0.072 N 
HETATM   21  C   UNL     1     -38.153  38.635 -61.007  1.00  0.00     0.269 C 
HETATM   22  H   UNL     1     -36.444  37.631 -60.459  1.00  0.00     0.279 HD
HETATM   23  C   UNL     1     -37.773  37.328 -58.907  1.00  0.00     0.264 C 
HETATM   24  C   UNL     1     -36.682  36.901 -57.906  1.00  0.00     0.300 C 
ENDBRANCH  16  17
ENDBRANCH  12  16
ENDBRANCH   1  10
TORSDOF 3
ENDMDL
MODEL 9
REMARK VINA RESULT:      -6.6      2.691      6.843
REMARK  3 active torsions:
REMARK  status: ('A' for Active; 'I' for Inactive)
REMARK    1  A    between atoms: N_6  and  C_7 
REMARK    2  A    between atoms: C_7  and  C_8 
REMARK    3  A    between atoms: N_10  and  C_11 
ROOT
HETATM    1  C   UNL     1     -42.504  57.791 -53.172  1.00  0.00     0.073 A 
HETATM    2  C   UNL     1     -42.039  59.101 -52.910  1.00  0.00     0.062 A 
HETATM    3 CL   UNL     1     -41.654  59.666 -51.317  1.00  0.00    -0.082 Cl
HETATM    4  C   UNL     1     -41.783  60.010 -53.949  1.00  0.00     0.026 A 
HETATM    5  C   UNL     1     -41.968  59.642 -55.277  1.00  0.00     0.003 A 
HETATM    6  C   UNL     1     -42.395  58.353 -55.575  1.00  0.00     0.025 A 
HETATM    7  C   UNL     1     -42.655  57.435 -54.543  1.00  0.00     0.072 A 
HETATM    8  C   UNL     1     -43.078  56.112 -54.930  1.00  0.00     0.102 C 
HETATM    9  N   UNL     1     -43.351  55.026 -55.246  1.00  0.00    -0.191 NA
ENDROOT
BRANCH   1  10
HETATM   10  N   UNL     1     -42.829  56.851 -52.188  1.00  0.00    -0.378 N 
HETATM   11  C   UNL     1     -41.800  55.881 -51.808  1.00  0.00     0.129 C 
HETATM   12  C   UNL     1     -42.528  54.546 -51.575  1.00  0.00     0.032 C 
HETATM   13  C   UNL     1     -43.536  54.714 -50.425  1.00  0.00     0.009 C 
HETATM   14  C   UNL     1     -44.517  55.854 -50.736  1.00  0.00     0.020 C 
HETATM   15  C   UNL     1     -43.798  57.152 -51.127  1.00  0.00     0.123 C 
BRANCH  12  16
HETATM   16  C   UNL     1     -41.525  53.401 -51.366  1.00  0.00     0.278 C 
BRANCH  16  17
HETATM   17  N   UNL     1     -40.227  53.558 -52.062  1.00  0.00     0.092 N 
HETATM   18  C   UNL     1     -40.414  53.596 -53.530  1.00  0.00     0.300 C 
HETATM   19  C   UNL     1     -40.720  52.230 -54.190  1.00  0.00     0.264 C 
HETATM   20  N   UNL     1     -39.688  51.192 -53.779  1.00  0.00    -0.072 N 
HETATM   21  C   UNL     1     -39.967  49.846 -54.373  1.00  0.00     0.269 C 
HETATM   22  H   UNL     1     -38.783  51.511 -54.145  1.00  0.00     0.279 HD
HETATM   23  C   UNL     1     -39.538  51.120 -52.263  1.00  0.00     0.264 C 
HETATM   24  C   UNL     1     -39.222  52.527 -51.719  1.00  0.00     0.300 C 
ENDBRANCH  16  17
ENDBRANCH  12  16
ENDBRANCH   1  10
TORSDOF 3
ENDMDL
MODEL 10
REMARK VINA RESULT:      -6.6     15.130     16.882
REMARK  3 active torsions:
REMARK  status: ('A' for Active; 'I' for Inactive)
REMARK    1  A    between atoms: N_6  and  C_7 
REMARK    2  A    between atoms: C_7  and  C_8 
REMARK    3  A    between atoms: N_10  and  C_11 
ROOT
HETATM    1  C   UNL     1     -35.038  39.908 -52.498  1.00  0.00     0.073 A 
HETATM    2  C   UNL     1     -35.142  40.736 -51.355  1.00  0.00     0.062 A 
HETATM    3 CL   UNL     1     -34.439  42.317 -51.267  1.00  0.00    -0.082 Cl
HETATM    4  C   UNL     1     -35.900  40.351 -50.238  1.00  0.00     0.026 A 
HETATM    5  C   UNL     1     -36.586  39.141 -50.227  1.00  0.00     0.003 A 
HETATM    6  C   UNL     1     -36.532  38.316 -51.343  1.00  0.00     0.025 A 
HETATM    7  C   UNL     1     -35.775  38.690 -52.467  1.00  0.00     0.072 A 
HETATM    8  C   UNL     1     -35.781  37.790 -53.593  1.00  0.00     0.102 C 
HETATM    9  N   UNL     1     -35.844  37.098 -54.527  1.00  0.00    -0.191 NA
ENDROOT
BRANCH   1  10
HETATM   10  N   UNL     1     -34.261  40.201 -53.623  1.00  0.00    -0.378 N 
HETATM   11  C   UNL     1     -34.827  41.112 -54.622  1.00  0.00     0.129 C 
HETATM   12  C   UNL     1     -34.397  40.568 -55.996  1.00  0.00     0.032 C 
HETATM   13  C   UNL     1     -32.862  40.583 -56.088  1.00  0.00     0.009 C 
HETATM   14  C   UNL     1     -32.249  39.774 -54.936  1.00  0.00     0.020 C 
HETATM   15  C   UNL     1     -32.794  40.203 -53.566  1.00  0.00     0.123 C 
BRANCH  12  16
HETATM   16  C   UNL     1     -35.101  41.327 -57.132  1.00  0.00     0.278 C 
BRANCH  16  17
HETATM   17  N   UNL     1     -36.580  41.260 -57.121  1.00  0.00     0.092 N 
HETATM   18  C   UNL     1     -37.048  39.860 -57.230  1.00  0.00     0.300 C 
HETATM   19  C   UNL     1     -36.927  39.233 -58.639  1.00  0.00     0.264 C 
HETATM   20  N   UNL     1     -37.576  40.128 -59.683  1.00  0.00    -0.072 N 
HETATM   21  C   UNL     1     -37.453  39.571 -61.067  1.00  0.00     0.269 C 
HETATM   22  H   UNL     1     -38.577  40.173 -59.454  1.00  0.00     0.279 HD
HETATM   23  C   UNL     1     -37.051  41.558 -59.601  1.00  0.00     0.264 C 
HETATM   24  C   UNL     1     -37.236  42.082 -58.163  1.00  0.00     0.300 C 
ENDBRANCH  16  17
ENDBRANCH  12  16
ENDBRANCH   1  10
TORSDOF 3
ENDMDL
