MODEL 1
REMARK VINA RESULT:      -7.8      0.000      0.000
REMARK  6 active torsions:
REMARK  status: ('A' for Active; 'I' for Inactive)
REMARK    1  A    between atoms: C_3  and  C_4 
REMARK    2  A    between atoms: C_4  and  O_5 
REMARK    3  A    between atoms: O_5  and  C_6 
REMARK    4  A    between atoms: C_9  and  C_10 
REMARK    5  A    between atoms: C_15  and  N_16 
REMARK       I    between atoms: N_16  and  C_17 
REMARK       I    between atoms: C_17  and  N_18 
REMARK    6  A    between atoms: N_18  and  C_19 
ROOT
HETATM    1  C   UNL     1     -39.672  50.578 -53.907  1.00  0.00     0.147 C 
HETATM    2  C   UNL     1     -39.656  49.789 -52.607  1.00  0.00    -0.016 C 
HETATM    3  N   UNL     1     -39.644  49.136 -51.530  1.00  0.00    -0.101 N 
ENDROOT
BRANCH   1   4
HETATM    4  C   UNL     1     -40.006  52.029 -53.656  1.00  0.00    -0.046 A 
HETATM    5  C   UNL     1     -40.253  52.489 -52.353  1.00  0.00     0.011 A 
HETATM    6  C   UNL     1     -40.631  53.814 -52.130  1.00  0.00     0.037 A 
HETATM    7  C   UNL     1     -40.750  54.690 -53.205  1.00  0.00     0.069 A 
HETATM    8  C   UNL     1     -40.534  54.245 -54.507  1.00  0.00     0.037 A 
HETATM    9  C   UNL     1     -40.155  52.919 -54.731  1.00  0.00     0.011 A 
BRANCH   7  10
HETATM   10  O   UNL     1     -41.185  55.963 -52.952  1.00  0.00    -0.347 OA
BRANCH  10  11
HETATM   11  C   UNL     1     -41.662  56.091 -51.608  1.00  0.00     0.216 C 
BRANCH  11  12
HETATM   12  C   UNL     1     -41.844  57.558 -51.274  1.00  0.00    -0.007 A 
HETATM   13  C   UNL     1     -40.900  58.184 -50.440  1.00  0.00     0.011 A 
HETATM   14  C   UNL     1     -40.978  59.550 -50.171  1.00  0.00     0.001 A 
HETATM   15  C   UNL     1     -42.000  60.310 -50.731  1.00  0.00     0.002 A 
HETATM   16  C   UNL     1     -42.938  59.708 -51.570  1.00  0.00     0.030 A 
HETATM   17  C   UNL     1     -42.861  58.339 -51.860  1.00  0.00     0.044 A 
BRANCH  17  18
HETATM   18  N   UNL     1     -43.821  57.704 -52.670  1.00  0.00    -0.308 N 
HETATM   19  C   UNL     1     -43.919  57.574 -54.030  1.00  0.00     0.325 C 
HETATM   20  N   UNL     1     -42.751  57.735 -54.730  1.00  0.00    -0.306 N 
HETATM   21  O   UNL     1     -44.991  57.222 -54.516  1.00  0.00    -0.247 OA
HETATM   22  H   UNL     1     -41.898  57.816 -54.199  1.00  0.00     0.171 HD
HETATM   23  H   UNL     1     -44.612  57.288 -52.182  1.00  0.00     0.170 HD
BRANCH  20  24
HETATM   24  C   UNL     1     -42.625  57.544 -56.091  1.00  0.00     0.072 A 
HETATM   25  C   UNL     1     -42.463  58.456 -57.156  1.00  0.00     0.169 A 
HETATM   26  N   UNL     1     -42.400  57.843 -58.344  1.00  0.00    -0.185 NA
HETATM   27  N   UNL     1     -42.523  56.544 -58.035  1.00  0.00    -0.287 N 
HETATM   28  H   UNL     1     -42.515  55.869 -58.793  1.00  0.00     0.188 HD
HETATM   29  C   UNL     1     -42.650  56.310 -56.696  1.00  0.00     0.140 A 
ENDBRANCH  20  24
ENDBRANCH  17  18
ENDBRANCH  11  12
ENDBRANCH  10  11
ENDBRANCH   7  10
ENDBRANCH   1   4
TORSDOF 6
ENDMDL
MODEL 2
REMARK VINA RESULT:      -7.4      2.384      6.711
REMARK  6 active torsions:
REMARK  status: ('A' for Active; 'I' for Inactive)
REMARK    1  A    between atoms: C_3  and  C_4 
REMARK    2  A    between atoms: C_4  and  O_5 
REMARK    3  A    between atoms: O_5  and  C_6 
REMARK    4  A    between atoms: C_9  and  C_10 
REMARK    5  A    between atoms: C_15  and  N_16 
REMARK       I    between atoms: N_16  and  C_17 
REMARK       I    between atoms: C_17  and  N_18 
REMARK    6  A    between atoms: N_18  and  C_19 
ROOT
HETATM    1  C   UNL     1     -43.671  57.349 -59.784  1.00  0.00     0.147 C 
HETATM    2  C   UNL     1     -44.780  56.478 -60.352  1.00  0.00    -0.016 C 
HETATM    3  N   UNL     1     -45.699  55.756 -60.823  1.00  0.00    -0.101 N 
ENDROOT
BRANCH   1   4
HETATM    4  C   UNL     1     -43.195  56.820 -58.453  1.00  0.00    -0.046 A 
HETATM    5  C   UNL     1     -43.258  55.447 -58.167  1.00  0.00     0.011 A 
HETATM    6  C   UNL     1     -42.883  54.968 -56.910  1.00  0.00     0.037 A 
HETATM    7  C   UNL     1     -42.431  55.854 -55.938  1.00  0.00     0.069 A 
HETATM    8  C   UNL     1     -42.386  57.223 -56.195  1.00  0.00     0.037 A 
HETATM    9  C   UNL     1     -42.760  57.703 -57.452  1.00  0.00     0.011 A 
BRANCH   7  10
HETATM   10  O   UNL     1     -42.136  55.354 -54.699  1.00  0.00    -0.347 OA
BRANCH  10  11
HETATM   11  C   UNL     1     -42.522  53.979 -54.588  1.00  0.00     0.216 C 
BRANCH  11  12
HETATM   12  C   UNL     1     -41.543  53.249 -53.690  1.00  0.00    -0.007 A 
HETATM   13  C   UNL     1     -40.597  52.390 -54.279  1.00  0.00     0.011 A 
HETATM   14  C   UNL     1     -39.624  51.761 -53.504  1.00  0.00     0.001 A 
HETATM   15  C   UNL     1     -39.581  51.981 -52.131  1.00  0.00     0.002 A 
HETATM   16  C   UNL     1     -40.504  52.840 -51.532  1.00  0.00     0.030 A 
HETATM   17  C   UNL     1     -41.477  53.490 -52.303  1.00  0.00     0.044 A 
BRANCH  17  18
HETATM   18  N   UNL     1     -42.444  54.326 -51.713  1.00  0.00    -0.308 N 
HETATM   19  C   UNL     1     -42.396  55.641 -51.336  1.00  0.00     0.325 C 
HETATM   20  N   UNL     1     -41.428  56.401 -51.939  1.00  0.00    -0.306 N 
HETATM   21  O   UNL     1     -43.269  56.075 -50.586  1.00  0.00    -0.247 OA
HETATM   22  H   UNL     1     -40.906  55.978 -52.691  1.00  0.00     0.171 HD
HETATM   23  H   UNL     1     -43.335  53.889 -51.488  1.00  0.00     0.170 HD
BRANCH  20  24
HETATM   24  C   UNL     1     -41.285  57.763 -51.768  1.00  0.00     0.072 A 
HETATM   25  C   UNL     1     -41.655  58.856 -52.582  1.00  0.00     0.169 A 
HETATM   26  N   UNL     1     -41.308  60.030 -52.042  1.00  0.00    -0.185 NA
HETATM   27  N   UNL     1     -40.717  59.685 -50.889  1.00  0.00    -0.287 N 
HETATM   28  H   UNL     1     -40.352  60.426 -50.299  1.00  0.00     0.188 HD
HETATM   29  C   UNL     1     -40.686  58.338 -50.672  1.00  0.00     0.140 A 
ENDBRANCH  20  24
ENDBRANCH  17  18
ENDBRANCH  11  12
ENDBRANCH  10  11
ENDBRANCH   7  10
ENDBRANCH   1   4
TORSDOF 6
ENDMDL
MODEL 3
REMARK VINA RESULT:      -7.4      2.373      6.702
REMARK  6 active torsions:
REMARK  status: ('A' for Active; 'I' for Inactive)
REMARK    1  A    between atoms: C_3  and  C_4 
REMARK    2  A    between atoms: C_4  and  O_5 
REMARK    3  A    between atoms: O_5  and  C_6 
REMARK    4  A    between atoms: C_9  and  C_10 
REMARK    5  A    between atoms: C_15  and  N_16 
REMARK       I    between atoms: N_16  and  C_17 
REMARK       I    between atoms: C_17  and  N_18 
REMARK    6  A    between atoms: N_18  and  C_19 
ROOT
HETATM    1  C   UNL     1     -42.428  57.387 -60.271  1.00  0.00     0.147 C 
HETATM    2  C   UNL     1     -42.115  58.866 -60.432  1.00  0.00    -0.016 C 
HETATM    3  N   UNL     1     -41.856  60.091 -60.566  1.00  0.00    -0.101 N 
ENDROOT
BRANCH   1   4
HETATM    4  C   UNL     1     -42.656  57.037 -58.820  1.00  0.00    -0.046 A 
HETATM    5  C   UNL     1     -42.480  58.003 -57.817  1.00  0.00     0.011 A 
HETATM    6  C   UNL     1     -42.622  57.660 -56.471  1.00  0.00     0.037 A 
HETATM    7  C   UNL     1     -42.954  56.355 -56.121  1.00  0.00     0.069 A 
HETATM    8  C   UNL     1     -43.108  55.377 -57.101  1.00  0.00     0.037 A 
HETATM    9  C   UNL     1     -42.966  55.719 -58.448  1.00  0.00     0.011 A 
BRANCH   7  10
HETATM   10  O   UNL     1     -43.021  56.044 -54.790  1.00  0.00    -0.347 OA
BRANCH  10  11
HETATM   11  C   UNL     1     -43.389  54.673 -54.595  1.00  0.00     0.216 C 
BRANCH  11  12
HETATM   12  C   UNL     1     -42.428  54.024 -53.619  1.00  0.00    -0.007 A 
HETATM   13  C   UNL     1     -41.366  53.255 -54.127  1.00  0.00     0.011 A 
HETATM   14  C   UNL     1     -40.409  52.707 -53.274  1.00  0.00     0.001 A 
HETATM   15  C   UNL     1     -40.499  52.921 -51.902  1.00  0.00     0.002 A 
HETATM   16  C   UNL     1     -41.540  53.692 -51.382  1.00  0.00     0.030 A 
HETATM   17  C   UNL     1     -42.498  54.260 -52.231  1.00  0.00     0.044 A 
BRANCH  17  18
HETATM   18  N   UNL     1     -43.579  55.005 -51.724  1.00  0.00    -0.308 N 
HETATM   19  C   UNL     1     -43.678  56.318 -51.346  1.00  0.00     0.325 C 
HETATM   20  N   UNL     1     -42.734  57.163 -51.868  1.00  0.00    -0.306 N 
HETATM   21  O   UNL     1     -44.643  56.669 -50.671  1.00  0.00    -0.247 OA
HETATM   22  H   UNL     1     -42.117  56.791 -52.575  1.00  0.00     0.171 HD
HETATM   23  H   UNL     1     -44.444  54.491 -51.572  1.00  0.00     0.170 HD
BRANCH  20  24
HETATM   24  C   UNL     1     -42.725  58.531 -51.688  1.00  0.00     0.072 A 
HETATM   25  C   UNL     1     -43.475  59.563 -52.293  1.00  0.00     0.169 A 
HETATM   26  N   UNL     1     -43.134  60.773 -51.836  1.00  0.00    -0.185 NA
HETATM   27  N   UNL     1     -42.167  60.512 -50.944  1.00  0.00    -0.287 N 
HETATM   28  H   UNL     1     -41.735  61.295 -50.465  1.00  0.00     0.188 HD
HETATM   29  C   UNL     1     -41.891  59.181 -50.810  1.00  0.00     0.140 A 
ENDBRANCH  20  24
ENDBRANCH  17  18
ENDBRANCH  11  12
ENDBRANCH  10  11
ENDBRANCH   7  10
ENDBRANCH   1   4
TORSDOF 6
ENDMDL
MODEL 4
REMARK VINA RESULT:      -7.3      2.992      5.096
REMARK  6 active torsions:
REMARK  status: ('A' for Active; 'I' for Inactive)
REMARK    1  A    between atoms: C_3  and  C_4 
REMARK    2  A    between atoms: C_4  and  O_5 
REMARK    3  A    between atoms: O_5  and  C_6 
REMARK    4  A    between atoms: C_9  and  C_10 
REMARK    5  A    between atoms: C_15  and  N_16 
REMARK       I    between atoms: N_16  and  C_17 
REMARK       I    between atoms: C_17  and  N_18 
REMARK    6  A    between atoms: N_18  and  C_19 
ROOT
HETATM    1  C   UNL     1     -39.678  51.882 -53.968  1.00  0.00     0.147 C 
HETATM    2  C   UNL     1     -39.660  50.518 -53.297  1.00  0.00    -0.016 C 
HETATM    3  N   UNL     1     -39.645  49.388 -52.740  1.00  0.00    -0.101 N 
ENDROOT
BRANCH   1   4
HETATM    4  C   UNL     1     -40.697  52.790 -53.323  1.00  0.00    -0.046 A 
HETATM    5  C   UNL     1     -41.733  53.354 -54.084  1.00  0.00     0.011 A 
HETATM    6  C   UNL     1     -42.633  54.249 -53.502  1.00  0.00     0.037 A 
HETATM    7  C   UNL     1     -42.511  54.574 -52.155  1.00  0.00     0.069 A 
HETATM    8  C   UNL     1     -41.474  54.044 -51.390  1.00  0.00     0.037 A 
HETATM    9  C   UNL     1     -40.574  53.149 -51.971  1.00  0.00     0.011 A 
BRANCH   7  10
HETATM   10  O   UNL     1     -43.372  55.504 -51.637  1.00  0.00    -0.347 OA
BRANCH  10  11
HETATM   11  C   UNL     1     -42.670  56.500 -50.885  1.00  0.00     0.216 C 
BRANCH  11  12
HETATM   12  C   UNL     1     -42.339  57.674 -51.785  1.00  0.00    -0.007 A 
HETATM   13  C   UNL     1     -41.012  57.838 -52.223  1.00  0.00     0.011 A 
HETATM   14  C   UNL     1     -40.676  58.853 -53.117  1.00  0.00     0.001 A 
HETATM   15  C   UNL     1     -41.659  59.718 -53.587  1.00  0.00     0.002 A 
HETATM   16  C   UNL     1     -42.982  59.563 -53.172  1.00  0.00     0.030 A 
HETATM   17  C   UNL     1     -43.336  58.537 -52.286  1.00  0.00     0.044 A 
BRANCH  17  18
HETATM   18  N   UNL     1     -44.656  58.388 -51.822  1.00  0.00    -0.308 N 
HETATM   19  C   UNL     1     -45.350  59.040 -50.838  1.00  0.00     0.325 C 
HETATM   20  N   UNL     1     -44.866  60.272 -50.481  1.00  0.00    -0.306 N 
HETATM   21  O   UNL     1     -46.397  58.546 -50.425  1.00  0.00    -0.247 OA
HETATM   22  H   UNL     1     -44.120  60.658 -51.039  1.00  0.00     0.171 HD
HETATM   23  H   UNL     1     -45.203  57.649 -52.259  1.00  0.00     0.170 HD
BRANCH  20  24
HETATM   24  C   UNL     1     -45.481  61.123 -49.585  1.00  0.00     0.072 A 
HETATM   25  C   UNL     1     -46.404  62.175 -49.772  1.00  0.00     0.169 A 
HETATM   26  N   UNL     1     -46.737  62.767 -48.619  1.00  0.00    -0.185 NA
HETATM   27  N   UNL     1     -46.027  62.094 -47.702  1.00  0.00    -0.287 N 
HETATM   28  H   UNL     1     -46.109  62.379 -46.731  1.00  0.00     0.188 HD
HETATM   29  C   UNL     1     -45.265  61.091 -48.228  1.00  0.00     0.140 A 
ENDBRANCH  20  24
ENDBRANCH  17  18
ENDBRANCH  11  12
ENDBRANCH  10  11
ENDBRANCH   7  10
ENDBRANCH   1   4
TORSDOF 6
ENDMDL
MODEL 5
REMARK VINA RESULT:      -7.3      2.612      5.227
REMARK  6 active torsions:
REMARK  status: ('A' for Active; 'I' for Inactive)
REMARK    1  A    between atoms: C_3  and  C_4 
REMARK    2  A    between atoms: C_4  and  O_5 
REMARK    3  A    between atoms: O_5  and  C_6 
REMARK    4  A    between atoms: C_9  and  C_10 
REMARK    5  A    between atoms: C_15  and  N_16 
REMARK       I    between atoms: N_16  and  C_17 
REMARK       I    between atoms: C_17  and  N_18 
REMARK    6  A    between atoms: N_18  and  C_19 
ROOT
HETATM    1  C   UNL     1     -40.260  52.607 -50.618  1.00  0.00     0.147 C 
HETATM    2  C   UNL     1     -40.376  53.441 -49.353  1.00  0.00    -0.016 C 
HETATM    3  N   UNL     1     -40.473  54.133 -48.304  1.00  0.00    -0.101 N 
ENDROOT
BRANCH   1   4
HETATM    4  C   UNL     1     -40.989  53.260 -51.767  1.00  0.00    -0.046 A 
HETATM    5  C   UNL     1     -42.206  53.926 -51.554  1.00  0.00     0.011 A 
HETATM    6  C   UNL     1     -42.914  54.468 -52.627  1.00  0.00     0.037 A 
HETATM    7  C   UNL     1     -42.405  54.362 -53.917  1.00  0.00     0.069 A 
HETATM    8  C   UNL     1     -41.211  53.682 -54.152  1.00  0.00     0.037 A 
HETATM    9  C   UNL     1     -40.501  53.139 -53.078  1.00  0.00     0.011 A 
BRANCH   7  10
HETATM   10  O   UNL     1     -43.159  54.849 -54.950  1.00  0.00    -0.347 OA
BRANCH  10  11
HETATM   11  C   UNL     1     -42.401  54.909 -56.164  1.00  0.00     0.216 C 
BRANCH  11  12
HETATM   12  C   UNL     1     -42.844  56.109 -56.977  1.00  0.00    -0.007 A 
HETATM   13  C   UNL     1     -43.456  55.891 -58.225  1.00  0.00     0.011 A 
HETATM   14  C   UNL     1     -43.954  56.957 -58.973  1.00  0.00     0.001 A 
HETATM   15  C   UNL     1     -43.849  58.256 -58.484  1.00  0.00     0.002 A 
HETATM   16  C   UNL     1     -43.255  58.489 -57.243  1.00  0.00     0.030 A 
HETATM   17  C   UNL     1     -42.765  57.424 -56.476  1.00  0.00     0.044 A 
BRANCH  17  18
HETATM   18  N   UNL     1     -42.125  57.641 -55.241  1.00  0.00    -0.308 N 
HETATM   19  C   UNL     1     -42.609  58.063 -54.031  1.00  0.00     0.325 C 
HETATM   20  N   UNL     1     -43.956  57.899 -53.836  1.00  0.00    -0.306 N 
HETATM   21  O   UNL     1     -41.813  58.447 -53.176  1.00  0.00    -0.247 OA
HETATM   22  H   UNL     1     -44.467  57.381 -54.534  1.00  0.00     0.171 HD
HETATM   23  H   UNL     1     -41.118  57.498 -55.228  1.00  0.00     0.170 HD
BRANCH  20  24
HETATM   24  C   UNL     1     -44.612  58.167 -52.652  1.00  0.00     0.072 A 
HETATM   25  C   UNL     1     -44.813  57.387 -51.492  1.00  0.00     0.169 A 
HETATM   26  N   UNL     1     -45.533  58.031 -50.566  1.00  0.00    -0.185 NA
HETATM   27  N   UNL     1     -45.792  59.217 -51.137  1.00  0.00    -0.287 N 
HETATM   28  H   UNL     1     -46.348  59.886 -50.616  1.00  0.00     0.188 HD
HETATM   29  C   UNL     1     -45.252  59.354 -52.383  1.00  0.00     0.140 A 
ENDBRANCH  20  24
ENDBRANCH  17  18
ENDBRANCH  11  12
ENDBRANCH  10  11
ENDBRANCH   7  10
ENDBRANCH   1   4
TORSDOF 6
ENDMDL
MODEL 6
REMARK VINA RESULT:      -7.1      1.765      4.565
REMARK  6 active torsions:
REMARK  status: ('A' for Active; 'I' for Inactive)
REMARK    1  A    between atoms: C_3  and  C_4 
REMARK    2  A    between atoms: C_4  and  O_5 
REMARK    3  A    between atoms: O_5  and  C_6 
REMARK    4  A    between atoms: C_9  and  C_10 
REMARK    5  A    between atoms: C_15  and  N_16 
REMARK       I    between atoms: N_16  and  C_17 
REMARK       I    between atoms: C_17  and  N_18 
REMARK    6  A    between atoms: N_18  and  C_19 
ROOT
HETATM    1  C   UNL     1     -39.179  51.023 -53.033  1.00  0.00     0.147 C 
HETATM    2  C   UNL     1     -39.485  50.144 -51.831  1.00  0.00    -0.016 C 
HETATM    3  N   UNL     1     -39.738  49.416 -50.834  1.00  0.00    -0.101 N 
ENDROOT
BRANCH   1   4
HETATM    4  C   UNL     1     -40.179  52.148 -53.151  1.00  0.00    -0.046 A 
HETATM    5  C   UNL     1     -40.925  52.319 -54.328  1.00  0.00     0.011 A 
HETATM    6  C   UNL     1     -41.797  53.400 -54.461  1.00  0.00     0.037 A 
HETATM    7  C   UNL     1     -41.941  54.307 -53.416  1.00  0.00     0.069 A 
HETATM    8  C   UNL     1     -41.190  54.168 -52.251  1.00  0.00     0.037 A 
HETATM    9  C   UNL     1     -40.317  53.086 -52.116  1.00  0.00     0.011 A 
BRANCH   7  10
HETATM   10  O   UNL     1     -42.757  55.389 -53.610  1.00  0.00    -0.347 OA
BRANCH  10  11
HETATM   11  C   UNL     1     -43.648  55.176 -54.712  1.00  0.00     0.216 C 
BRANCH  11  12
HETATM   12  C   UNL     1     -43.510  56.316 -55.702  1.00  0.00    -0.007 A 
HETATM   13  C   UNL     1     -42.842  56.079 -56.917  1.00  0.00     0.011 A 
HETATM   14  C   UNL     1     -42.762  57.070 -57.893  1.00  0.00     0.001 A 
HETATM   15  C   UNL     1     -43.348  58.313 -57.670  1.00  0.00     0.002 A 
HETATM   16  C   UNL     1     -44.024  58.561 -56.475  1.00  0.00     0.030 A 
HETATM   17  C   UNL     1     -44.125  57.567 -55.493  1.00  0.00     0.044 A 
BRANCH  17  18
HETATM   18  N   UNL     1     -44.766  57.810 -54.264  1.00  0.00    -0.308 N 
HETATM   19  C   UNL     1     -44.266  58.028 -53.008  1.00  0.00     0.325 C 
HETATM   20  N   UNL     1     -42.966  58.457 -52.949  1.00  0.00    -0.306 N 
HETATM   21  O   UNL     1     -45.024  57.936 -52.044  1.00  0.00    -0.247 OA
HETATM   22  H   UNL     1     -42.514  58.694 -53.819  1.00  0.00     0.171 HD
HETATM   23  H   UNL     1     -45.784  57.794 -54.280  1.00  0.00     0.170 HD
BRANCH  20  24
HETATM   24  C   UNL     1     -42.317  58.826 -51.788  1.00  0.00     0.072 A 
HETATM   25  C   UNL     1     -42.158  60.080 -51.159  1.00  0.00     0.169 A 
HETATM   26  N   UNL     1     -41.428  59.998 -50.040  1.00  0.00    -0.185 NA
HETATM   27  N   UNL     1     -41.123  58.694 -49.959  1.00  0.00    -0.287 N 
HETATM   28  H   UNL     1     -40.551  58.385 -49.179  1.00  0.00     0.188 HD
HETATM   29  C   UNL     1     -41.641  57.946 -50.977  1.00  0.00     0.140 A 
ENDBRANCH  20  24
ENDBRANCH  17  18
ENDBRANCH  11  12
ENDBRANCH  10  11
ENDBRANCH   7  10
ENDBRANCH   1   4
TORSDOF 6
ENDMDL
MODEL 7
REMARK VINA RESULT:      -7.0      1.869      2.180
REMARK  6 active torsions:
REMARK  status: ('A' for Active; 'I' for Inactive)
REMARK    1  A    between atoms: C_3  and  C_4 
REMARK    2  A    between atoms: C_4  and  O_5 
REMARK    3  A    between atoms: O_5  and  C_6 
REMARK    4  A    between atoms: C_9  and  C_10 
REMARK    5  A    between atoms: C_15  and  N_16 
REMARK       I    between atoms: N_16  and  C_17 
REMARK       I    between atoms: C_17  and  N_18 
REMARK    6  A    between atoms: N_18  and  C_19 
ROOT
HETATM    1  C   UNL     1     -39.960  50.895 -54.360  1.00  0.00     0.147 C 
HETATM    2  C   UNL     1     -39.756  50.051 -53.112  1.00  0.00    -0.016 C 
HETATM    3  N   UNL     1     -39.587  49.351 -52.078  1.00  0.00    -0.101 N 
ENDROOT
BRANCH   1   4
HETATM    4  C   UNL     1     -40.213  52.340 -54.002  1.00  0.00    -0.046 A 
HETATM    5  C   UNL     1     -40.544  52.701 -52.686  1.00  0.00     0.011 A 
HETATM    6  C   UNL     1     -40.847  54.026 -52.371  1.00  0.00     0.037 A 
HETATM    7  C   UNL     1     -40.807  55.000 -53.363  1.00  0.00     0.069 A 
HETATM    8  C   UNL     1     -40.507  54.656 -54.680  1.00  0.00     0.037 A 
HETATM    9  C   UNL     1     -40.203  53.330 -54.997  1.00  0.00     0.011 A 
BRANCH   7  10
HETATM   10  O   UNL     1     -41.173  56.275 -53.029  1.00  0.00    -0.347 OA
BRANCH  10  11
HETATM   11  C   UNL     1     -41.523  56.368 -51.642  1.00  0.00     0.216 C 
BRANCH  11  12
HETATM   12  C   UNL     1     -41.180  57.751 -51.126  1.00  0.00    -0.007 A 
HETATM   13  C   UNL     1     -39.826  58.120 -51.027  1.00  0.00     0.011 A 
HETATM   14  C   UNL     1     -39.463  59.408 -50.637  1.00  0.00     0.001 A 
HETATM   15  C   UNL     1     -40.446  60.346 -50.340  1.00  0.00     0.002 A 
HETATM   16  C   UNL     1     -41.795  60.001 -50.444  1.00  0.00     0.030 A 
HETATM   17  C   UNL     1     -42.172  58.715 -50.851  1.00  0.00     0.044 A 
BRANCH  17  18
HETATM   18  N   UNL     1     -43.525  58.334 -50.921  1.00  0.00    -0.308 N 
HETATM   19  C   UNL     1     -44.458  58.481 -51.913  1.00  0.00     0.325 C 
HETATM   20  N   UNL     1     -43.962  58.675 -53.176  1.00  0.00    -0.306 N 
HETATM   21  O   UNL     1     -45.645  58.323 -51.638  1.00  0.00    -0.247 OA
HETATM   22  H   UNL     1     -42.965  58.579 -53.304  1.00  0.00     0.171 HD
HETATM   23  H   UNL     1     -43.911  57.899 -50.086  1.00  0.00     0.170 HD
BRANCH  20  24
HETATM   24  C   UNL     1     -44.735  58.743 -54.317  1.00  0.00     0.072 A 
HETATM   25  C   UNL     1     -45.175  57.746 -55.214  1.00  0.00     0.169 A 
HETATM   26  N   UNL     1     -45.901  58.251 -56.218  1.00  0.00    -0.185 NA
HETATM   27  N   UNL     1     -45.921  59.567 -55.962  1.00  0.00    -0.287 N 
HETATM   28  H   UNL     1     -46.414  60.173 -56.609  1.00  0.00     0.188 HD
HETATM   29  C   UNL     1     -45.245  59.914 -54.827  1.00  0.00     0.140 A 
ENDBRANCH  20  24
ENDBRANCH  17  18
ENDBRANCH  11  12
ENDBRANCH  10  11
ENDBRANCH   7  10
ENDBRANCH   1   4
TORSDOF 6
ENDMDL
MODEL 8
REMARK VINA RESULT:      -7.0      1.550      2.042
REMARK  6 active torsions:
REMARK  status: ('A' for Active; 'I' for Inactive)
REMARK    1  A    between atoms: C_3  and  C_4 
REMARK    2  A    between atoms: C_4  and  O_5 
REMARK    3  A    between atoms: O_5  and  C_6 
REMARK    4  A    between atoms: C_9  and  C_10 
REMARK    5  A    between atoms: C_15  and  N_16 
REMARK       I    between atoms: N_16  and  C_17 
REMARK       I    between atoms: C_17  and  N_18 
REMARK    6  A    between atoms: N_18  and  C_19 
ROOT
HETATM    1  C   UNL     1     -39.455  51.376 -53.204  1.00  0.00     0.147 C 
HETATM    2  C   UNL     1     -39.460  50.530 -51.941  1.00  0.00    -0.016 C 
HETATM    3  N   UNL     1     -39.464  49.828 -50.894  1.00  0.00    -0.101 N 
ENDROOT
BRANCH   1   4
HETATM    4  C   UNL     1     -40.460  52.499 -53.108  1.00  0.00    -0.046 A 
HETATM    5  C   UNL     1     -40.713  53.127 -51.878  1.00  0.00     0.011 A 
HETATM    6  C   UNL     1     -41.693  54.116 -51.777  1.00  0.00     0.037 A 
HETATM    7  C   UNL     1     -42.415  54.492 -52.904  1.00  0.00     0.069 A 
HETATM    8  C   UNL     1     -42.197  53.861 -54.127  1.00  0.00     0.037 A 
HETATM    9  C   UNL     1     -41.216  52.872 -54.230  1.00  0.00     0.011 A 
BRANCH   7  10
HETATM   10  O   UNL     1     -43.411  55.418 -52.751  1.00  0.00    -0.347 OA
BRANCH  10  11
HETATM   11  C   UNL     1     -43.413  55.964 -51.426  1.00  0.00     0.216 C 
BRANCH  11  12
HETATM   12  C   UNL     1     -43.966  57.375 -51.461  1.00  0.00    -0.007 A 
HETATM   13  C   UNL     1     -45.217  57.625 -50.868  1.00  0.00     0.011 A 
HETATM   14  C   UNL     1     -45.730  58.920 -50.802  1.00  0.00     0.001 A 
HETATM   15  C   UNL     1     -45.001  59.983 -51.326  1.00  0.00     0.002 A 
HETATM   16  C   UNL     1     -43.753  59.754 -51.907  1.00  0.00     0.030 A 
HETATM   17  C   UNL     1     -43.220  58.459 -51.965  1.00  0.00     0.044 A 
BRANCH  17  18
HETATM   18  N   UNL     1     -41.983  58.201 -52.584  1.00  0.00    -0.308 N 
HETATM   19  C   UNL     1     -41.672  57.775 -53.848  1.00  0.00     0.325 C 
HETATM   20  N   UNL     1     -42.636  57.979 -54.801  1.00  0.00    -0.306 N 
HETATM   21  O   UNL     1     -40.540  57.351 -54.069  1.00  0.00    -0.247 OA
HETATM   22  H   UNL     1     -43.442  58.526 -54.537  1.00  0.00     0.171 HD
HETATM   23  H   UNL     1     -41.158  58.311 -51.998  1.00  0.00     0.170 HD
BRANCH  20  24
HETATM   24  C   UNL     1     -42.475  57.713 -56.145  1.00  0.00     0.072 A 
HETATM   25  C   UNL     1     -42.175  58.554 -57.239  1.00  0.00     0.169 A 
HETATM   26  N   UNL     1     -42.127  57.883 -58.396  1.00  0.00    -0.185 NA
HETATM   27  N   UNL     1     -42.399  56.619 -58.039  1.00  0.00    -0.287 N 
HETATM   28  H   UNL     1     -42.431  55.913 -58.767  1.00  0.00     0.188 HD
HETATM   29  C   UNL     1     -42.604  56.461 -56.698  1.00  0.00     0.140 A 
ENDBRANCH  20  24
ENDBRANCH  17  18
ENDBRANCH  11  12
ENDBRANCH  10  11
ENDBRANCH   7  10
ENDBRANCH   1   4
TORSDOF 6
ENDMDL
MODEL 9
REMARK VINA RESULT:      -6.9      2.558      5.133
REMARK  6 active torsions:
REMARK  status: ('A' for Active; 'I' for Inactive)
REMARK    1  A    between atoms: C_3  and  C_4 
REMARK    2  A    between atoms: C_4  and  O_5 
REMARK    3  A    between atoms: O_5  and  C_6 
REMARK    4  A    between atoms: C_9  and  C_10 
REMARK    5  A    between atoms: C_15  and  N_16 
REMARK       I    between atoms: N_16  and  C_17 
REMARK       I    between atoms: C_17  and  N_18 
REMARK    6  A    between atoms: N_18  and  C_19 
ROOT
HETATM    1  C   UNL     1     -39.763  51.564 -52.661  1.00  0.00     0.147 C 
HETATM    2  C   UNL     1     -39.631  50.467 -53.705  1.00  0.00    -0.016 C 
HETATM    3  N   UNL     1     -39.522  49.557 -54.570  1.00  0.00    -0.101 N 
ENDROOT
BRANCH   1   4
HETATM    4  C   UNL     1     -40.344  52.820 -53.266  1.00  0.00    -0.046 A 
HETATM    5  C   UNL     1     -40.177  53.097 -54.632  1.00  0.00     0.011 A 
HETATM    6  C   UNL     1     -40.653  54.291 -55.175  1.00  0.00     0.037 A 
HETATM    7  C   UNL     1     -41.309  55.209 -54.361  1.00  0.00     0.069 A 
HETATM    8  C   UNL     1     -41.461  54.963 -52.998  1.00  0.00     0.037 A 
HETATM    9  C   UNL     1     -40.985  53.768 -52.453  1.00  0.00     0.011 A 
BRANCH   7  10
HETATM   10  O   UNL     1     -41.703  56.395 -54.917  1.00  0.00    -0.347 OA
BRANCH  10  11
HETATM   11  C   UNL     1     -42.958  56.260 -55.596  1.00  0.00     0.216 C 
BRANCH  11  12
HETATM   12  C   UNL     1     -42.781  56.606 -57.061  1.00  0.00    -0.007 A 
HETATM   13  C   UNL     1     -43.102  55.637 -58.028  1.00  0.00     0.011 A 
HETATM   14  C   UNL     1     -43.035  55.936 -59.388  1.00  0.00     0.001 A 
HETATM   15  C   UNL     1     -42.646  57.206 -59.802  1.00  0.00     0.002 A 
HETATM   16  C   UNL     1     -42.335  58.183 -58.855  1.00  0.00     0.030 A 
HETATM   17  C   UNL     1     -42.414  57.900 -57.485  1.00  0.00     0.044 A 
BRANCH  17  18
HETATM   18  N   UNL     1     -42.064  58.857 -56.515  1.00  0.00    -0.308 N 
HETATM   19  C   UNL     1     -42.822  59.755 -55.811  1.00  0.00     0.325 C 
HETATM   20  N   UNL     1     -44.159  59.465 -55.719  1.00  0.00    -0.306 N 
HETATM   21  O   UNL     1     -42.258  60.679 -55.229  1.00  0.00    -0.247 OA
HETATM   22  H   UNL     1     -44.465  58.568 -56.065  1.00  0.00     0.171 HD
HETATM   23  H   UNL     1     -41.071  58.939 -56.306  1.00  0.00     0.170 HD
BRANCH  20  24
HETATM   24  C   UNL     1     -45.065  60.189 -54.972  1.00  0.00     0.072 A 
HETATM   25  C   UNL     1     -45.392  60.152 -53.598  1.00  0.00     0.169 A 
HETATM   26  N   UNL     1     -46.358  61.023 -53.283  1.00  0.00    -0.185 NA
HETATM   27  N   UNL     1     -46.646  61.611 -54.454  1.00  0.00    -0.287 N 
HETATM   28  H   UNL     1     -47.375  62.316 -54.467  1.00  0.00     0.188 HD
HETATM   29  C   UNL     1     -45.891  61.154 -55.496  1.00  0.00     0.140 A 
ENDBRANCH  20  24
ENDBRANCH  17  18
ENDBRANCH  11  12
ENDBRANCH  10  11
ENDBRANCH   7  10
ENDBRANCH   1   4
TORSDOF 6
ENDMDL
MODEL 10
REMARK VINA RESULT:      -6.9      2.024      5.172
REMARK  6 active torsions:
REMARK  status: ('A' for Active; 'I' for Inactive)
REMARK    1  A    between atoms: C_3  and  C_4 
REMARK    2  A    between atoms: C_4  and  O_5 
REMARK    3  A    between atoms: O_5  and  C_6 
REMARK    4  A    between atoms: C_9  and  C_10 
REMARK    5  A    between atoms: C_15  and  N_16 
REMARK       I    between atoms: N_16  and  C_17 
REMARK       I    between atoms: C_17  and  N_18 
REMARK    6  A    between atoms: N_18  and  C_19 
ROOT
HETATM    1  C   UNL     1     -39.859  52.410 -53.493  1.00  0.00     0.147 C 
HETATM    2  C   UNL     1     -39.908  51.012 -54.090  1.00  0.00    -0.016 C 
HETATM    3  N   UNL     1     -39.948  49.854 -54.585  1.00  0.00    -0.101 N 
ENDROOT
BRANCH   1   4
HETATM    4  C   UNL     1     -40.753  53.357 -54.256  1.00  0.00    -0.046 A 
HETATM    5  C   UNL     1     -40.265  54.594 -54.704  1.00  0.00     0.011 A 
HETATM    6  C   UNL     1     -41.113  55.498 -55.347  1.00  0.00     0.037 A 
HETATM    7  C   UNL     1     -42.447  55.166 -55.559  1.00  0.00     0.069 A 
HETATM    8  C   UNL     1     -42.955  53.953 -55.099  1.00  0.00     0.037 A 
HETATM    9  C   UNL     1     -42.108  53.047 -54.455  1.00  0.00     0.011 A 
BRANCH   7  10
HETATM   10  O   UNL     1     -43.260  56.104 -56.135  1.00  0.00    -0.347 OA
BRANCH  10  11
HETATM   11  C   UNL     1     -42.729  56.553 -57.387  1.00  0.00     0.216 C 
BRANCH  11  12
HETATM   12  C   UNL     1     -43.425  57.835 -57.801  1.00  0.00    -0.007 A 
HETATM   13  C   UNL     1     -44.453  57.767 -58.759  1.00  0.00     0.011 A 
HETATM   14  C   UNL     1     -45.178  58.904 -59.110  1.00  0.00     0.001 A 
HETATM   15  C   UNL     1     -44.887  60.126 -58.511  1.00  0.00     0.002 A 
HETATM   16  C   UNL     1     -43.878  60.209 -57.550  1.00  0.00     0.030 A 
HETATM   17  C   UNL     1     -43.153  59.069 -57.177  1.00  0.00     0.044 A 
BRANCH  17  18
HETATM   18  N   UNL     1     -42.104  59.139 -56.242  1.00  0.00    -0.308 N 
HETATM   19  C   UNL     1     -42.097  59.031 -54.877  1.00  0.00     0.325 C 
HETATM   20  N   UNL     1     -43.172  58.386 -54.323  1.00  0.00    -0.306 N 
HETATM   21  O   UNL     1     -41.104  59.407 -54.257  1.00  0.00    -0.247 OA
HETATM   22  H   UNL     1     -43.821  57.939 -54.953  1.00  0.00     0.171 HD
HETATM   23  H   UNL     1     -41.180  59.338 -56.620  1.00  0.00     0.170 HD
BRANCH  20  24
HETATM   24  C   UNL     1     -43.299  58.088 -52.981  1.00  0.00     0.072 A 
HETATM   25  C   UNL     1     -43.050  56.903 -52.255  1.00  0.00     0.169 A 
HETATM   26  N   UNL     1     -43.327  57.040 -50.952  1.00  0.00    -0.185 NA
HETATM   27  N   UNL     1     -43.752  58.308 -50.852  1.00  0.00    -0.287 N 
HETATM   28  H   UNL     1     -44.037  58.645 -49.938  1.00  0.00     0.188 HD
HETATM   29  C   UNL     1     -43.745  58.983 -52.038  1.00  0.00     0.140 A 
ENDBRANCH  20  24
ENDBRANCH  17  18
ENDBRANCH  11  12
ENDBRANCH  10  11
ENDBRANCH   7  10
ENDBRANCH   1   4
TORSDOF 6
ENDMDL
