MODEL 1
REMARK VINA RESULT:      -9.4      0.000      0.000
REMARK  7 active torsions:
REMARK  status: ('A' for Active; 'I' for Inactive)
REMARK    1  A    between atoms: C_4  and  N_5 
REMARK    2  A    between atoms: N_8  and  C_10 
REMARK    3  A    between atoms: C_10  and  C_11 
REMARK    4  A    between atoms: C_11  and  C_12 
REMARK    5  A    between atoms: C_12  and  N_13 
REMARK       I    between atoms: N_13  and  C_14 
REMARK    6  A    between atoms: C_14  and  C_15 
REMARK    7  A    between atoms: C_21  and  C_22 
ROOT
HETATM    1  N   UNL     1     -44.702  60.088 -51.548  1.00  0.00    -0.357 N 
HETATM    2  C   UNL     1     -45.152  58.874 -51.069  1.00  0.00     0.251 C 
HETATM    3  O   UNL     1     -46.247  58.778 -50.515  1.00  0.00    -0.268 OA
HETATM    4  H   UNL     1     -43.844  60.145 -52.085  1.00  0.00     0.162 HD
ENDROOT
BRANCH   2   5
HETATM    5  C   UNL     1     -44.326  57.668 -51.371  1.00  0.00     0.034 A 
HETATM    6  C   UNL     1     -43.356  57.637 -52.381  1.00  0.00     0.048 A 
HETATM    7  C   UNL     1     -42.679  56.443 -52.681  1.00  0.00     0.053 A 
HETATM    8  C   UNL     1     -42.953  55.278 -51.968  1.00  0.00     0.032 A 
HETATM    9  N   UNL     1     -41.748  56.468 -53.720  1.00  0.00    -0.321 N 
HETATM   10  S   UNL     1     -42.202  53.720 -52.321  1.00  0.00    -0.083 SA
HETATM   11  C   UNL     1     -43.896  55.323 -50.934  1.00  0.00     0.022 A 
HETATM   12  C   UNL     1     -40.978  54.117 -53.471  1.00  0.00     0.074 C 
HETATM   13  C   UNL     1     -40.019  53.243 -53.838  1.00  0.00     0.036 C 
HETATM   14  C   UNL     1     -40.945  55.453 -54.149  1.00  0.00     0.263 C 
HETATM   15  O   UNL     1     -40.188  55.688 -55.093  1.00  0.00    -0.267 OA
HETATM   16  C   UNL     1     -44.576  56.506 -50.633  1.00  0.00     0.018 A 
HETATM   17  H   UNL     1     -41.592  57.324 -54.238  1.00  0.00     0.169 HD
BRANCH  13  18
HETATM   18  C   UNL     1     -39.846  51.883 -53.313  1.00  0.00    -0.035 A 
HETATM   19  C   UNL     1     -39.650  51.681 -51.943  1.00  0.00     0.011 A 
HETATM   20  C   UNL     1     -39.470  50.390 -51.444  1.00  0.00     0.001 A 
HETATM   21  C   UNL     1     -39.488  49.297 -52.310  1.00  0.00     0.000 A 
HETATM   22  C   UNL     1     -39.689  49.493 -53.676  1.00  0.00     0.001 A 
HETATM   23  C   UNL     1     -39.869  50.783 -54.177  1.00  0.00     0.011 A 
ENDBRANCH  13  18
ENDBRANCH   2   5
BRANCH   1  24
HETATM   24  C   UNL     1     -45.470  61.306 -51.395  1.00  0.00     0.124 C 
BRANCH  24  25
HETATM   25  C   UNL     1     -46.161  61.733 -52.689  1.00  0.00     0.047 C 
BRANCH  25  26
HETATM   26  C   UNL     1     -45.350  61.583 -53.978  1.00  0.00     0.236 C 
BRANCH  26  27
HETATM   27  N   UNL     1     -45.923  60.576 -54.946  1.00  0.00    -0.068 N 
HETATM   28  C   UNL     1     -45.914  61.076 -56.391  1.00  0.00     0.254 C 
HETATM   29  C   UNL     1     -46.302  59.984 -57.411  1.00  0.00     0.150 C 
HETATM   30  N   UNL     1     -45.474  58.792 -57.184  1.00  0.00    -0.377 N 
HETATM   31  C   UNL     1     -45.689  58.205 -55.850  1.00  0.00     0.150 C 
HETATM   32  C   UNL     1     -45.204  59.223 -54.797  1.00  0.00     0.254 C 
HETATM   33  H   UNL     1     -46.896  60.371 -54.639  1.00  0.00     0.280 HD
BRANCH  30  34
HETATM   34  C   UNL     1     -45.264  57.893 -58.237  1.00  0.00     0.036 A 
HETATM   35  C   UNL     1     -46.315  57.487 -59.082  1.00  0.00     0.036 A 
HETATM   36  C   UNL     1     -46.114  56.624 -60.171  1.00  0.00    -0.060 A 
HETATM   37  C   UNL     1     -47.240  56.272 -61.099  1.00  0.00     0.048 C 
HETATM   38  C   UNL     1     -44.832  56.140 -60.423  1.00  0.00     0.007 A 
HETATM   39  C   UNL     1     -43.773  56.520 -59.606  1.00  0.00     0.009 A 
HETATM   40  C   UNL     1     -43.966  57.413 -58.534  1.00  0.00    -0.035 A 
HETATM   41  C   UNL     1     -42.736  57.826 -57.767  1.00  0.00     0.050 C 
ENDBRANCH  30  34
ENDBRANCH  26  27
ENDBRANCH  25  26
ENDBRANCH  24  25
ENDBRANCH   1  24
TORSDOF 7
ENDMDL
MODEL 2
REMARK VINA RESULT:      -9.4      0.922      1.385
REMARK  7 active torsions:
REMARK  status: ('A' for Active; 'I' for Inactive)
REMARK    1  A    between atoms: C_4  and  N_5 
REMARK    2  A    between atoms: N_8  and  C_10 
REMARK    3  A    between atoms: C_10  and  C_11 
REMARK    4  A    between atoms: C_11  and  C_12 
REMARK    5  A    between atoms: C_12  and  N_13 
REMARK       I    between atoms: N_13  and  C_14 
REMARK    6  A    between atoms: C_14  and  C_15 
REMARK    7  A    between atoms: C_21  and  C_22 
ROOT
HETATM    1  N   UNL     1     -45.083  60.008 -51.885  1.00  0.00    -0.357 N 
HETATM    2  C   UNL     1     -45.352  58.870 -51.151  1.00  0.00     0.251 C 
HETATM    3  O   UNL     1     -46.328  58.814 -50.403  1.00  0.00    -0.268 OA
HETATM    4  H   UNL     1     -44.335  60.017 -52.568  1.00  0.00     0.162 HD
ENDROOT
BRANCH   2   5
HETATM    5  C   UNL     1     -44.499  57.672 -51.405  1.00  0.00     0.034 A 
HETATM    6  C   UNL     1     -43.531  57.621 -52.416  1.00  0.00     0.048 A 
HETATM    7  C   UNL     1     -42.827  56.432 -52.669  1.00  0.00     0.053 A 
HETATM    8  C   UNL     1     -43.071  55.292 -51.906  1.00  0.00     0.032 A 
HETATM    9  N   UNL     1     -41.899  56.435 -53.711  1.00  0.00    -0.321 N 
HETATM   10  S   UNL     1     -42.285  53.738 -52.196  1.00  0.00    -0.083 SA
HETATM   11  C   UNL     1     -44.013  55.358 -50.871  1.00  0.00     0.022 A 
HETATM   12  C   UNL     1     -41.074  54.115 -53.366  1.00  0.00     0.074 C 
HETATM   13  C   UNL     1     -40.095  53.249 -53.699  1.00  0.00     0.036 C 
HETATM   14  C   UNL     1     -41.074  55.421 -54.100  1.00  0.00     0.263 C 
HETATM   15  O   UNL     1     -40.326  55.634 -55.056  1.00  0.00    -0.267 OA
HETATM   16  C   UNL     1     -44.719  56.537 -50.618  1.00  0.00     0.018 A 
HETATM   17  H   UNL     1     -41.766  57.271 -54.266  1.00  0.00     0.169 HD
BRANCH  13  18
HETATM   18  C   UNL     1     -39.889  51.917 -53.118  1.00  0.00    -0.035 A 
HETATM   19  C   UNL     1     -39.887  50.786 -53.941  1.00  0.00     0.011 A 
HETATM   20  C   UNL     1     -39.706  49.518 -53.387  1.00  0.00     0.001 A 
HETATM   21  C   UNL     1     -39.524  49.374 -52.012  1.00  0.00     0.000 A 
HETATM   22  C   UNL     1     -39.519  50.499 -51.189  1.00  0.00     0.001 A 
HETATM   23  C   UNL     1     -39.700  51.769 -51.739  1.00  0.00     0.011 A 
ENDBRANCH  13  18
ENDBRANCH   2   5
BRANCH   1  24
HETATM   24  C   UNL     1     -45.905  61.196 -51.788  1.00  0.00     0.124 C 
BRANCH  24  25
HETATM   25  C   UNL     1     -46.719  61.454 -53.055  1.00  0.00     0.047 C 
BRANCH  25  26
HETATM   26  C   UNL     1     -45.924  61.760 -54.326  1.00  0.00     0.236 C 
BRANCH  26  27
HETATM   27  N   UNL     1     -45.960  60.652 -55.351  1.00  0.00    -0.068 N 
HETATM   28  C   UNL     1     -45.644  61.142 -56.763  1.00  0.00     0.254 C 
HETATM   29  C   UNL     1     -45.474  59.993 -57.779  1.00  0.00     0.150 C 
HETATM   30  N   UNL     1     -44.507  59.020 -57.253  1.00  0.00    -0.377 N 
HETATM   31  C   UNL     1     -44.963  58.398 -55.998  1.00  0.00     0.150 C 
HETATM   32  C   UNL     1     -45.037  59.497 -54.918  1.00  0.00     0.254 C 
HETATM   33  H   UNL     1     -46.910  60.230 -55.317  1.00  0.00     0.280 HD
BRANCH  30  34
HETATM   34  C   UNL     1     -43.811  58.194 -58.144  1.00  0.00     0.036 A 
HETATM   35  C   UNL     1     -44.355  56.978 -58.602  1.00  0.00     0.036 A 
HETATM   36  C   UNL     1     -43.693  56.161 -59.532  1.00  0.00    -0.060 A 
HETATM   37  C   UNL     1     -44.333  54.910 -60.058  1.00  0.00     0.048 C 
HETATM   38  C   UNL     1     -42.447  56.557 -60.014  1.00  0.00     0.007 A 
HETATM   39  C   UNL     1     -41.882  57.751 -59.581  1.00  0.00     0.009 A 
HETATM   40  C   UNL     1     -42.559  58.589 -58.675  1.00  0.00    -0.035 A 
HETATM   41  C   UNL     1     -41.895  59.899 -58.339  1.00  0.00     0.050 C 
ENDBRANCH  30  34
ENDBRANCH  26  27
ENDBRANCH  25  26
ENDBRANCH  24  25
ENDBRANCH   1  24
TORSDOF 7
ENDMDL
MODEL 3
REMARK VINA RESULT:      -9.1      4.352      8.891
REMARK  7 active torsions:
REMARK  status: ('A' for Active; 'I' for Inactive)
REMARK    1  A    between atoms: C_4  and  N_5 
REMARK    2  A    between atoms: N_8  and  C_10 
REMARK    3  A    between atoms: C_10  and  C_11 
REMARK    4  A    between atoms: C_11  and  C_12 
REMARK    5  A    between atoms: C_12  and  N_13 
REMARK       I    between atoms: N_13  and  C_14 
REMARK    6  A    between atoms: C_14  and  C_15 
REMARK    7  A    between atoms: C_21  and  C_22 
ROOT
HETATM    1  N   UNL     1     -45.812  62.067 -52.243  1.00  0.00    -0.357 N 
HETATM    2  C   UNL     1     -44.497  61.880 -51.866  1.00  0.00     0.251 C 
HETATM    3  O   UNL     1     -43.854  62.787 -51.339  1.00  0.00    -0.268 OA
HETATM    4  H   UNL     1     -46.365  61.292 -52.590  1.00  0.00     0.162 HD
ENDROOT
BRANCH   2   5
HETATM    5  C   UNL     1     -43.935  60.504 -51.997  1.00  0.00     0.034 A 
HETATM    6  C   UNL     1     -44.472  59.391 -51.338  1.00  0.00     0.048 A 
HETATM    7  C   UNL     1     -43.841  58.139 -51.424  1.00  0.00     0.053 A 
HETATM    8  C   UNL     1     -42.679  57.985 -52.177  1.00  0.00     0.032 A 
HETATM    9  N   UNL     1     -44.407  57.076 -50.719  1.00  0.00    -0.321 N 
HETATM   10  S   UNL     1     -41.782  56.469 -52.286  1.00  0.00    -0.083 SA
HETATM   11  C   UNL     1     -42.166  59.092 -52.865  1.00  0.00     0.022 A 
HETATM   12  C   UNL     1     -42.824  55.331 -51.512  1.00  0.00     0.074 C 
HETATM   13  C   UNL     1     -42.615  54.000 -51.575  1.00  0.00     0.036 C 
HETATM   14  C   UNL     1     -43.999  55.775 -50.695  1.00  0.00     0.263 C 
HETATM   15  O   UNL     1     -44.645  54.990 -49.998  1.00  0.00    -0.267 OA
HETATM   16  C   UNL     1     -42.787  60.341 -52.780  1.00  0.00     0.018 A 
HETATM   17  H   UNL     1     -45.235  57.227 -50.156  1.00  0.00     0.169 HD
BRANCH  13  18
HETATM   18  C   UNL     1     -41.537  53.330 -52.311  1.00  0.00    -0.035 A 
HETATM   19  C   UNL     1     -41.582  53.260 -53.707  1.00  0.00     0.011 A 
HETATM   20  C   UNL     1     -40.565  52.610 -54.409  1.00  0.00     0.001 A 
HETATM   21  C   UNL     1     -39.500  52.031 -53.719  1.00  0.00     0.000 A 
HETATM   22  C   UNL     1     -39.448  52.105 -52.328  1.00  0.00     0.001 A 
HETATM   23  C   UNL     1     -40.463  52.754 -51.624  1.00  0.00     0.011 A 
ENDBRANCH  13  18
ENDBRANCH   2   5
BRANCH   1  24
HETATM   24  C   UNL     1     -46.486  63.337 -52.071  1.00  0.00     0.124 C 
BRANCH  24  25
HETATM   25  C   UNL     1     -47.587  63.280 -51.012  1.00  0.00     0.047 C 
BRANCH  25  26
HETATM   26  C   UNL     1     -47.974  64.608 -50.358  1.00  0.00     0.236 C 
BRANCH  26  27
HETATM   27  N   UNL     1     -47.429  64.782 -48.961  1.00  0.00    -0.068 N 
HETATM   28  C   UNL     1     -48.104  63.862 -47.944  1.00  0.00     0.254 C 
HETATM   29  C   UNL     1     -47.419  63.882 -46.561  1.00  0.00     0.150 C 
HETATM   30  N   UNL     1     -45.981  63.634 -46.730  1.00  0.00    -0.377 N 
HETATM   31  C   UNL     1     -45.322  64.680 -47.532  1.00  0.00     0.150 C 
HETATM   32  C   UNL     1     -45.898  64.620 -48.962  1.00  0.00     0.254 C 
HETATM   33  H   UNL     1     -47.568  65.780 -48.697  1.00  0.00     0.280 HD
BRANCH  30  34
HETATM   34  C   UNL     1     -45.245  63.110 -45.661  1.00  0.00     0.036 A 
HETATM   35  C   UNL     1     -44.798  63.925 -44.602  1.00  0.00     0.036 A 
HETATM   36  C   UNL     1     -44.101  63.409 -43.498  1.00  0.00    -0.060 A 
HETATM   37  C   UNL     1     -43.705  64.290 -42.350  1.00  0.00     0.048 C 
HETATM   38  C   UNL     1     -43.830  62.043 -43.448  1.00  0.00     0.007 A 
HETATM   39  C   UNL     1     -44.255  61.212 -44.478  1.00  0.00     0.009 A 
HETATM   40  C   UNL     1     -44.985  61.721 -45.569  1.00  0.00    -0.035 A 
HETATM   41  C   UNL     1     -45.472  60.721 -46.584  1.00  0.00     0.050 C 
ENDBRANCH  30  34
ENDBRANCH  26  27
ENDBRANCH  25  26
ENDBRANCH  24  25
ENDBRANCH   1  24
TORSDOF 7
ENDMDL
MODEL 4
REMARK VINA RESULT:      -9.1      1.416      2.217
REMARK  7 active torsions:
REMARK  status: ('A' for Active; 'I' for Inactive)
REMARK    1  A    between atoms: C_4  and  N_5 
REMARK    2  A    between atoms: N_8  and  C_10 
REMARK    3  A    between atoms: C_10  and  C_11 
REMARK    4  A    between atoms: C_11  and  C_12 
REMARK    5  A    between atoms: C_12  and  N_13 
REMARK       I    between atoms: N_13  and  C_14 
REMARK    6  A    between atoms: C_14  and  C_15 
REMARK    7  A    between atoms: C_21  and  C_22 
ROOT
HETATM    1  N   UNL     1     -44.939  60.299 -51.655  1.00  0.00    -0.357 N 
HETATM    2  C   UNL     1     -45.403  59.075 -51.217  1.00  0.00     0.251 C 
HETATM    3  O   UNL     1     -46.507  58.970 -50.681  1.00  0.00    -0.268 OA
HETATM    4  H   UNL     1     -44.074  60.366 -52.178  1.00  0.00     0.162 HD
ENDROOT
BRANCH   2   5
HETATM    5  C   UNL     1     -44.581  57.873 -51.542  1.00  0.00     0.034 A 
HETATM    6  C   UNL     1     -43.878  57.727 -52.745  1.00  0.00     0.048 A 
HETATM    7  C   UNL     1     -43.199  56.532 -53.033  1.00  0.00     0.053 A 
HETATM    8  C   UNL     1     -43.205  55.480 -52.119  1.00  0.00     0.032 A 
HETATM    9  N   UNL     1     -42.545  56.436 -54.262  1.00  0.00    -0.321 N 
HETATM   10  S   UNL     1     -42.439  53.919 -52.426  1.00  0.00    -0.083 SA
HETATM   11  C   UNL     1     -43.877  55.643 -50.902  1.00  0.00     0.022 A 
HETATM   12  C   UNL     1     -41.557  54.186 -53.885  1.00  0.00     0.074 C 
HETATM   13  C   UNL     1     -40.646  53.307 -54.351  1.00  0.00     0.036 C 
HETATM   14  C   UNL     1     -41.790  55.401 -54.730  1.00  0.00     0.263 C 
HETATM   15  O   UNL     1     -41.299  55.520 -55.854  1.00  0.00    -0.267 OA
HETATM   16  C   UNL     1     -44.557  56.829 -50.611  1.00  0.00     0.018 A 
HETATM   17  H   UNL     1     -42.585  57.207 -54.917  1.00  0.00     0.169 HD
BRANCH  13  18
HETATM   18  C   UNL     1     -40.248  52.053 -53.701  1.00  0.00    -0.035 A 
HETATM   19  C   UNL     1     -39.858  52.054 -52.358  1.00  0.00     0.011 A 
HETATM   20  C   UNL     1     -39.464  50.864 -51.742  1.00  0.00     0.001 A 
HETATM   21  C   UNL     1     -39.460  49.671 -52.464  1.00  0.00     0.000 A 
HETATM   22  C   UNL     1     -39.855  49.665 -53.801  1.00  0.00     0.001 A 
HETATM   23  C   UNL     1     -40.249  50.852 -54.419  1.00  0.00     0.011 A 
ENDBRANCH  13  18
ENDBRANCH   2   5
BRANCH   1  24
HETATM   24  C   UNL     1     -45.702  61.517 -51.478  1.00  0.00     0.124 C 
BRANCH  24  25
HETATM   25  C   UNL     1     -45.256  62.634 -52.421  1.00  0.00     0.047 C 
BRANCH  25  26
HETATM   26  C   UNL     1     -43.752  62.751 -52.677  1.00  0.00     0.236 C 
BRANCH  26  27
HETATM   27  N   UNL     1     -43.327  62.279 -54.046  1.00  0.00    -0.068 N 
HETATM   28  C   UNL     1     -42.535  60.973 -54.001  1.00  0.00     0.254 C 
HETATM   29  C   UNL     1     -42.274  60.374 -55.400  1.00  0.00     0.150 C 
HETATM   30  N   UNL     1     -43.545  60.278 -56.130  1.00  0.00    -0.377 N 
HETATM   31  C   UNL     1     -44.165  61.596 -56.354  1.00  0.00     0.150 C 
HETATM   32  C   UNL     1     -44.548  62.184 -54.980  1.00  0.00     0.254 C 
HETATM   33  H   UNL     1     -42.754  63.037 -54.471  1.00  0.00     0.280 HD
BRANCH  30  34
HETATM   34  C   UNL     1     -43.673  59.343 -57.164  1.00  0.00     0.036 A 
HETATM   35  C   UNL     1     -42.796  59.337 -58.266  1.00  0.00     0.036 A 
HETATM   36  C   UNL     1     -42.879  58.378 -59.289  1.00  0.00    -0.060 A 
HETATM   37  C   UNL     1     -41.882  58.352 -60.410  1.00  0.00     0.048 C 
HETATM   38  C   UNL     1     -43.870  57.401 -59.220  1.00  0.00     0.007 A 
HETATM   39  C   UNL     1     -44.753  57.380 -58.146  1.00  0.00     0.009 A 
HETATM   40  C   UNL     1     -44.650  58.320 -57.103  1.00  0.00    -0.035 A 
HETATM   41  C   UNL     1     -45.600  58.154 -55.945  1.00  0.00     0.050 C 
ENDBRANCH  30  34
ENDBRANCH  26  27
ENDBRANCH  25  26
ENDBRANCH  24  25
ENDBRANCH   1  24
TORSDOF 7
ENDMDL
MODEL 5
REMARK VINA RESULT:      -9.0      1.643      1.929
REMARK  7 active torsions:
REMARK  status: ('A' for Active; 'I' for Inactive)
REMARK    1  A    between atoms: C_4  and  N_5 
REMARK    2  A    between atoms: N_8  and  C_10 
REMARK    3  A    between atoms: C_10  and  C_11 
REMARK    4  A    between atoms: C_11  and  C_12 
REMARK    5  A    between atoms: C_12  and  N_13 
REMARK       I    between atoms: N_13  and  C_14 
REMARK    6  A    between atoms: C_14  and  C_15 
REMARK    7  A    between atoms: C_21  and  C_22 
ROOT
HETATM    1  N   UNL     1     -43.957  60.525 -52.198  1.00  0.00    -0.357 N 
HETATM    2  C   UNL     1     -44.618  59.357 -51.873  1.00  0.00     0.251 C 
HETATM    3  O   UNL     1     -45.816  59.365 -51.588  1.00  0.00    -0.268 OA
HETATM    4  H   UNL     1     -42.997  60.501 -52.522  1.00  0.00     0.162 HD
ENDROOT
BRANCH   2   5
HETATM    5  C   UNL     1     -43.863  58.078 -52.013  1.00  0.00     0.034 A 
HETATM    6  C   UNL     1     -42.962  57.610 -51.048  1.00  0.00     0.048 A 
HETATM    7  C   UNL     1     -42.209  56.448 -51.280  1.00  0.00     0.053 A 
HETATM    8  C   UNL     1     -42.358  55.737 -52.469  1.00  0.00     0.032 A 
HETATM    9  N   UNL     1     -41.305  56.051 -50.295  1.00  0.00    -0.321 N 
HETATM   10  S   UNL     1     -41.406  54.307 -52.876  1.00  0.00    -0.083 SA
HETATM   11  C   UNL     1     -43.287  56.187 -53.416  1.00  0.00     0.022 A 
HETATM   12  C   UNL     1     -40.566  53.956 -51.410  1.00  0.00     0.074 C 
HETATM   13  C   UNL     1     -39.895  52.801 -51.220  1.00  0.00     0.036 C 
HETATM   14  C   UNL     1     -40.512  54.941 -50.282  1.00  0.00     0.263 C 
HETATM   15  O   UNL     1     -39.777  54.779 -49.307  1.00  0.00    -0.267 OA
HETATM   16  C   UNL     1     -44.037  57.345 -53.191  1.00  0.00     0.018 A 
HETATM   17  H   UNL     1     -41.198  56.606 -49.455  1.00  0.00     0.169 HD
BRANCH  13  18
HETATM   18  C   UNL     1     -39.805  51.689 -52.174  1.00  0.00    -0.035 A 
HETATM   19  C   UNL     1     -39.618  50.383 -51.710  1.00  0.00     0.011 A 
HETATM   20  C   UNL     1     -39.518  49.326 -52.617  1.00  0.00     0.001 A 
HETATM   21  C   UNL     1     -39.605  49.570 -53.987  1.00  0.00     0.000 A 
HETATM   22  C   UNL     1     -39.798  50.870 -54.453  1.00  0.00     0.001 A 
HETATM   23  C   UNL     1     -39.899  51.928 -53.549  1.00  0.00     0.011 A 
ENDBRANCH  13  18
ENDBRANCH   2   5
BRANCH   1  24
HETATM   24  C   UNL     1     -44.622  61.811 -52.189  1.00  0.00     0.124 C 
BRANCH  24  25
HETATM   25  C   UNL     1     -45.035  62.270 -53.586  1.00  0.00     0.047 C 
BRANCH  25  26
HETATM   26  C   UNL     1     -44.026  62.029 -54.711  1.00  0.00     0.236 C 
BRANCH  26  27
HETATM   27  N   UNL     1     -44.603  61.305 -55.903  1.00  0.00    -0.068 N 
HETATM   28  C   UNL     1     -43.557  61.014 -56.979  1.00  0.00     0.254 C 
HETATM   29  C   UNL     1     -44.086  60.098 -58.104  1.00  0.00     0.150 C 
HETATM   30  N   UNL     1     -44.683  58.895 -57.509  1.00  0.00    -0.377 N 
HETATM   31  C   UNL     1     -45.842  59.209 -56.653  1.00  0.00     0.150 C 
HETATM   32  C   UNL     1     -45.337  60.031 -55.449  1.00  0.00     0.254 C 
HETATM   33  H   UNL     1     -45.364  61.901 -56.288  1.00  0.00     0.280 HD
BRANCH  30  34
HETATM   34  C   UNL     1     -44.766  57.722 -58.269  1.00  0.00     0.036 A 
HETATM   35  C   UNL     1     -45.800  57.520 -59.203  1.00  0.00     0.036 A 
HETATM   36  C   UNL     1     -45.873  56.372 -60.009  1.00  0.00    -0.060 A 
HETATM   37  C   UNL     1     -46.944  56.221 -61.049  1.00  0.00     0.048 C 
HETATM   38  C   UNL     1     -44.894  55.389 -59.875  1.00  0.00     0.007 A 
HETATM   39  C   UNL     1     -43.861  55.557 -58.960  1.00  0.00     0.009 A 
HETATM   40  C   UNL     1     -43.767  56.723 -58.176  1.00  0.00    -0.035 A 
HETATM   41  C   UNL     1     -42.561  56.842 -57.281  1.00  0.00     0.050 C 
ENDBRANCH  30  34
ENDBRANCH  26  27
ENDBRANCH  25  26
ENDBRANCH  24  25
ENDBRANCH   1  24
TORSDOF 7
ENDMDL
MODEL 6
REMARK VINA RESULT:      -8.9      1.760      2.120
REMARK  7 active torsions:
REMARK  status: ('A' for Active; 'I' for Inactive)
REMARK    1  A    between atoms: C_4  and  N_5 
REMARK    2  A    between atoms: N_8  and  C_10 
REMARK    3  A    between atoms: C_10  and  C_11 
REMARK    4  A    between atoms: C_11  and  C_12 
REMARK    5  A    between atoms: C_12  and  N_13 
REMARK       I    between atoms: N_13  and  C_14 
REMARK    6  A    between atoms: C_14  and  C_15 
REMARK    7  A    between atoms: C_21  and  C_22 
ROOT
HETATM    1  N   UNL     1     -42.934  61.214 -53.071  1.00  0.00    -0.357 N 
HETATM    2  C   UNL     1     -42.462  60.529 -51.969  1.00  0.00     0.251 C 
HETATM    3  O   UNL     1     -42.458  61.049 -50.853  1.00  0.00    -0.268 OA
HETATM    4  H   UNL     1     -43.022  60.751 -53.967  1.00  0.00     0.162 HD
ENDROOT
BRANCH   2   5
HETATM    5  C   UNL     1     -42.089  59.097 -52.159  1.00  0.00     0.034 A 
HETATM    6  C   UNL     1     -42.105  58.460 -53.406  1.00  0.00     0.048 A 
HETATM    7  C   UNL     1     -41.837  57.085 -53.507  1.00  0.00     0.053 A 
HETATM    8  C   UNL     1     -41.536  56.339 -52.369  1.00  0.00     0.032 A 
HETATM    9  N   UNL     1     -41.901  56.501 -54.773  1.00  0.00    -0.321 N 
HETATM   10  S   UNL     1     -41.254  54.597 -52.391  1.00  0.00    -0.083 SA
HETATM   11  C   UNL     1     -41.483  56.988 -51.128  1.00  0.00     0.022 A 
HETATM   12  C   UNL     1     -41.185  54.224 -54.075  1.00  0.00     0.074 C 
HETATM   13  C   UNL     1     -40.761  53.030 -54.535  1.00  0.00     0.036 C 
HETATM   14  C   UNL     1     -41.633  55.208 -55.113  1.00  0.00     0.263 C 
HETATM   15  O   UNL     1     -41.754  54.897 -56.300  1.00  0.00    -0.267 OA
HETATM   16  C   UNL     1     -41.754  58.355 -51.022  1.00  0.00     0.018 A 
HETATM   17  H   UNL     1     -42.151  57.064 -55.576  1.00  0.00     0.169 HD
BRANCH  13  18
HETATM   18  C   UNL     1     -40.275  51.914 -53.715  1.00  0.00    -0.035 A 
HETATM   19  C   UNL     1     -40.166  50.634 -54.268  1.00  0.00     0.011 A 
HETATM   20  C   UNL     1     -39.718  49.569 -53.485  1.00  0.00     0.001 A 
HETATM   21  C   UNL     1     -39.375  49.778 -52.150  1.00  0.00     0.000 A 
HETATM   22  C   UNL     1     -39.475  51.054 -51.597  1.00  0.00     0.001 A 
HETATM   23  C   UNL     1     -39.923  52.121 -52.377  1.00  0.00     0.011 A 
ENDBRANCH  13  18
ENDBRANCH   2   5
BRANCH   1  24
HETATM   24  C   UNL     1     -43.411  62.578 -52.980  1.00  0.00     0.124 C 
BRANCH  24  25
HETATM   25  C   UNL     1     -44.727  62.791 -53.727  1.00  0.00     0.047 C 
BRANCH  25  26
HETATM   26  C   UNL     1     -45.768  61.676 -53.609  1.00  0.00     0.236 C 
BRANCH  26  27
HETATM   27  N   UNL     1     -45.845  60.783 -54.824  1.00  0.00    -0.068 N 
HETATM   28  C   UNL     1     -45.173  61.396 -56.052  1.00  0.00     0.254 C 
HETATM   29  C   UNL     1     -45.064  60.412 -57.236  1.00  0.00     0.150 C 
HETATM   30  N   UNL     1     -44.441  59.165 -56.774  1.00  0.00    -0.377 N 
HETATM   31  C   UNL     1     -45.246  58.483 -55.744  1.00  0.00     0.150 C 
HETATM   32  C   UNL     1     -45.286  59.387 -54.494  1.00  0.00     0.254 C 
HETATM   33  H   UNL     1     -46.853  60.603 -55.012  1.00  0.00     0.280 HD
BRANCH  30  34
HETATM   34  C   UNL     1     -43.782  58.344 -57.697  1.00  0.00     0.036 A 
HETATM   35  C   UNL     1     -44.392  57.189 -58.225  1.00  0.00     0.036 A 
HETATM   36  C   UNL     1     -43.765  56.381 -59.188  1.00  0.00    -0.060 A 
HETATM   37  C   UNL     1     -44.473  55.201 -59.788  1.00  0.00     0.048 C 
HETATM   38  C   UNL     1     -42.489  56.723 -59.631  1.00  0.00     0.007 A 
HETATM   39  C   UNL     1     -41.859  57.855 -59.127  1.00  0.00     0.009 A 
HETATM   40  C   UNL     1     -42.499  58.686 -58.188  1.00  0.00    -0.035 A 
HETATM   41  C   UNL     1     -41.762  59.933 -57.774  1.00  0.00     0.050 C 
ENDBRANCH  30  34
ENDBRANCH  26  27
ENDBRANCH  25  26
ENDBRANCH  24  25
ENDBRANCH   1  24
TORSDOF 7
ENDMDL
MODEL 7
REMARK VINA RESULT:      -8.8      4.178      8.569
REMARK  7 active torsions:
REMARK  status: ('A' for Active; 'I' for Inactive)
REMARK    1  A    between atoms: C_4  and  N_5 
REMARK    2  A    between atoms: N_8  and  C_10 
REMARK    3  A    between atoms: C_10  and  C_11 
REMARK    4  A    between atoms: C_11  and  C_12 
REMARK    5  A    between atoms: C_12  and  N_13 
REMARK       I    between atoms: N_13  and  C_14 
REMARK    6  A    between atoms: C_14  and  C_15 
REMARK    7  A    between atoms: C_21  and  C_22 
ROOT
HETATM    1  N   UNL     1     -46.705  60.844 -52.656  1.00  0.00    -0.357 N 
HETATM    2  C   UNL     1     -45.656  60.718 -53.546  1.00  0.00     0.251 C 
HETATM    3  O   UNL     1     -45.320  61.659 -54.265  1.00  0.00    -0.268 OA
HETATM    4  H   UNL     1     -46.918  60.100 -52.002  1.00  0.00     0.162 HD
ENDROOT
BRANCH   2   5
HETATM    5  C   UNL     1     -44.866  59.453 -53.501  1.00  0.00     0.034 A 
HETATM    6  C   UNL     1     -44.612  58.668 -54.633  1.00  0.00     0.048 A 
HETATM    7  C   UNL     1     -43.944  57.439 -54.512  1.00  0.00     0.053 A 
HETATM    8  C   UNL     1     -43.512  56.990 -53.266  1.00  0.00     0.032 A 
HETATM    9  N   UNL     1     -43.750  56.687 -55.672  1.00  0.00    -0.321 N 
HETATM   10  S   UNL     1     -42.727  55.430 -53.009  1.00  0.00    -0.083 SA
HETATM   11  C   UNL     1     -43.734  57.796 -52.142  1.00  0.00     0.022 A 
HETATM   12  C   UNL     1     -42.442  54.858 -54.612  1.00  0.00     0.074 C 
HETATM   13  C   UNL     1     -41.656  53.793 -54.871  1.00  0.00     0.036 C 
HETATM   14  C   UNL     1     -43.091  55.500 -55.800  1.00  0.00     0.263 C 
HETATM   15  O   UNL     1     -43.037  55.000 -56.925  1.00  0.00    -0.267 OA
HETATM   16  C   UNL     1     -44.402  59.018 -52.256  1.00  0.00     0.018 A 
HETATM   17  H   UNL     1     -44.102  57.027 -56.558  1.00  0.00     0.169 HD
BRANCH  13  18
HETATM   18  C   UNL     1     -40.916  53.006 -53.877  1.00  0.00    -0.035 A 
HETATM   19  C   UNL     1     -40.744  53.500 -52.580  1.00  0.00     0.011 A 
HETATM   20  C   UNL     1     -40.028  52.760 -51.638  1.00  0.00     0.001 A 
HETATM   21  C   UNL     1     -39.483  51.525 -51.987  1.00  0.00     0.000 A 
HETATM   22  C   UNL     1     -39.658  51.025 -53.277  1.00  0.00     0.001 A 
HETATM   23  C   UNL     1     -40.374  51.763 -54.221  1.00  0.00     0.011 A 
ENDBRANCH  13  18
ENDBRANCH   2   5
BRANCH   1  24
HETATM   24  C   UNL     1     -47.478  62.063 -52.549  1.00  0.00     0.124 C 
BRANCH  24  25
HETATM   25  C   UNL     1     -46.863  63.066 -51.573  1.00  0.00     0.047 C 
BRANCH  25  26
HETATM   26  C   UNL     1     -47.838  63.974 -50.821  1.00  0.00     0.236 C 
BRANCH  26  27
HETATM   27  N   UNL     1     -47.400  64.310 -49.416  1.00  0.00    -0.068 N 
HETATM   28  C   UNL     1     -48.070  63.428 -48.363  1.00  0.00     0.254 C 
HETATM   29  C   UNL     1     -47.480  63.620 -46.949  1.00  0.00     0.150 C 
HETATM   30  N   UNL     1     -46.019  63.475 -47.010  1.00  0.00    -0.377 N 
HETATM   31  C   UNL     1     -45.389  64.499 -47.863  1.00  0.00     0.150 C 
HETATM   32  C   UNL     1     -45.864  64.271 -49.313  1.00  0.00     0.254 C 
HETATM   33  H   UNL     1     -47.630  65.311 -49.252  1.00  0.00     0.280 HD
BRANCH  30  34
HETATM   34  C   UNL     1     -45.318  63.104 -45.857  1.00  0.00     0.036 A 
HETATM   35  C   UNL     1     -44.942  64.052 -44.884  1.00  0.00     0.036 A 
HETATM   36  C   UNL     1     -44.281  63.692 -43.699  1.00  0.00    -0.060 A 
HETATM   37  C   UNL     1     -43.963  64.715 -42.648  1.00  0.00     0.048 C 
HETATM   38  C   UNL     1     -43.974  62.351 -43.476  1.00  0.00     0.007 A 
HETATM   39  C   UNL     1     -44.329  61.392 -44.417  1.00  0.00     0.009 A 
HETATM   40  C   UNL     1     -45.023  61.746 -45.590  1.00  0.00    -0.035 A 
HETATM   41  C   UNL     1     -45.436  60.617 -46.499  1.00  0.00     0.050 C 
ENDBRANCH  30  34
ENDBRANCH  26  27
ENDBRANCH  25  26
ENDBRANCH  24  25
ENDBRANCH   1  24
TORSDOF 7
ENDMDL
MODEL 8
REMARK VINA RESULT:      -8.7      2.230      2.848
REMARK  7 active torsions:
REMARK  status: ('A' for Active; 'I' for Inactive)
REMARK    1  A    between atoms: C_4  and  N_5 
REMARK    2  A    between atoms: N_8  and  C_10 
REMARK    3  A    between atoms: C_10  and  C_11 
REMARK    4  A    between atoms: C_11  and  C_12 
REMARK    5  A    between atoms: C_12  and  N_13 
REMARK       I    between atoms: N_13  and  C_14 
REMARK    6  A    between atoms: C_14  and  C_15 
REMARK    7  A    between atoms: C_21  and  C_22 
ROOT
HETATM    1  N   UNL     1     -42.883  62.181 -54.336  1.00  0.00    -0.357 N 
HETATM    2  C   UNL     1     -42.885  61.558 -53.104  1.00  0.00     0.251 C 
HETATM    3  O   UNL     1     -43.308  62.136 -52.103  1.00  0.00    -0.268 OA
HETATM    4  H   UNL     1     -42.622  61.671 -55.172  1.00  0.00     0.162 HD
ENDROOT
BRANCH   2   5
HETATM    5  C   UNL     1     -42.487  60.121 -53.060  1.00  0.00     0.034 A 
HETATM    6  C   UNL     1     -42.424  59.379 -51.874  1.00  0.00     0.048 A 
HETATM    7  C   UNL     1     -41.950  58.057 -51.884  1.00  0.00     0.053 A 
HETATM    8  C   UNL     1     -41.548  57.461 -53.078  1.00  0.00     0.032 A 
HETATM    9  N   UNL     1     -41.880  57.381 -50.666  1.00  0.00    -0.321 N 
HETATM   10  S   UNL     1     -40.875  55.832 -53.177  1.00  0.00    -0.083 SA
HETATM   11  C   UNL     1     -41.648  58.194 -54.268  1.00  0.00     0.022 A 
HETATM   12  C   UNL     1     -41.120  55.202 -51.589  1.00  0.00     0.074 C 
HETATM   13  C   UNL     1     -40.949  53.897 -51.294  1.00  0.00     0.036 C 
HETATM   14  C   UNL     1     -41.503  56.090 -50.444  1.00  0.00     0.263 C 
HETATM   15  O   UNL     1     -41.511  55.688 -49.279  1.00  0.00    -0.267 OA
HETATM   16  C   UNL     1     -42.115  59.511 -54.263  1.00  0.00     0.018 A 
HETATM   17  H   UNL     1     -42.152  57.852 -49.811  1.00  0.00     0.169 HD
BRANCH  13  18
HETATM   18  C   UNL     1     -40.580  52.840 -52.244  1.00  0.00    -0.035 A 
HETATM   19  C   UNL     1     -39.668  51.849 -51.868  1.00  0.00     0.011 A 
HETATM   20  C   UNL     1     -39.304  50.852 -52.775  1.00  0.00     0.001 A 
HETATM   21  C   UNL     1     -39.851  50.841 -54.058  1.00  0.00     0.000 A 
HETATM   22  C   UNL     1     -40.765  51.824 -54.435  1.00  0.00     0.001 A 
HETATM   23  C   UNL     1     -41.131  52.821 -53.530  1.00  0.00     0.011 A 
ENDBRANCH  13  18
ENDBRANCH   2   5
BRANCH   1  24
HETATM   24  C   UNL     1     -43.340  63.544 -54.508  1.00  0.00     0.124 C 
BRANCH  24  25
HETATM   25  C   UNL     1     -44.588  63.639 -55.385  1.00  0.00     0.047 C 
BRANCH  25  26
HETATM   26  C   UNL     1     -45.732  62.679 -55.052  1.00  0.00     0.236 C 
BRANCH  26  27
HETATM   27  N   UNL     1     -45.913  61.571 -56.060  1.00  0.00    -0.068 N 
HETATM   28  C   UNL     1     -45.163  61.833 -57.366  1.00  0.00     0.254 C 
HETATM   29  C   UNL     1     -45.170  60.620 -58.322  1.00  0.00     0.150 C 
HETATM   30  N   UNL     1     -44.710  59.429 -57.596  1.00  0.00    -0.377 N 
HETATM   31  C   UNL     1     -45.599  59.077 -56.475  1.00  0.00     0.150 C 
HETATM   32  C   UNL     1     -45.534  60.216 -55.436  1.00  0.00     0.254 C 
HETATM   33  H   UNL     1     -46.934  61.480 -56.240  1.00  0.00     0.280 HD
BRANCH  30  34
HETATM   34  C   UNL     1     -44.153  58.363 -58.312  1.00  0.00     0.036 A 
HETATM   35  C   UNL     1     -44.957  57.360 -58.887  1.00  0.00     0.036 A 
HETATM   36  C   UNL     1     -44.420  56.309 -59.648  1.00  0.00    -0.060 A 
HETATM   37  C   UNL     1     -45.310  55.299 -60.312  1.00  0.00     0.048 C 
HETATM   38  C   UNL     1     -43.041  56.246 -59.836  1.00  0.00     0.007 A 
HETATM   39  C   UNL     1     -42.219  57.220 -59.279  1.00  0.00     0.009 A 
HETATM   40  C   UNL     1     -42.758  58.293 -58.545  1.00  0.00    -0.035 A 
HETATM   41  C   UNL     1     -41.786  59.338 -58.061  1.00  0.00     0.050 C 
ENDBRANCH  30  34
ENDBRANCH  26  27
ENDBRANCH  25  26
ENDBRANCH  24  25
ENDBRANCH   1  24
TORSDOF 7
ENDMDL
MODEL 9
REMARK VINA RESULT:      -8.7      3.766      5.520
REMARK  7 active torsions:
REMARK  status: ('A' for Active; 'I' for Inactive)
REMARK    1  A    between atoms: C_4  and  N_5 
REMARK    2  A    between atoms: N_8  and  C_10 
REMARK    3  A    between atoms: C_10  and  C_11 
REMARK    4  A    between atoms: C_11  and  C_12 
REMARK    5  A    between atoms: C_12  and  N_13 
REMARK       I    between atoms: N_13  and  C_14 
REMARK    6  A    between atoms: C_14  and  C_15 
REMARK    7  A    between atoms: C_21  and  C_22 
ROOT
HETATM    1  N   UNL     1     -45.711  58.495 -57.533  1.00  0.00    -0.357 N 
HETATM    2  C   UNL     1     -44.510  58.770 -56.911  1.00  0.00     0.251 C 
HETATM    3  O   UNL     1     -44.107  59.928 -56.794  1.00  0.00    -0.268 OA
HETATM    4  H   UNL     1     -46.083  57.553 -57.543  1.00  0.00     0.162 HD
ENDROOT
BRANCH   2   5
HETATM    5  C   UNL     1     -43.793  57.630 -56.268  1.00  0.00     0.034 A 
HETATM    6  C   UNL     1     -43.308  57.673 -54.955  1.00  0.00     0.048 A 
HETATM    7  C   UNL     1     -42.556  56.604 -54.438  1.00  0.00     0.053 A 
HETATM    8  C   UNL     1     -42.297  55.481 -55.220  1.00  0.00     0.032 A 
HETATM    9  N   UNL     1     -42.073  56.721 -53.134  1.00  0.00    -0.321 N 
HETATM   10  S   UNL     1     -41.306  54.124 -54.679  1.00  0.00    -0.083 SA
HETATM   11  C   UNL     1     -42.816  55.426 -56.520  1.00  0.00     0.022 A 
HETATM   12  C   UNL     1     -41.051  54.458 -53.005  1.00  0.00     0.074 C 
HETATM   13  C   UNL     1     -40.526  53.549 -52.158  1.00  0.00     0.036 C 
HETATM   14  C   UNL     1     -41.371  55.798 -52.416  1.00  0.00     0.263 C 
HETATM   15  O   UNL     1     -41.034  56.106 -51.271  1.00  0.00    -0.267 OA
HETATM   16  C   UNL     1     -43.560  56.488 -57.041  1.00  0.00     0.018 A 
HETATM   17  H   UNL     1     -42.254  57.562 -52.601  1.00  0.00     0.169 HD
BRANCH  13  18
HETATM   18  C   UNL     1     -40.139  52.175 -52.500  1.00  0.00    -0.035 A 
HETATM   19  C   UNL     1     -40.117  51.766 -53.837  1.00  0.00     0.011 A 
HETATM   20  C   UNL     1     -39.763  50.456 -54.163  1.00  0.00     0.001 A 
HETATM   21  C   UNL     1     -39.429  49.551 -53.156  1.00  0.00     0.000 A 
HETATM   22  C   UNL     1     -39.442  49.956 -51.822  1.00  0.00     0.001 A 
HETATM   23  C   UNL     1     -39.796  51.266 -51.494  1.00  0.00     0.011 A 
ENDBRANCH  13  18
ENDBRANCH   2   5
BRANCH   1  24
HETATM   24  C   UNL     1     -46.535  59.539 -58.106  1.00  0.00     0.124 C 
BRANCH  24  25
HETATM   25  C   UNL     1     -46.705  59.391 -59.617  1.00  0.00     0.047 C 
BRANCH  25  26
HETATM   26  C   UNL     1     -45.744  58.432 -60.322  1.00  0.00     0.236 C 
BRANCH  26  27
HETATM   27  N   UNL     1     -44.580  59.119 -60.995  1.00  0.00    -0.068 N 
HETATM   28  C   UNL     1     -44.750  60.636 -61.065  1.00  0.00     0.254 C 
HETATM   29  C   UNL     1     -43.483  61.365 -61.561  1.00  0.00     0.150 C 
HETATM   30  N   UNL     1     -42.330  60.929 -60.762  1.00  0.00    -0.377 N 
HETATM   31  C   UNL     1     -42.060  59.488 -60.907  1.00  0.00     0.150 C 
HETATM   32  C   UNL     1     -43.258  58.716 -60.316  1.00  0.00     0.254 C 
HETATM   33  H   UNL     1     -44.495  58.718 -61.951  1.00  0.00     0.280 HD
BRANCH  30  34
HETATM   34  C   UNL     1     -41.213  61.767 -60.656  1.00  0.00     0.036 A 
HETATM   35  C   UNL     1     -40.588  62.312 -61.794  1.00  0.00     0.036 A 
HETATM   36  C   UNL     1     -39.497  63.192 -61.705  1.00  0.00    -0.060 A 
HETATM   37  C   UNL     1     -38.902  63.816 -62.933  1.00  0.00     0.048 C 
HETATM   38  C   UNL     1     -39.005  63.533 -60.447  1.00  0.00     0.007 A 
HETATM   39  C   UNL     1     -39.599  63.010 -59.303  1.00  0.00     0.009 A 
HETATM   40  C   UNL     1     -40.714  62.155 -59.389  1.00  0.00    -0.035 A 
HETATM   41  C   UNL     1     -41.333  61.717 -58.087  1.00  0.00     0.050 C 
ENDBRANCH  30  34
ENDBRANCH  26  27
ENDBRANCH  25  26
ENDBRANCH  24  25
ENDBRANCH   1  24
TORSDOF 7
ENDMDL
MODEL 10
REMARK VINA RESULT:      -8.5      2.452      3.675
REMARK  7 active torsions:
REMARK  status: ('A' for Active; 'I' for Inactive)
REMARK    1  A    between atoms: C_4  and  N_5 
REMARK    2  A    between atoms: N_8  and  C_10 
REMARK    3  A    between atoms: C_10  and  C_11 
REMARK    4  A    between atoms: C_11  and  C_12 
REMARK    5  A    between atoms: C_12  and  N_13 
REMARK       I    between atoms: N_13  and  C_14 
REMARK    6  A    between atoms: C_14  and  C_15 
REMARK    7  A    between atoms: C_21  and  C_22 
ROOT
HETATM    1  N   UNL     1     -44.757  62.512 -53.535  1.00  0.00    -0.357 N 
HETATM    2  C   UNL     1     -43.723  62.162 -52.690  1.00  0.00     0.251 C 
HETATM    3  O   UNL     1     -43.263  62.969 -51.882  1.00  0.00    -0.268 OA
HETATM    4  H   UNL     1     -45.194  61.819 -54.131  1.00  0.00     0.162 HD
ENDROOT
BRANCH   2   5
HETATM    5  C   UNL     1     -43.282  60.736 -52.699  1.00  0.00     0.034 A 
HETATM    6  C   UNL     1     -43.902  59.737 -51.937  1.00  0.00     0.048 A 
HETATM    7  C   UNL     1     -43.381  58.433 -51.914  1.00  0.00     0.053 A 
HETATM    8  C   UNL     1     -42.250  58.112 -52.660  1.00  0.00     0.032 A 
HETATM    9  N   UNL     1     -44.024  57.491 -51.110  1.00  0.00    -0.321 N 
HETATM   10  S   UNL     1     -41.487  56.520 -52.638  1.00  0.00    -0.083 SA
HETATM   11  C   UNL     1     -41.655  59.103 -53.450  1.00  0.00     0.022 A 
HETATM   12  C   UNL     1     -42.609  55.551 -51.754  1.00  0.00     0.074 C 
HETATM   13  C   UNL     1     -42.516  54.207 -51.696  1.00  0.00     0.036 C 
HETATM   14  C   UNL     1     -43.729  56.167 -50.971  1.00  0.00     0.263 C 
HETATM   15  O   UNL     1     -44.427  55.507 -50.199  1.00  0.00    -0.267 OA
HETATM   16  C   UNL     1     -42.166  60.404 -53.474  1.00  0.00     0.018 A 
HETATM   17  H   UNL     1     -44.827  57.763 -50.556  1.00  0.00     0.169 HD
BRANCH  13  18
HETATM   18  C   UNL     1     -41.511  53.383 -52.378  1.00  0.00    -0.035 A 
HETATM   19  C   UNL     1     -41.608  53.157 -53.755  1.00  0.00     0.011 A 
HETATM   20  C   UNL     1     -40.662  52.361 -54.403  1.00  0.00     0.001 A 
HETATM   21  C   UNL     1     -39.616  51.790 -53.679  1.00  0.00     0.000 A 
HETATM   22  C   UNL     1     -39.512  52.017 -52.307  1.00  0.00     0.001 A 
HETATM   23  C   UNL     1     -40.457  52.813 -51.657  1.00  0.00     0.011 A 
ENDBRANCH  13  18
ENDBRANCH   2   5
BRANCH   1  24
HETATM   24  C   UNL     1     -45.326  63.844 -53.540  1.00  0.00     0.124 C 
BRANCH  24  25
HETATM   25  C   UNL     1     -45.870  64.246 -54.910  1.00  0.00     0.047 C 
BRANCH  25  26
HETATM   26  C   UNL     1     -44.840  64.702 -55.946  1.00  0.00     0.236 C 
BRANCH  26  27
HETATM   27  N   UNL     1     -44.433  63.621 -56.918  1.00  0.00    -0.068 N 
HETATM   28  C   UNL     1     -43.075  63.005 -56.581  1.00  0.00     0.254 C 
HETATM   29  C   UNL     1     -42.743  61.766 -57.439  1.00  0.00     0.150 C 
HETATM   30  N   UNL     1     -43.863  60.817 -57.374  1.00  0.00    -0.377 N 
HETATM   31  C   UNL     1     -45.108  61.381 -57.927  1.00  0.00     0.150 C 
HETATM   32  C   UNL     1     -45.540  62.557 -57.027  1.00  0.00     0.254 C 
HETATM   33  H   UNL     1     -44.412  64.050 -57.866  1.00  0.00     0.280 HD
BRANCH  30  34
HETATM   34  C   UNL     1     -43.627  59.460 -57.620  1.00  0.00     0.036 A 
HETATM   35  C   UNL     1     -42.866  59.032 -58.725  1.00  0.00     0.036 A 
HETATM   36  C   UNL     1     -42.579  57.677 -58.962  1.00  0.00    -0.060 A 
HETATM   37  C   UNL     1     -41.700  57.259 -60.104  1.00  0.00     0.048 C 
HETATM   38  C   UNL     1     -43.072  56.717 -58.080  1.00  0.00     0.007 A 
HETATM   39  C   UNL     1     -43.829  57.107 -56.981  1.00  0.00     0.009 A 
HETATM   40  C   UNL     1     -44.089  58.467 -56.723  1.00  0.00    -0.035 A 
HETATM   41  C   UNL     1     -44.845  58.783 -55.458  1.00  0.00     0.050 C 
ENDBRANCH  30  34
ENDBRANCH  26  27
ENDBRANCH  25  26
ENDBRANCH  24  25
ENDBRANCH   1  24
TORSDOF 7
ENDMDL
