MODEL 1
REMARK VINA RESULT:      -9.2      0.000      0.000
REMARK  2 active torsions:
REMARK  status: ('A' for Active; 'I' for Inactive)
REMARK       I    between atoms: N_4  and  C_5 
REMARK       I    between atoms: C_5  and  N_6 
REMARK    1  A    between atoms: N_6  and  C_7 
REMARK    2  A    between atoms: C_20  and  C_21 
ROOT
HETATM    1  C   UNL     1     -44.058  53.800 -51.197  1.00  0.00     0.011 C 
HETATM    2  C   UNL     1     -43.340  55.126 -50.964  1.00  0.00     0.002 C 
HETATM    3  C   UNL     1     -43.337  56.010 -52.206  1.00  0.00     0.132 C 
HETATM    4  N   UNL     1     -42.078  55.740 -52.883  1.00  0.00    -0.325 N 
HETATM    5  C   UNL     1     -41.678  56.226 -54.113  1.00  0.00     0.323 C 
HETATM    6  N   UNL     1     -42.622  56.998 -54.753  1.00  0.00    -0.309 N 
HETATM    7  O   UNL     1     -40.576  55.961 -54.586  1.00  0.00    -0.247 OA
HETATM    8  C   UNL     1     -41.140  55.014 -52.021  1.00  0.00     0.125 C 
HETATM    9  C   UNL     1     -41.848  54.962 -50.656  1.00  0.00     0.036 C 
HETATM   10  H   UNL     1     -43.229  57.534 -54.152  1.00  0.00     0.170 HD
ENDROOT
BRANCH   6  11
HETATM   11  C   UNL     1     -42.633  57.328 -56.123  1.00  0.00     0.038 A 
HETATM   12  C   UNL     1     -42.283  58.597 -56.596  1.00  0.00     0.062 A 
HETATM   13  C   UNL     1     -42.249  58.848 -57.969  1.00  0.00     0.070 A 
HETATM   14  C   UNL     1     -42.576  57.844 -58.879  1.00  0.00     0.096 A 
HETATM   15  N   UNL     1     -41.835  60.099 -58.423  1.00  0.00    -0.323 N 
HETATM   16  O   UNL     1     -42.537  58.003 -60.236  1.00  0.00    -0.335 OA
HETATM   17  C   UNL     1     -42.918  56.576 -58.413  1.00  0.00     0.041 A 
HETATM   18  C   UNL     1     -42.405  59.348 -60.689  1.00  0.00     0.217 C 
HETATM   19  C   UNL     1     -41.788  60.400 -59.754  1.00  0.00     0.251 C 
HETATM   20  C   UNL     1     -43.780  59.836 -61.135  1.00  0.00     0.050 C 
HETATM   21  O   UNL     1     -41.347  61.477 -60.151  1.00  0.00    -0.270 OA
HETATM   22  C   UNL     1     -42.939  56.316 -57.039  1.00  0.00     0.032 A 
HETATM   23  H   UNL     1     -41.508  60.805 -57.777  1.00  0.00     0.169 HD
ENDBRANCH   6  11
BRANCH   8  24
HETATM   24  C   UNL     1     -40.717  53.641 -52.507  1.00  0.00     0.003 A 
HETATM   25  C   UNL     1     -39.754  52.943 -51.765  1.00  0.00     0.124 A 
HETATM   26  F   UNL     1     -39.260  53.485 -50.642  1.00  0.00    -0.205 F 
HETATM   27  C   UNL     1     -39.289  51.690 -52.158  1.00  0.00     0.043 A 
HETATM   28  C   UNL     1     -39.786  51.104 -53.318  1.00  0.00     0.003 A 
HETATM   29  C   UNL     1     -40.746  51.776 -54.073  1.00  0.00     0.001 A 
HETATM   30  C   UNL     1     -41.208  53.034 -53.672  1.00  0.00     0.012 A 
ENDBRANCH   8  24
TORSDOF 2
ENDMDL
MODEL 2
REMARK VINA RESULT:      -8.8      1.216      1.921
REMARK  2 active torsions:
REMARK  status: ('A' for Active; 'I' for Inactive)
REMARK       I    between atoms: N_4  and  C_5 
REMARK       I    between atoms: C_5  and  N_6 
REMARK    1  A    between atoms: N_6  and  C_7 
REMARK    2  A    between atoms: C_20  and  C_21 
ROOT
HETATM    1  C   UNL     1     -44.024  53.857 -50.911  1.00  0.00     0.011 C 
HETATM    2  C   UNL     1     -43.162  55.041 -50.487  1.00  0.00     0.002 C 
HETATM    3  C   UNL     1     -43.147  56.152 -51.531  1.00  0.00     0.132 C 
HETATM    4  N   UNL     1     -41.967  55.914 -52.348  1.00  0.00    -0.325 N 
HETATM    5  C   UNL     1     -41.598  56.598 -53.491  1.00  0.00     0.323 C 
HETATM    6  N   UNL     1     -42.497  57.562 -53.889  1.00  0.00    -0.309 N 
HETATM    7  O   UNL     1     -40.561  56.338 -54.094  1.00  0.00    -0.247 OA
HETATM    8  C   UNL     1     -41.055  54.951 -51.723  1.00  0.00     0.125 C 
HETATM    9  C   UNL     1     -41.678  54.689 -50.340  1.00  0.00     0.036 C 
HETATM   10  H   UNL     1     -43.007  58.018 -53.150  1.00  0.00     0.170 HD
ENDROOT
BRANCH   6  11
HETATM   11  C   UNL     1     -42.561  58.159 -55.165  1.00  0.00     0.038 A 
HETATM   12  C   UNL     1     -43.119  57.513 -56.273  1.00  0.00     0.062 A 
HETATM   13  C   UNL     1     -43.214  58.179 -57.497  1.00  0.00     0.070 A 
HETATM   14  C   UNL     1     -42.743  59.484 -57.630  1.00  0.00     0.096 A 
HETATM   15  N   UNL     1     -43.832  57.542 -58.572  1.00  0.00    -0.323 N 
HETATM   16  O   UNL     1     -42.828  60.211 -58.784  1.00  0.00    -0.335 OA
HETATM   17  C   UNL     1     -42.194  60.134 -56.527  1.00  0.00     0.041 A 
HETATM   18  C   UNL     1     -43.184  59.467 -59.948  1.00  0.00     0.217 C 
HETATM   19  C   UNL     1     -43.948  58.144 -59.792  1.00  0.00     0.251 C 
HETATM   20  C   UNL     1     -41.912  59.207 -60.752  1.00  0.00     0.050 C 
HETATM   21  O   UNL     1     -44.563  57.609 -60.712  1.00  0.00    -0.270 OA
HETATM   22  C   UNL     1     -42.110  59.477 -55.296  1.00  0.00     0.032 A 
HETATM   23  H   UNL     1     -44.259  56.631 -58.462  1.00  0.00     0.169 HD
ENDBRANCH   6  11
BRANCH   8  24
HETATM   24  C   UNL     1     -40.806  53.671 -52.497  1.00  0.00     0.003 A 
HETATM   25  C   UNL     1     -39.799  52.807 -52.045  1.00  0.00     0.124 A 
HETATM   26  F   UNL     1     -39.109  53.116 -50.936  1.00  0.00    -0.205 F 
HETATM   27  C   UNL     1     -39.485  51.627 -52.715  1.00  0.00     0.043 A 
HETATM   28  C   UNL     1     -40.186  51.284 -53.867  1.00  0.00     0.003 A 
HETATM   29  C   UNL     1     -41.195  52.123 -54.337  1.00  0.00     0.001 A 
HETATM   30  C   UNL     1     -41.503  53.306 -53.659  1.00  0.00     0.012 A 
ENDBRANCH   8  24
TORSDOF 2
ENDMDL
MODEL 3
REMARK VINA RESULT:      -8.8      3.620      8.845
REMARK  2 active torsions:
REMARK  status: ('A' for Active; 'I' for Inactive)
REMARK       I    between atoms: N_4  and  C_5 
REMARK       I    between atoms: C_5  and  N_6 
REMARK    1  A    between atoms: N_6  and  C_7 
REMARK    2  A    between atoms: C_20  and  C_21 
ROOT
HETATM    1  C   UNL     1     -45.921  55.712 -60.432  1.00  0.00     0.011 C 
HETATM    2  C   UNL     1     -44.422  55.931 -60.608  1.00  0.00     0.002 C 
HETATM    3  C   UNL     1     -43.617  55.421 -59.418  1.00  0.00     0.132 C 
HETATM    4  N   UNL     1     -43.423  56.571 -58.548  1.00  0.00    -0.325 N 
HETATM    5  C   UNL     1     -42.846  56.571 -57.292  1.00  0.00     0.323 C 
HETATM    6  N   UNL     1     -42.480  55.325 -56.835  1.00  0.00    -0.309 N 
HETATM    7  O   UNL     1     -42.702  57.606 -56.647  1.00  0.00    -0.247 OA
HETATM    8  C   UNL     1     -43.745  57.830 -59.226  1.00  0.00     0.125 C 
HETATM    9  C   UNL     1     -44.028  57.410 -60.680  1.00  0.00     0.036 C 
HETATM   10  H   UNL     1     -42.191  54.667 -57.542  1.00  0.00     0.170 HD
ENDROOT
BRANCH   6  11
HETATM   11  C   UNL     1     -42.199  54.982 -55.497  1.00  0.00     0.038 A 
HETATM   12  C   UNL     1     -43.144  55.105 -54.473  1.00  0.00     0.062 A 
HETATM   13  C   UNL     1     -42.830  54.688 -53.177  1.00  0.00     0.070 A 
HETATM   14  C   UNL     1     -41.573  54.159 -52.890  1.00  0.00     0.096 A 
HETATM   15  N   UNL     1     -43.805  54.758 -52.185  1.00  0.00    -0.323 N 
HETATM   16  O   UNL     1     -41.202  53.703 -51.656  1.00  0.00    -0.335 OA
HETATM   17  C   UNL     1     -40.631  54.028 -53.909  1.00  0.00     0.041 A 
HETATM   18  C   UNL     1     -42.083  54.045 -50.589  1.00  0.00     0.217 C 
HETATM   19  C   UNL     1     -43.552  54.369 -50.900  1.00  0.00     0.251 C 
HETATM   20  C   UNL     1     -41.473  55.218 -49.827  1.00  0.00     0.050 C 
HETATM   21  O   UNL     1     -44.439  54.359 -50.049  1.00  0.00    -0.270 OA
HETATM   22  C   UNL     1     -40.945  54.430 -55.210  1.00  0.00     0.032 A 
HETATM   23  H   UNL     1     -44.748  55.054 -52.401  1.00  0.00     0.169 HD
ENDBRANCH   6  11
BRANCH   8  24
HETATM   24  C   UNL     1     -44.879  58.638 -58.626  1.00  0.00     0.003 A 
HETATM   25  C   UNL     1     -44.720  60.026 -58.518  1.00  0.00     0.124 A 
HETATM   26  F   UNL     1     -43.596  60.602 -58.971  1.00  0.00    -0.205 F 
HETATM   27  C   UNL     1     -45.700  60.838 -57.952  1.00  0.00     0.043 A 
HETATM   28  C   UNL     1     -46.876  60.266 -57.476  1.00  0.00     0.003 A 
HETATM   29  C   UNL     1     -47.062  58.888 -57.572  1.00  0.00     0.001 A 
HETATM   30  C   UNL     1     -46.072  58.080 -58.143  1.00  0.00     0.012 A 
ENDBRANCH   8  24
TORSDOF 2
ENDMDL
MODEL 4
REMARK VINA RESULT:      -8.7      3.224      8.321
REMARK  2 active torsions:
REMARK  status: ('A' for Active; 'I' for Inactive)
REMARK       I    between atoms: N_4  and  C_5 
REMARK       I    between atoms: C_5  and  N_6 
REMARK    1  A    between atoms: N_6  and  C_7 
REMARK    2  A    between atoms: C_20  and  C_21 
ROOT
HETATM    1  C   UNL     1     -43.532  60.259 -55.467  1.00  0.00     0.011 C 
HETATM    2  C   UNL     1     -44.663  59.291 -55.135  1.00  0.00     0.002 C 
HETATM    3  C   UNL     1     -44.180  58.085 -54.337  1.00  0.00     0.132 C 
HETATM    4  N   UNL     1     -43.918  57.040 -55.317  1.00  0.00    -0.325 N 
HETATM    5  C   UNL     1     -43.356  55.801 -55.076  1.00  0.00     0.323 C 
HETATM    6  N   UNL     1     -42.970  55.597 -53.770  1.00  0.00    -0.309 N 
HETATM    7  O   UNL     1     -43.204  54.975 -55.972  1.00  0.00    -0.247 OA
HETATM    8  C   UNL     1     -44.498  57.360 -56.624  1.00  0.00     0.125 C 
HETATM    9  C   UNL     1     -45.299  58.651 -56.373  1.00  0.00     0.036 C 
HETATM   10  H   UNL     1     -43.528  56.061 -53.071  1.00  0.00     0.170 HD
ENDROOT
BRANCH   6  11
HETATM   11  C   UNL     1     -42.083  54.602 -53.314  1.00  0.00     0.038 A 
HETATM   12  C   UNL     1     -41.862  53.409 -54.012  1.00  0.00     0.062 A 
HETATM   13  C   UNL     1     -40.922  52.488 -53.546  1.00  0.00     0.070 A 
HETATM   14  C   UNL     1     -40.205  52.740 -52.377  1.00  0.00     0.096 A 
HETATM   15  N   UNL     1     -40.670  51.337 -54.289  1.00  0.00    -0.323 N 
HETATM   16  O   UNL     1     -39.248  51.903 -51.875  1.00  0.00    -0.335 OA
HETATM   17  C   UNL     1     -40.415  53.930 -51.683  1.00  0.00     0.041 A 
HETATM   18  C   UNL     1     -39.203  50.605 -52.463  1.00  0.00     0.217 C 
HETATM   19  C   UNL     1     -39.765  50.400 -53.878  1.00  0.00     0.251 C 
HETATM   20  C   UNL     1     -39.896  49.630 -51.515  1.00  0.00     0.050 C 
HETATM   21  O   UNL     1     -39.490  49.427 -54.577  1.00  0.00    -0.270 OA
HETATM   22  C   UNL     1     -41.345  54.862 -52.153  1.00  0.00     0.032 A 
HETATM   23  H   UNL     1     -41.117  51.187 -55.185  1.00  0.00     0.169 HD
ENDBRANCH   6  11
BRANCH   8  24
HETATM   24  C   UNL     1     -43.517  57.502 -57.771  1.00  0.00     0.003 A 
HETATM   25  C   UNL     1     -43.687  56.682 -58.895  1.00  0.00     0.124 A 
HETATM   26  F   UNL     1     -44.718  55.824 -58.941  1.00  0.00    -0.205 F 
HETATM   27  C   UNL     1     -42.812  56.727 -59.979  1.00  0.00     0.043 A 
HETATM   28  C   UNL     1     -41.735  57.608 -59.957  1.00  0.00     0.003 A 
HETATM   29  C   UNL     1     -41.544  58.437 -58.853  1.00  0.00     0.001 A 
HETATM   30  C   UNL     1     -42.427  58.385 -57.769  1.00  0.00     0.012 A 
ENDBRANCH   8  24
TORSDOF 2
ENDMDL
MODEL 5
REMARK VINA RESULT:      -8.1      2.317      3.869
REMARK  2 active torsions:
REMARK  status: ('A' for Active; 'I' for Inactive)
REMARK       I    between atoms: N_4  and  C_5 
REMARK       I    between atoms: C_5  and  N_6 
REMARK    1  A    between atoms: N_6  and  C_7 
REMARK    2  A    between atoms: C_20  and  C_21 
ROOT
HETATM    1  C   UNL     1     -40.454  54.005 -54.256  1.00  0.00     0.011 C 
HETATM    2  C   UNL     1     -41.964  53.789 -54.292  1.00  0.00     0.002 C 
HETATM    3  C   UNL     1     -42.616  54.454 -55.499  1.00  0.00     0.132 C 
HETATM    4  N   UNL     1     -43.071  55.757 -55.037  1.00  0.00    -0.325 N 
HETATM    5  C   UNL     1     -43.622  56.763 -55.808  1.00  0.00     0.323 C 
HETATM    6  N   UNL     1     -43.680  56.480 -57.154  1.00  0.00    -0.309 N 
HETATM    7  O   UNL     1     -44.003  57.821 -55.314  1.00  0.00    -0.247 OA
HETATM    8  C   UNL     1     -43.061  55.852 -53.575  1.00  0.00     0.125 C 
HETATM    9  C   UNL     1     -42.697  54.430 -53.109  1.00  0.00     0.036 C 
HETATM   10  H   UNL     1     -43.810  55.509 -57.392  1.00  0.00     0.170 HD
ENDROOT
BRANCH   6  11
HETATM   11  C   UNL     1     -43.862  57.417 -58.191  1.00  0.00     0.038 A 
HETATM   12  C   UNL     1     -42.843  58.276 -58.620  1.00  0.00     0.062 A 
HETATM   13  C   UNL     1     -43.061  59.138 -59.696  1.00  0.00     0.070 A 
HETATM   14  C   UNL     1     -44.296  59.163 -60.343  1.00  0.00     0.096 A 
HETATM   15  N   UNL     1     -42.015  59.939 -60.150  1.00  0.00    -0.323 N 
HETATM   16  O   UNL     1     -44.575  59.956 -61.420  1.00  0.00    -0.335 OA
HETATM   17  C   UNL     1     -45.310  58.305 -59.925  1.00  0.00     0.041 A 
HETATM   18  C   UNL     1     -43.616  60.975 -61.693  1.00  0.00     0.217 C 
HETATM   19  C   UNL     1     -42.173  60.804 -61.194  1.00  0.00     0.251 C 
HETATM   20  C   UNL     1     -44.165  62.297 -61.162  1.00  0.00     0.050 C 
HETATM   21  O   UNL     1     -41.226  61.449 -61.640  1.00  0.00    -0.270 OA
HETATM   22  C   UNL     1     -45.092  57.428 -58.857  1.00  0.00     0.032 A 
HETATM   23  H   UNL     1     -41.089  59.864 -59.747  1.00  0.00     0.169 HD
ENDBRANCH   6  11
BRANCH   8  24
HETATM   24  C   UNL     1     -42.146  56.907 -52.982  1.00  0.00     0.003 A 
HETATM   25  C   UNL     1     -42.421  57.372 -51.689  1.00  0.00     0.124 A 
HETATM   26  F   UNL     1     -43.454  56.858 -51.004  1.00  0.00    -0.205 F 
HETATM   27  C   UNL     1     -41.649  58.361 -51.083  1.00  0.00     0.043 A 
HETATM   28  C   UNL     1     -40.571  58.909 -51.771  1.00  0.00     0.003 A 
HETATM   29  C   UNL     1     -40.274  58.463 -53.057  1.00  0.00     0.001 A 
HETATM   30  C   UNL     1     -41.054  57.470 -53.659  1.00  0.00     0.012 A 
ENDBRANCH   8  24
TORSDOF 2
ENDMDL
MODEL 6
REMARK VINA RESULT:      -7.8      2.579      4.358
REMARK  2 active torsions:
REMARK  status: ('A' for Active; 'I' for Inactive)
REMARK       I    between atoms: N_4  and  C_5 
REMARK       I    between atoms: C_5  and  N_6 
REMARK    1  A    between atoms: N_6  and  C_7 
REMARK    2  A    between atoms: C_20  and  C_21 
ROOT
HETATM    1  C   UNL     1     -41.036  55.472 -50.862  1.00  0.00     0.011 C 
HETATM    2  C   UNL     1     -42.316  54.816 -51.370  1.00  0.00     0.002 C 
HETATM    3  C   UNL     1     -42.473  54.941 -52.881  1.00  0.00     0.132 C 
HETATM    4  N   UNL     1     -43.296  56.121 -53.098  1.00  0.00    -0.325 N 
HETATM    5  C   UNL     1     -43.612  56.698 -54.313  1.00  0.00     0.323 C 
HETATM    6  N   UNL     1     -43.024  56.092 -55.400  1.00  0.00    -0.309 N 
HETATM    7  O   UNL     1     -44.344  57.682 -54.391  1.00  0.00    -0.247 OA
HETATM    8  C   UNL     1     -43.946  56.568 -51.863  1.00  0.00     0.125 C 
HETATM    9  C   UNL     1     -43.591  55.477 -50.836  1.00  0.00     0.036 C 
HETATM   10  H   UNL     1     -42.870  55.099 -55.318  1.00  0.00     0.170 HD
ENDROOT
BRANCH   6  11
HETATM   11  C   UNL     1     -42.885  56.650 -56.687  1.00  0.00     0.038 A 
HETATM   12  C   UNL     1     -42.512  57.983 -56.895  1.00  0.00     0.062 A 
HETATM   13  C   UNL     1     -42.327  58.463 -58.194  1.00  0.00     0.070 A 
HETATM   14  C   UNL     1     -42.526  57.627 -59.291  1.00  0.00     0.096 A 
HETATM   15  N   UNL     1     -41.893  59.774 -58.379  1.00  0.00    -0.323 N 
HETATM   16  O   UNL     1     -42.336  58.015 -60.588  1.00  0.00    -0.335 OA
HETATM   17  C   UNL     1     -42.890  56.298 -59.089  1.00  0.00     0.041 A 
HETATM   18  C   UNL     1     -42.183  59.418 -60.789  1.00  0.00     0.217 C 
HETATM   19  C   UNL     1     -41.701  60.297 -59.625  1.00  0.00     0.251 C 
HETATM   20  C   UNL     1     -43.509  59.971 -61.304  1.00  0.00     0.050 C 
HETATM   21  O   UNL     1     -41.241  61.427 -59.780  1.00  0.00    -0.270 OA
HETATM   22  C   UNL     1     -43.062  55.808 -57.790  1.00  0.00     0.032 A 
HETATM   23  H   UNL     1     -41.658  60.361 -57.589  1.00  0.00     0.169 HD
ENDBRANCH   6  11
BRANCH   8  24
HETATM   24  C   UNL     1     -43.577  57.958 -51.381  1.00  0.00     0.003 A 
HETATM   25  C   UNL     1     -44.612  58.828 -51.009  1.00  0.00     0.124 A 
HETATM   26  F   UNL     1     -45.884  58.404 -51.058  1.00  0.00    -0.205 F 
HETATM   27  C   UNL     1     -44.361  60.131 -50.584  1.00  0.00     0.043 A 
HETATM   28  C   UNL     1     -43.051  60.594 -50.524  1.00  0.00     0.003 A 
HETATM   29  C   UNL     1     -42.002  59.750 -50.886  1.00  0.00     0.001 A 
HETATM   30  C   UNL     1     -42.263  58.443 -51.311  1.00  0.00     0.012 A 
ENDBRANCH   8  24
TORSDOF 2
ENDMDL
MODEL 7
REMARK VINA RESULT:      -7.7     16.110     18.537
REMARK  2 active torsions:
REMARK  status: ('A' for Active; 'I' for Inactive)
REMARK       I    between atoms: N_4  and  C_5 
REMARK       I    between atoms: C_5  and  N_6 
REMARK    1  A    between atoms: N_6  and  C_7 
REMARK    2  A    between atoms: C_20  and  C_21 
ROOT
HETATM    1  C   UNL     1     -33.566  40.189 -56.506  1.00  0.00     0.011 C 
HETATM    2  C   UNL     1     -34.027  41.469 -55.818  1.00  0.00     0.002 C 
HETATM    3  C   UNL     1     -34.819  41.192 -54.545  1.00  0.00     0.132 C 
HETATM    4  N   UNL     1     -36.220  41.202 -54.939  1.00  0.00    -0.325 N 
HETATM    5  C   UNL     1     -37.306  40.886 -54.145  1.00  0.00     0.323 C 
HETATM    6  N   UNL     1     -36.978  40.475 -52.872  1.00  0.00    -0.309 N 
HETATM    7  O   UNL     1     -38.457  40.955 -54.566  1.00  0.00    -0.247 OA
HETATM    8  C   UNL     1     -36.408  41.781 -56.272  1.00  0.00     0.125 C 
HETATM    9  C   UNL     1     -35.009  42.291 -56.661  1.00  0.00     0.036 C 
HETATM   10  H   UNL     1     -36.147  40.887 -52.479  1.00  0.00     0.170 HD
ENDROOT
BRANCH   6  11
HETATM   11  C   UNL     1     -37.822  39.780 -51.983  1.00  0.00     0.038 A 
HETATM   12  C   UNL     1     -39.198  40.024 -51.901  1.00  0.00     0.062 A 
HETATM   13  C   UNL     1     -39.995  39.258 -51.047  1.00  0.00     0.070 A 
HETATM   14  C   UNL     1     -39.429  38.256 -50.261  1.00  0.00     0.096 A 
HETATM   15  N   UNL     1     -41.372  39.472 -51.028  1.00  0.00    -0.323 N 
HETATM   16  O   UNL     1     -40.146  37.447 -49.426  1.00  0.00    -0.335 OA
HETATM   17  C   UNL     1     -38.061  38.004 -50.345  1.00  0.00     0.041 A 
HETATM   18  C   UNL     1     -41.491  37.856 -49.185  1.00  0.00     0.217 C 
HETATM   19  C   UNL     1     -42.198  38.757 -50.209  1.00  0.00     0.251 C 
HETATM   20  C   UNL     1     -41.542  38.534 -47.818  1.00  0.00     0.050 C 
HETATM   21  O   UNL     1     -43.419  38.895 -50.254  1.00  0.00    -0.270 OA
HETATM   22  C   UNL     1     -37.261  38.758 -51.209  1.00  0.00     0.032 A 
HETATM   23  H   UNL     1     -41.805  40.133 -51.660  1.00  0.00     0.169 HD
ENDBRANCH   6  11
BRANCH   8  24
HETATM   24  C   UNL     1     -37.000  40.858 -57.321  1.00  0.00     0.003 A 
HETATM   25  C   UNL     1     -37.406  41.416 -58.541  1.00  0.00     0.124 A 
HETATM   26  F   UNL     1     -37.237  42.728 -58.760  1.00  0.00    -0.205 F 
HETATM   27  C   UNL     1     -37.986  40.644 -59.546  1.00  0.00     0.043 A 
HETATM   28  C   UNL     1     -38.172  39.280 -59.344  1.00  0.00     0.003 A 
HETATM   29  C   UNL     1     -37.775  38.699 -58.141  1.00  0.00     0.001 A 
HETATM   30  C   UNL     1     -37.193  39.481 -57.138  1.00  0.00     0.012 A 
ENDBRANCH   8  24
TORSDOF 2
ENDMDL
MODEL 8
REMARK VINA RESULT:      -7.7      2.636      4.421
REMARK  2 active torsions:
REMARK  status: ('A' for Active; 'I' for Inactive)
REMARK       I    between atoms: N_4  and  C_5 
REMARK       I    between atoms: C_5  and  N_6 
REMARK    1  A    between atoms: N_6  and  C_7 
REMARK    2  A    between atoms: C_20  and  C_21 
ROOT
HETATM    1  C   UNL     1     -40.752  54.170 -54.298  1.00  0.00     0.011 C 
HETATM    2  C   UNL     1     -42.108  54.119 -54.996  1.00  0.00     0.002 C 
HETATM    3  C   UNL     1     -42.197  55.096 -56.164  1.00  0.00     0.132 C 
HETATM    4  N   UNL     1     -42.805  56.304 -55.626  1.00  0.00    -0.325 N 
HETATM    5  C   UNL     1     -42.985  57.505 -56.286  1.00  0.00     0.323 C 
HETATM    6  N   UNL     1     -42.474  57.533 -57.564  1.00  0.00    -0.309 N 
HETATM    7  O   UNL     1     -43.540  58.460 -55.749  1.00  0.00    -0.247 OA
HETATM    8  C   UNL     1     -43.409  56.072 -54.310  1.00  0.00     0.125 C 
HETATM    9  C   UNL     1     -43.270  54.554 -54.097  1.00  0.00     0.036 C 
HETATM   10  H   UNL     1     -42.490  56.656 -58.061  1.00  0.00     0.170 HD
ENDROOT
BRANCH   6  11
HETATM   11  C   UNL     1     -42.206  58.689 -58.324  1.00  0.00     0.038 A 
HETATM   12  C   UNL     1     -41.686  59.859 -57.761  1.00  0.00     0.062 A 
HETATM   13  C   UNL     1     -41.380  60.952 -58.575  1.00  0.00     0.070 A 
HETATM   14  C   UNL     1     -41.602  60.893 -59.950  1.00  0.00     0.096 A 
HETATM   15  N   UNL     1     -40.803  62.085 -58.005  1.00  0.00    -0.323 N 
HETATM   16  O   UNL     1     -41.300  61.908 -60.814  1.00  0.00    -0.335 OA
HETATM   17  C   UNL     1     -42.112  59.727 -60.516  1.00  0.00     0.041 A 
HETATM   18  C   UNL     1     -40.992  63.159 -60.203  1.00  0.00     0.217 C 
HETATM   19  C   UNL     1     -40.488  63.183 -58.752  1.00  0.00     0.251 C 
HETATM   20  C   UNL     1     -42.223  64.055 -60.309  1.00  0.00     0.050 C 
HETATM   21  O   UNL     1     -39.906  64.147 -58.258  1.00  0.00    -0.270 OA
HETATM   22  C   UNL     1     -42.407  58.625 -59.708  1.00  0.00     0.032 A 
HETATM   23  H   UNL     1     -40.553  62.105 -57.024  1.00  0.00     0.169 HD
ENDBRANCH   6  11
BRANCH   8  24
HETATM   24  C   UNL     1     -42.828  56.873 -53.161  1.00  0.00     0.003 A 
HETATM   25  C   UNL     1     -43.715  57.487 -52.266  1.00  0.00     0.124 A 
HETATM   26  F   UNL     1     -45.037  57.327 -52.427  1.00  0.00    -0.205 F 
HETATM   27  C   UNL     1     -43.265  58.265 -51.201  1.00  0.00     0.043 A 
HETATM   28  C   UNL     1     -41.898  58.446 -51.011  1.00  0.00     0.003 A 
HETATM   29  C   UNL     1     -40.994  57.845 -51.885  1.00  0.00     0.001 A 
HETATM   30  C   UNL     1     -41.454  57.065 -52.952  1.00  0.00     0.012 A 
ENDBRANCH   8  24
TORSDOF 2
ENDMDL
MODEL 9
REMARK VINA RESULT:      -7.6      3.089      4.540
REMARK  2 active torsions:
REMARK  status: ('A' for Active; 'I' for Inactive)
REMARK       I    between atoms: N_4  and  C_5 
REMARK       I    between atoms: C_5  and  N_6 
REMARK    1  A    between atoms: N_6  and  C_7 
REMARK    2  A    between atoms: C_20  and  C_21 
ROOT
HETATM    1  C   UNL     1     -40.206  54.260 -54.647  1.00  0.00     0.011 C 
HETATM    2  C   UNL     1     -41.681  53.888 -54.528  1.00  0.00     0.002 C 
HETATM    3  C   UNL     1     -42.549  54.619 -55.546  1.00  0.00     0.132 C 
HETATM    4  N   UNL     1     -43.055  55.799 -54.862  1.00  0.00    -0.325 N 
HETATM    5  C   UNL     1     -43.796  56.825 -55.418  1.00  0.00     0.323 C 
HETATM    6  N   UNL     1     -44.008  56.702 -56.772  1.00  0.00    -0.309 N 
HETATM    7  O   UNL     1     -44.202  57.767 -54.744  1.00  0.00    -0.247 OA
HETATM    8  C   UNL     1     -42.856  55.717 -53.412  1.00  0.00     0.125 C 
HETATM    9  C   UNL     1     -42.303  54.298 -53.189  1.00  0.00     0.036 C 
HETATM   10  H   UNL     1     -44.079  55.759 -57.121  1.00  0.00     0.170 HD
ENDROOT
BRANCH   6  11
HETATM   11  C   UNL     1     -44.414  57.732 -57.645  1.00  0.00     0.038 A 
HETATM   12  C   UNL     1     -45.672  57.749 -58.258  1.00  0.00     0.062 A 
HETATM   13  C   UNL     1     -46.044  58.829 -59.061  1.00  0.00     0.070 A 
HETATM   14  C   UNL     1     -45.164  59.890 -59.271  1.00  0.00     0.096 A 
HETATM   15  N   UNL     1     -47.324  58.860 -59.611  1.00  0.00    -0.323 N 
HETATM   16  O   UNL     1     -45.466  60.994 -60.018  1.00  0.00    -0.335 OA
HETATM   17  C   UNL     1     -43.914  59.881 -58.656  1.00  0.00     0.041 A 
HETATM   18  C   UNL     1     -46.646  60.889 -60.812  1.00  0.00     0.217 C 
HETATM   19  C   UNL     1     -47.739  59.888 -60.408  1.00  0.00     0.251 C 
HETATM   20  C   UNL     1     -46.226  60.601 -62.251  1.00  0.00     0.050 C 
HETATM   21  O   UNL     1     -48.894  59.948 -60.823  1.00  0.00    -0.270 OA
HETATM   22  C   UNL     1     -43.542  58.809 -57.839  1.00  0.00     0.032 A 
HETATM   23  H   UNL     1     -48.002  58.141 -59.391  1.00  0.00     0.169 HD
ENDBRANCH   6  11
BRANCH   8  24
HETATM   24  C   UNL     1     -41.971  56.785 -52.800  1.00  0.00     0.003 A 
HETATM   25  C   UNL     1     -42.082  57.031 -51.424  1.00  0.00     0.124 A 
HETATM   26  F   UNL     1     -42.934  56.303 -50.687  1.00  0.00    -0.205 F 
HETATM   27  C   UNL     1     -41.327  58.015 -50.789  1.00  0.00     0.043 A 
HETATM   28  C   UNL     1     -40.435  58.783 -51.530  1.00  0.00     0.003 A 
HETATM   29  C   UNL     1     -40.303  58.558 -52.900  1.00  0.00     0.001 A 
HETATM   30  C   UNL     1     -41.064  57.568 -53.530  1.00  0.00     0.012 A 
ENDBRANCH   8  24
TORSDOF 2
ENDMDL
MODEL 10
REMARK VINA RESULT:      -7.4     16.363     18.175
REMARK  2 active torsions:
REMARK  status: ('A' for Active; 'I' for Inactive)
REMARK       I    between atoms: N_4  and  C_5 
REMARK       I    between atoms: C_5  and  N_6 
REMARK    1  A    between atoms: N_6  and  C_7 
REMARK    2  A    between atoms: C_20  and  C_21 
ROOT
HETATM    1  C   UNL     1     -37.165  40.529 -51.858  1.00  0.00     0.011 C 
HETATM    2  C   UNL     1     -37.009  41.689 -52.836  1.00  0.00     0.002 C 
HETATM    3  C   UNL     1     -37.439  41.318 -54.251  1.00  0.00     0.132 C 
HETATM    4  N   UNL     1     -36.224  40.910 -54.940  1.00  0.00    -0.325 N 
HETATM    5  C   UNL     1     -36.132  40.380 -56.213  1.00  0.00     0.323 C 
HETATM    6  N   UNL     1     -37.345  40.187 -56.836  1.00  0.00    -0.309 N 
HETATM    7  O   UNL     1     -35.050  40.094 -56.718  1.00  0.00    -0.247 OA
HETATM    8  C   UNL     1     -35.020  41.297 -54.199  1.00  0.00     0.125 C 
HETATM    9  C   UNL     1     -35.555  42.134 -53.024  1.00  0.00     0.036 C 
HETATM   10  H   UNL     1     -38.071  40.844 -56.595  1.00  0.00     0.170 HD
ENDROOT
BRANCH   6  11
HETATM   11  C   UNL     1     -37.579  39.368 -57.959  1.00  0.00     0.038 A 
HETATM   12  C   UNL     1     -37.362  39.806 -59.271  1.00  0.00     0.062 A 
HETATM   13  C   UNL     1     -37.549  38.928 -60.341  1.00  0.00     0.070 A 
HETATM   14  C   UNL     1     -37.964  37.617 -60.116  1.00  0.00     0.096 A 
HETATM   15  N   UNL     1     -37.266  39.363 -61.635  1.00  0.00    -0.323 N 
HETATM   16  O   UNL     1     -38.139  36.693 -61.108  1.00  0.00    -0.335 OA
HETATM   17  C   UNL     1     -38.173  37.174 -58.812  1.00  0.00     0.041 A 
HETATM   18  C   UNL     1     -38.138  37.214 -62.435  1.00  0.00     0.217 C 
HETATM   19  C   UNL     1     -37.435  38.550 -62.718  1.00  0.00     0.251 C 
HETATM   20  C   UNL     1     -39.586  37.312 -62.907  1.00  0.00     0.050 C 
HETATM   21  O   UNL     1     -37.108  38.912 -63.847  1.00  0.00    -0.270 OA
HETATM   22  C   UNL     1     -37.974  38.045 -57.736  1.00  0.00     0.032 A 
HETATM   23  H   UNL     1     -36.877  40.282 -61.802  1.00  0.00     0.169 HD
ENDBRANCH   6  11
BRANCH   8  24
HETATM   24  C   UNL     1     -34.127  40.160 -53.741  1.00  0.00     0.003 A 
HETATM   25  C   UNL     1     -32.838  40.067 -54.284  1.00  0.00     0.124 A 
HETATM   26  F   UNL     1     -32.421  40.992 -55.162  1.00  0.00    -0.205 F 
HETATM   27  C   UNL     1     -31.966  39.037 -53.940  1.00  0.00     0.043 A 
HETATM   28  C   UNL     1     -32.374  38.066 -53.031  1.00  0.00     0.003 A 
HETATM   29  C   UNL     1     -33.650  38.135 -52.473  1.00  0.00     0.001 A 
HETATM   30  C   UNL     1     -34.519  39.173 -52.824  1.00  0.00     0.012 A 
ENDBRANCH   8  24
TORSDOF 2
ENDMDL
