MODEL 1
REMARK VINA RESULT:      -8.3      0.000      0.000
REMARK  6 active torsions:
REMARK  status: ('A' for Active; 'I' for Inactive)
REMARK    1  A    between atoms: C_4  and  C_5 
REMARK    2  A    between atoms: C_5  and  N_6 
REMARK    3  A    between atoms: C_5  and  C_19 
REMARK       I    between atoms: N_6  and  C_7 
REMARK    4  A    between atoms: C_7  and  C_8 
REMARK       I    between atoms: C_19  and  N_20 
REMARK    5  A    between atoms: N_20  and  C_21 
REMARK    6  A    between atoms: C_21  and  C_22 
ROOT
HETATM    1  C   UNL     1     -41.009  55.865 -54.063  1.00  0.00     0.210 C 
ENDROOT
BRANCH   1   2
HETATM    2  C   UNL     1     -41.067  56.918 -52.964  1.00  0.00    -0.026 A 
HETATM    3  C   UNL     1     -40.844  58.271 -53.272  1.00  0.00     0.010 A 
HETATM    4  C   UNL     1     -40.908  59.249 -52.275  1.00  0.00     0.001 A 
HETATM    5  C   UNL     1     -41.184  58.890 -50.958  1.00  0.00     0.000 A 
HETATM    6  C   UNL     1     -41.391  57.552 -50.634  1.00  0.00     0.001 A 
HETATM    7  C   UNL     1     -41.330  56.574 -51.628  1.00  0.00     0.010 A 
ENDBRANCH   1   2
BRANCH   1   8
HETATM    8  N   UNL     1     -40.586  54.558 -53.557  1.00  0.00    -0.340 N 
HETATM    9  C   UNL     1     -40.214  53.494 -54.339  1.00  0.00     0.253 C 
HETATM   10  O   UNL     1     -39.933  53.602 -55.528  1.00  0.00    -0.268 OA
HETATM   11  H   UNL     1     -40.695  54.410 -52.564  1.00  0.00     0.164 HD
BRANCH   9  12
HETATM   12  C   UNL     1     -40.048  52.193 -53.659  1.00  0.00     0.047 A 
HETATM   13  C   UNL     1     -40.125  52.034 -52.260  1.00  0.00     0.027 A 
HETATM   14  C   UNL     1     -39.919  50.744 -51.774  1.00  0.00     0.138 A 
HETATM   15  C   UNL     1     -40.401  52.846 -51.119  1.00  0.00     0.033 A 
HETATM   16  N   UNL     1     -40.016  50.777 -50.410  1.00  0.00    -0.350 N 
HETATM   17  N   UNL     1     -39.671  49.628 -52.481  1.00  0.00    -0.242 NA
HETATM   18  H   UNL     1     -39.904  49.962 -49.824  1.00  0.00     0.166 HD
HETATM   19  C   UNL     1     -40.310  52.050 -49.996  1.00  0.00     0.090 A 
HETATM   20  C   UNL     1     -39.650  49.833 -53.815  1.00  0.00     0.120 A 
HETATM   21  C   UNL     1     -39.828  51.055 -54.444  1.00  0.00     0.037 A 
ENDBRANCH   9  12
ENDBRANCH   1   8
BRANCH   1  22
HETATM   22  C   UNL     1     -42.229  55.931 -55.026  1.00  0.00     0.245 C 
HETATM   23  N   UNL     1     -41.976  55.763 -56.370  1.00  0.00    -0.354 N 
HETATM   24  H   UNL     1     -41.067  55.361 -56.605  1.00  0.00     0.162 HD
HETATM   25  O   UNL     1     -43.382  56.016 -54.592  1.00  0.00    -0.271 OA
BRANCH  23  26
HETATM   26  C   UNL     1     -43.071  55.451 -57.257  1.00  0.00     0.168 C 
BRANCH  26  27
HETATM   27  C   UNL     1     -43.202  56.475 -58.339  1.00  0.00     0.000 A 
HETATM   28  S   UNL     1     -44.127  57.902 -58.110  1.00  0.00    -0.105 SA
HETATM   29  C   UNL     1     -43.726  58.492 -59.663  1.00  0.00     0.050 A 
HETATM   30  C   UNL     1     -42.887  57.638 -60.341  1.00  0.00     0.008 A 
HETATM   31  C   UNL     1     -42.588  56.472 -59.578  1.00  0.00     0.017 A 
ENDBRANCH  26  27
ENDBRANCH  23  26
ENDBRANCH   1  22
TORSDOF 6
ENDMDL
MODEL 2
REMARK VINA RESULT:      -8.3      0.617      2.012
REMARK  6 active torsions:
REMARK  status: ('A' for Active; 'I' for Inactive)
REMARK    1  A    between atoms: C_4  and  C_5 
REMARK    2  A    between atoms: C_5  and  N_6 
REMARK    3  A    between atoms: C_5  and  C_19 
REMARK       I    between atoms: N_6  and  C_7 
REMARK    4  A    between atoms: C_7  and  C_8 
REMARK       I    between atoms: C_19  and  N_20 
REMARK    5  A    between atoms: N_20  and  C_21 
REMARK    6  A    between atoms: C_21  and  C_22 
ROOT
HETATM    1  C   UNL     1     -41.190  56.245 -53.956  1.00  0.00     0.210 C 
ENDROOT
BRANCH   1   2
HETATM    2  C   UNL     1     -41.356  57.507 -53.119  1.00  0.00    -0.026 A 
HETATM    3  C   UNL     1     -41.280  57.439 -51.718  1.00  0.00     0.010 A 
HETATM    4  C   UNL     1     -41.416  58.591 -50.939  1.00  0.00     0.001 A 
HETATM    5  C   UNL     1     -41.640  59.824 -51.546  1.00  0.00     0.000 A 
HETATM    6  C   UNL     1     -41.734  59.907 -52.933  1.00  0.00     0.001 A 
HETATM    7  C   UNL     1     -41.596  58.757 -53.713  1.00  0.00     0.010 A 
ENDBRANCH   1   2
BRANCH   1   8
HETATM    8  N   UNL     1     -40.755  55.100 -53.153  1.00  0.00    -0.340 N 
HETATM    9  C   UNL     1     -40.438  53.864 -53.654  1.00  0.00     0.253 C 
HETATM   10  O   UNL     1     -40.220  53.657 -54.844  1.00  0.00    -0.268 OA
HETATM   11  H   UNL     1     -40.812  55.214 -52.152  1.00  0.00     0.164 HD
BRANCH   9  12
HETATM   12  C   UNL     1     -40.250  52.775 -52.673  1.00  0.00     0.047 A 
HETATM   13  C   UNL     1     -39.925  51.452 -53.036  1.00  0.00     0.027 A 
HETATM   14  C   UNL     1     -39.810  50.537 -51.991  1.00  0.00     0.138 A 
HETATM   15  C   UNL     1     -39.627  50.728 -54.229  1.00  0.00     0.033 A 
HETATM   16  N   UNL     1     -39.506  49.313 -52.521  1.00  0.00    -0.350 N 
HETATM   17  N   UNL     1     -39.956  50.768 -50.675  1.00  0.00    -0.242 NA
HETATM   18  H   UNL     1     -39.371  48.482 -51.964  1.00  0.00     0.166 HD
HETATM   19  C   UNL     1     -39.391  49.414 -53.883  1.00  0.00     0.090 A 
HETATM   20  C   UNL     1     -40.226  52.058 -50.385  1.00  0.00     0.120 A 
HETATM   21  C   UNL     1     -40.378  53.076 -51.312  1.00  0.00     0.037 A 
ENDBRANCH   9  12
ENDBRANCH   1   8
BRANCH   1  22
HETATM   22  C   UNL     1     -42.347  56.042 -54.976  1.00  0.00     0.245 C 
HETATM   23  N   UNL     1     -41.994  55.840 -56.292  1.00  0.00    -0.354 N 
HETATM   24  H   UNL     1     -41.018  55.588 -56.457  1.00  0.00     0.162 HD
HETATM   25  O   UNL     1     -43.521  55.953 -54.602  1.00  0.00    -0.271 OA
BRANCH  23  26
HETATM   26  C   UNL     1     -42.968  55.292 -57.205  1.00  0.00     0.168 C 
BRANCH  26  27
HETATM   27  C   UNL     1     -43.274  56.249 -58.312  1.00  0.00     0.000 A 
HETATM   28  S   UNL     1     -44.258  57.631 -58.051  1.00  0.00    -0.105 SA
HETATM   29  C   UNL     1     -44.058  58.162 -59.663  1.00  0.00     0.050 A 
HETATM   30  C   UNL     1     -43.242  57.323 -60.387  1.00  0.00     0.008 A 
HETATM   31  C   UNL     1     -42.793  56.218 -59.608  1.00  0.00     0.017 A 
ENDBRANCH  26  27
ENDBRANCH  23  26
ENDBRANCH   1  22
TORSDOF 6
ENDMDL
MODEL 3
REMARK VINA RESULT:      -8.2      2.218      5.435
REMARK  6 active torsions:
REMARK  status: ('A' for Active; 'I' for Inactive)
REMARK    1  A    between atoms: C_4  and  C_5 
REMARK    2  A    between atoms: C_5  and  N_6 
REMARK    3  A    between atoms: C_5  and  C_19 
REMARK       I    between atoms: N_6  and  C_7 
REMARK    4  A    between atoms: C_7  and  C_8 
REMARK       I    between atoms: C_19  and  N_20 
REMARK    5  A    between atoms: N_20  and  C_21 
REMARK    6  A    between atoms: C_21  and  C_22 
ROOT
HETATM    1  C   UNL     1     -43.029  56.442 -55.853  1.00  0.00     0.210 C 
ENDROOT
BRANCH   1   2
HETATM    2  C   UNL     1     -42.781  56.671 -57.338  1.00  0.00    -0.026 A 
HETATM    3  C   UNL     1     -43.082  55.660 -58.267  1.00  0.00     0.010 A 
HETATM    4  C   UNL     1     -42.873  55.862 -59.634  1.00  0.00     0.001 A 
HETATM    5  C   UNL     1     -42.350  57.069 -60.091  1.00  0.00     0.000 A 
HETATM    6  C   UNL     1     -42.031  58.075 -59.182  1.00  0.00     0.001 A 
HETATM    7  C   UNL     1     -42.242  57.876 -57.817  1.00  0.00     0.010 A 
ENDBRANCH   1   2
BRANCH   1   8
HETATM    8  N   UNL     1     -42.280  55.295 -55.335  1.00  0.00    -0.340 N 
HETATM    9  C   UNL     1     -42.616  54.577 -54.216  1.00  0.00     0.253 C 
HETATM   10  O   UNL     1     -43.719  54.641 -53.684  1.00  0.00    -0.268 OA
HETATM   11  H   UNL     1     -41.393  55.108 -55.779  1.00  0.00     0.164 HD
BRANCH   9  12
HETATM   12  C   UNL     1     -41.615  53.609 -53.720  1.00  0.00     0.047 A 
HETATM   13  C   UNL     1     -41.090  53.640 -52.412  1.00  0.00     0.027 A 
HETATM   14  C   UNL     1     -40.133  52.674 -52.109  1.00  0.00     0.138 A 
HETATM   15  C   UNL     1     -41.281  54.394 -51.215  1.00  0.00     0.033 A 
HETATM   16  N   UNL     1     -39.727  52.858 -50.816  1.00  0.00    -0.350 N 
HETATM   17  N   UNL     1     -39.660  51.704 -52.911  1.00  0.00    -0.242 NA
HETATM   18  H   UNL     1     -39.036  52.280 -50.361  1.00  0.00     0.166 HD
HETATM   19  C   UNL     1     -40.418  53.902 -50.258  1.00  0.00     0.090 A 
HETATM   20  C   UNL     1     -40.229  51.698 -54.136  1.00  0.00     0.120 A 
HETATM   21  C   UNL     1     -41.183  52.597 -54.584  1.00  0.00     0.037 A 
ENDBRANCH   9  12
ENDBRANCH   1   8
BRANCH   1  22
HETATM   22  C   UNL     1     -43.029  57.763 -55.031  1.00  0.00     0.245 C 
HETATM   23  N   UNL     1     -41.822  58.176 -54.509  1.00  0.00    -0.354 N 
HETATM   24  H   UNL     1     -40.991  57.734 -54.906  1.00  0.00     0.162 HD
HETATM   25  O   UNL     1     -44.041  58.465 -54.949  1.00  0.00    -0.271 OA
BRANCH  23  26
HETATM   26  C   UNL     1     -41.680  59.542 -54.064  1.00  0.00     0.168 C 
BRANCH  26  27
HETATM   27  C   UNL     1     -41.393  59.608 -52.598  1.00  0.00     0.000 A 
HETATM   28  S   UNL     1     -42.470  60.388 -51.513  1.00  0.00    -0.105 SA
HETATM   29  C   UNL     1     -41.509  59.981 -50.160  1.00  0.00     0.050 A 
HETATM   30  C   UNL     1     -40.400  59.247 -50.514  1.00  0.00     0.008 A 
HETATM   31  C   UNL     1     -40.332  59.035 -51.922  1.00  0.00     0.017 A 
ENDBRANCH  26  27
ENDBRANCH  23  26
ENDBRANCH   1  22
TORSDOF 6
ENDMDL
MODEL 4
REMARK VINA RESULT:      -8.1      2.585      7.606
REMARK  6 active torsions:
REMARK  status: ('A' for Active; 'I' for Inactive)
REMARK    1  A    between atoms: C_4  and  C_5 
REMARK    2  A    between atoms: C_5  and  N_6 
REMARK    3  A    between atoms: C_5  and  C_19 
REMARK       I    between atoms: N_6  and  C_7 
REMARK    4  A    between atoms: C_7  and  C_8 
REMARK       I    between atoms: C_19  and  N_20 
REMARK    5  A    between atoms: N_20  and  C_21 
REMARK    6  A    between atoms: C_21  and  C_22 
ROOT
HETATM    1  C   UNL     1     -41.728  55.788 -54.369  1.00  0.00     0.210 C 
ENDROOT
BRANCH   1   2
HETATM    2  C   UNL     1     -41.357  56.828 -53.320  1.00  0.00    -0.026 A 
HETATM    3  C   UNL     1     -41.363  56.487 -51.956  1.00  0.00     0.010 A 
HETATM    4  C   UNL     1     -41.012  57.428 -50.985  1.00  0.00     0.001 A 
HETATM    5  C   UNL     1     -40.661  58.723 -51.359  1.00  0.00     0.000 A 
HETATM    6  C   UNL     1     -40.666  59.081 -52.704  1.00  0.00     0.001 A 
HETATM    7  C   UNL     1     -41.014  58.142 -53.676  1.00  0.00     0.010 A 
ENDBRANCH   1   2
BRANCH   1   8
HETATM    8  N   UNL     1     -42.292  56.394 -55.576  1.00  0.00    -0.340 N 
HETATM    9  C   UNL     1     -42.828  55.698 -56.629  1.00  0.00     0.253 C 
HETATM   10  O   UNL     1     -43.141  54.514 -56.561  1.00  0.00    -0.268 OA
HETATM   11  H   UNL     1     -42.163  57.390 -55.675  1.00  0.00     0.164 HD
BRANCH   9  12
HETATM   12  C   UNL     1     -43.130  56.469 -57.854  1.00  0.00     0.047 A 
HETATM   13  C   UNL     1     -43.783  55.918 -58.975  1.00  0.00     0.027 A 
HETATM   14  C   UNL     1     -43.968  56.771 -60.061  1.00  0.00     0.138 A 
HETATM   15  C   UNL     1     -44.380  54.675 -59.344  1.00  0.00     0.033 A 
HETATM   16  N   UNL     1     -44.599  56.074 -61.054  1.00  0.00    -0.350 N 
HETATM   17  N   UNL     1     -43.612  58.063 -60.163  1.00  0.00    -0.242 NA
HETATM   18  H   UNL     1     -44.845  56.475 -61.948  1.00  0.00     0.166 HD
HETATM   19  C   UNL     1     -44.857  54.796 -60.632  1.00  0.00     0.090 A 
HETATM   20  C   UNL     1     -43.029  58.547 -59.045  1.00  0.00     0.120 A 
HETATM   21  C   UNL     1     -42.770  57.821 -57.894  1.00  0.00     0.037 A 
ENDBRANCH   9  12
ENDBRANCH   1   8
BRANCH   1  22
HETATM   22  C   UNL     1     -40.647  54.680 -54.528  1.00  0.00     0.245 C 
HETATM   23  N   UNL     1     -41.003  53.400 -54.161  1.00  0.00    -0.354 N 
HETATM   24  H   UNL     1     -42.004  53.229 -54.057  1.00  0.00     0.162 HD
HETATM   25  O   UNL     1     -39.561  54.919 -55.065  1.00  0.00    -0.271 OA
BRANCH  23  26
HETATM   26  C   UNL     1     -40.200  52.291 -54.614  1.00  0.00     0.168 C 
BRANCH  26  27
HETATM   27  C   UNL     1     -39.900  51.343 -53.497  1.00  0.00     0.000 A 
HETATM   28  S   UNL     1     -39.699  51.899 -51.886  1.00  0.00    -0.105 SA
HETATM   29  C   UNL     1     -39.476  50.311 -51.294  1.00  0.00     0.050 A 
HETATM   30  C   UNL     1     -39.573  49.369 -52.292  1.00  0.00     0.008 A 
HETATM   31  C   UNL     1     -39.815  49.965 -53.563  1.00  0.00     0.017 A 
ENDBRANCH  26  27
ENDBRANCH  23  26
ENDBRANCH   1  22
TORSDOF 6
ENDMDL
MODEL 5
REMARK VINA RESULT:      -8.1      1.986      2.898
REMARK  6 active torsions:
REMARK  status: ('A' for Active; 'I' for Inactive)
REMARK    1  A    between atoms: C_4  and  C_5 
REMARK    2  A    between atoms: C_5  and  N_6 
REMARK    3  A    between atoms: C_5  and  C_19 
REMARK       I    between atoms: N_6  and  C_7 
REMARK    4  A    between atoms: C_7  and  C_8 
REMARK       I    between atoms: C_19  and  N_20 
REMARK    5  A    between atoms: N_20  and  C_21 
REMARK    6  A    between atoms: C_21  and  C_22 
ROOT
HETATM    1  C   UNL     1     -42.071  56.155 -54.979  1.00  0.00     0.210 C 
ENDROOT
BRANCH   1   2
HETATM    2  C   UNL     1     -42.887  57.286 -54.367  1.00  0.00    -0.026 A 
HETATM    3  C   UNL     1     -43.940  56.996 -53.481  1.00  0.00     0.010 A 
HETATM    4  C   UNL     1     -44.688  58.025 -52.902  1.00  0.00     0.001 A 
HETATM    5  C   UNL     1     -44.403  59.354 -53.205  1.00  0.00     0.000 A 
HETATM    6  C   UNL     1     -43.375  59.657 -54.093  1.00  0.00     0.001 A 
HETATM    7  C   UNL     1     -42.625  58.632 -54.671  1.00  0.00     0.010 A 
ENDBRANCH   1   2
BRANCH   1   8
HETATM    8  N   UNL     1     -41.554  55.232 -53.967  1.00  0.00    -0.340 N 
HETATM    9  C   UNL     1     -40.534  54.337 -54.165  1.00  0.00     0.253 C 
HETATM   10  O   UNL     1     -39.765  54.398 -55.119  1.00  0.00    -0.268 OA
HETATM   11  H   UNL     1     -42.076  55.183 -53.104  1.00  0.00     0.164 HD
BRANCH   9  12
HETATM   12  C   UNL     1     -40.314  53.331 -53.105  1.00  0.00     0.047 A 
HETATM   13  C   UNL     1     -40.044  51.973 -53.369  1.00  0.00     0.027 A 
HETATM   14  C   UNL     1     -39.887  51.148 -52.257  1.00  0.00     0.138 A 
HETATM   15  C   UNL     1     -39.837  51.141 -54.510  1.00  0.00     0.033 A 
HETATM   16  N   UNL     1     -39.647  49.875 -52.695  1.00  0.00    -0.350 N 
HETATM   17  N   UNL     1     -39.947  51.496 -50.960  1.00  0.00    -0.242 NA
HETATM   18  H   UNL     1     -39.498  49.091 -52.076  1.00  0.00     0.166 HD
HETATM   19  C   UNL     1     -39.612  49.855 -54.065  1.00  0.00     0.090 A 
HETATM   20  C   UNL     1     -40.167  52.814 -50.769  1.00  0.00     0.120 A 
HETATM   21  C   UNL     1     -40.351  53.752 -51.771  1.00  0.00     0.037 A 
ENDBRANCH   9  12
ENDBRANCH   1   8
BRANCH   1  22
HETATM   22  C   UNL     1     -42.726  55.564 -56.261  1.00  0.00     0.245 C 
HETATM   23  N   UNL     1     -42.652  56.323 -57.409  1.00  0.00    -0.354 N 
HETATM   24  H   UNL     1     -41.968  57.080 -57.399  1.00  0.00     0.162 HD
HETATM   25  O   UNL     1     -43.188  54.419 -56.272  1.00  0.00    -0.271 OA
BRANCH  23  26
HETATM   26  C   UNL     1     -42.905  55.694 -58.683  1.00  0.00     0.168 C 
BRANCH  26  27
HETATM   27  C   UNL     1     -44.260  56.048 -59.205  1.00  0.00     0.000 A 
HETATM   28  S   UNL     1     -45.103  55.005 -60.277  1.00  0.00    -0.105 SA
HETATM   29  C   UNL     1     -46.464  56.038 -60.318  1.00  0.00     0.050 A 
HETATM   30  C   UNL     1     -46.299  57.145 -59.518  1.00  0.00     0.008 A 
HETATM   31  C   UNL     1     -45.025  57.152 -58.879  1.00  0.00     0.017 A 
ENDBRANCH  26  27
ENDBRANCH  23  26
ENDBRANCH   1  22
TORSDOF 6
ENDMDL
MODEL 6
REMARK VINA RESULT:      -7.9      2.871      7.116
REMARK  6 active torsions:
REMARK  status: ('A' for Active; 'I' for Inactive)
REMARK    1  A    between atoms: C_4  and  C_5 
REMARK    2  A    between atoms: C_5  and  N_6 
REMARK    3  A    between atoms: C_5  and  C_19 
REMARK       I    between atoms: N_6  and  C_7 
REMARK    4  A    between atoms: C_7  and  C_8 
REMARK       I    between atoms: C_19  and  N_20 
REMARK    5  A    between atoms: N_20  and  C_21 
REMARK    6  A    between atoms: C_21  and  C_22 
ROOT
HETATM    1  C   UNL     1     -43.560  56.195 -54.072  1.00  0.00     0.210 C 
ENDROOT
BRANCH   1   2
HETATM    2  C   UNL     1     -42.953  57.539 -53.692  1.00  0.00    -0.026 A 
HETATM    3  C   UNL     1     -43.118  58.045 -52.391  1.00  0.00     0.010 A 
HETATM    4  C   UNL     1     -42.555  59.270 -52.025  1.00  0.00     0.001 A 
HETATM    5  C   UNL     1     -41.828  60.012 -52.954  1.00  0.00     0.000 A 
HETATM    6  C   UNL     1     -41.669  59.533 -54.251  1.00  0.00     0.001 A 
HETATM    7  C   UNL     1     -42.229  58.308 -54.618  1.00  0.00     0.010 A 
ENDBRANCH   1   2
BRANCH   1   8
HETATM    8  N   UNL     1     -43.765  56.067 -55.516  1.00  0.00    -0.340 N 
HETATM    9  C   UNL     1     -42.817  55.639 -56.410  1.00  0.00     0.253 C 
HETATM   10  O   UNL     1     -41.790  55.060 -56.073  1.00  0.00    -0.268 OA
HETATM   11  H   UNL     1     -44.633  56.437 -55.875  1.00  0.00     0.164 HD
BRANCH   9  12
HETATM   12  C   UNL     1     -43.132  55.801 -57.845  1.00  0.00     0.047 A 
HETATM   13  C   UNL     1     -42.783  56.946 -58.590  1.00  0.00     0.027 A 
HETATM   14  C   UNL     1     -43.177  56.955 -59.926  1.00  0.00     0.138 A 
HETATM   15  C   UNL     1     -42.072  58.165 -58.380  1.00  0.00     0.033 A 
HETATM   16  N   UNL     1     -42.772  58.135 -60.487  1.00  0.00    -0.350 N 
HETATM   17  N   UNL     1     -43.838  55.995 -60.596  1.00  0.00    -0.242 NA
HETATM   18  H   UNL     1     -42.940  58.380 -61.453  1.00  0.00     0.166 HD
HETATM   19  C   UNL     1     -42.096  58.882 -59.559  1.00  0.00     0.090 A 
HETATM   20  C   UNL     1     -44.109  54.907 -59.844  1.00  0.00     0.120 A 
HETATM   21  C   UNL     1     -43.790  54.756 -58.504  1.00  0.00     0.037 A 
ENDBRANCH   9  12
ENDBRANCH   1   8
BRANCH   1  22
HETATM   22  C   UNL     1     -42.919  55.004 -53.302  1.00  0.00     0.245 C 
HETATM   23  N   UNL     1     -41.543  54.946 -53.273  1.00  0.00    -0.354 N 
HETATM   24  H   UNL     1     -41.055  55.805 -53.531  1.00  0.00     0.162 HD
HETATM   25  O   UNL     1     -43.613  54.215 -52.653  1.00  0.00    -0.271 OA
BRANCH  23  26
HETATM   26  C   UNL     1     -40.897  54.102 -52.296  1.00  0.00     0.168 C 
BRANCH  26  27
HETATM   27  C   UNL     1     -40.457  52.808 -52.901  1.00  0.00     0.000 A 
HETATM   28  S   UNL     1     -39.553  51.662 -51.998  1.00  0.00    -0.105 SA
HETATM   29  C   UNL     1     -39.532  50.552 -53.297  1.00  0.00     0.050 A 
HETATM   30  C   UNL     1     -40.216  51.026 -54.393  1.00  0.00     0.008 A 
HETATM   31  C   UNL     1     -40.746  52.329 -54.165  1.00  0.00     0.017 A 
ENDBRANCH  26  27
ENDBRANCH  23  26
ENDBRANCH   1  22
TORSDOF 6
ENDMDL
MODEL 7
REMARK VINA RESULT:      -7.8      3.490      8.016
REMARK  6 active torsions:
REMARK  status: ('A' for Active; 'I' for Inactive)
REMARK    1  A    between atoms: C_4  and  C_5 
REMARK    2  A    between atoms: C_5  and  N_6 
REMARK    3  A    between atoms: C_5  and  C_19 
REMARK       I    between atoms: N_6  and  C_7 
REMARK    4  A    between atoms: C_7  and  C_8 
REMARK       I    between atoms: C_19  and  N_20 
REMARK    5  A    between atoms: N_20  and  C_21 
REMARK    6  A    between atoms: C_21  and  C_22 
ROOT
HETATM    1  C   UNL     1     -41.997  56.346 -55.849  1.00  0.00     0.210 C 
ENDROOT
BRANCH   1   2
HETATM    2  C   UNL     1     -41.636  55.134 -55.001  1.00  0.00    -0.026 A 
HETATM    3  C   UNL     1     -40.552  54.317 -55.365  1.00  0.00     0.010 A 
HETATM    4  C   UNL     1     -40.201  53.209 -54.588  1.00  0.00     0.001 A 
HETATM    5  C   UNL     1     -40.933  52.896 -53.445  1.00  0.00     0.000 A 
HETATM    6  C   UNL     1     -42.020  53.686 -53.080  1.00  0.00     0.001 A 
HETATM    7  C   UNL     1     -42.371  54.794 -53.854  1.00  0.00     0.010 A 
ENDBRANCH   1   2
BRANCH   1   8
HETATM    8  N   UNL     1     -42.789  55.984 -57.027  1.00  0.00    -0.340 N 
HETATM    9  C   UNL     1     -42.905  56.746 -58.162  1.00  0.00     0.253 C 
HETATM   10  O   UNL     1     -42.150  57.675 -58.426  1.00  0.00    -0.268 OA
HETATM   11  H   UNL     1     -43.378  55.169 -56.932  1.00  0.00     0.164 HD
BRANCH   9  12
HETATM   12  C   UNL     1     -43.931  56.330 -59.141  1.00  0.00     0.047 A 
HETATM   13  C   UNL     1     -44.909  57.204 -59.656  1.00  0.00     0.027 A 
HETATM   14  C   UNL     1     -45.822  56.650 -60.552  1.00  0.00     0.138 A 
HETATM   15  C   UNL     1     -45.249  58.587 -59.554  1.00  0.00     0.033 A 
HETATM   16  N   UNL     1     -46.698  57.627 -60.936  1.00  0.00    -0.350 N 
HETATM   17  N   UNL     1     -45.872  55.382 -60.996  1.00  0.00    -0.242 NA
HETATM   18  H   UNL     1     -47.457  57.472 -61.584  1.00  0.00     0.166 HD
HETATM   19  C   UNL     1     -46.361  58.813 -60.338  1.00  0.00     0.090 A 
HETATM   20  C   UNL     1     -44.887  54.602 -60.501  1.00  0.00     0.120 A 
HETATM   21  C   UNL     1     -43.917  55.008 -59.599  1.00  0.00     0.037 A 
ENDBRANCH   9  12
ENDBRANCH   1   8
BRANCH   1  22
HETATM   22  C   UNL     1     -42.448  57.567 -54.996  1.00  0.00     0.245 C 
HETATM   23  N   UNL     1     -41.455  58.351 -54.452  1.00  0.00    -0.354 N 
HETATM   24  H   UNL     1     -40.523  58.229 -54.850  1.00  0.00     0.162 HD
HETATM   25  O   UNL     1     -43.639  57.880 -54.909  1.00  0.00    -0.271 OA
BRANCH  23  26
HETATM   26  C   UNL     1     -41.787  59.671 -53.972  1.00  0.00     0.168 C 
BRANCH  26  27
HETATM   27  C   UNL     1     -41.679  59.752 -52.483  1.00  0.00     0.000 A 
HETATM   28  S   UNL     1     -40.407  58.970 -51.637  1.00  0.00    -0.105 SA
HETATM   29  C   UNL     1     -40.946  59.574 -50.132  1.00  0.00     0.050 A 
HETATM   30  C   UNL     1     -42.057  60.374 -50.263  1.00  0.00     0.008 A 
HETATM   31  C   UNL     1     -42.482  60.474 -51.620  1.00  0.00     0.017 A 
ENDBRANCH  26  27
ENDBRANCH  23  26
ENDBRANCH   1  22
TORSDOF 6
ENDMDL
MODEL 8
REMARK VINA RESULT:      -7.7      3.034      7.637
REMARK  6 active torsions:
REMARK  status: ('A' for Active; 'I' for Inactive)
REMARK    1  A    between atoms: C_4  and  C_5 
REMARK    2  A    between atoms: C_5  and  N_6 
REMARK    3  A    between atoms: C_5  and  C_19 
REMARK       I    between atoms: N_6  and  C_7 
REMARK    4  A    between atoms: C_7  and  C_8 
REMARK       I    between atoms: C_19  and  N_20 
REMARK    5  A    between atoms: N_20  and  C_21 
REMARK    6  A    between atoms: C_21  and  C_22 
ROOT
HETATM    1  C   UNL     1     -41.615  55.756 -54.182  1.00  0.00     0.210 C 
ENDROOT
BRANCH   1   2
HETATM    2  C   UNL     1     -41.005  54.406 -53.825  1.00  0.00    -0.026 A 
HETATM    3  C   UNL     1     -40.707  53.478 -54.838  1.00  0.00     0.010 A 
HETATM    4  C   UNL     1     -40.135  52.242 -54.526  1.00  0.00     0.001 A 
HETATM    5  C   UNL     1     -39.861  51.911 -53.201  1.00  0.00     0.000 A 
HETATM    6  C   UNL     1     -40.165  52.813 -52.185  1.00  0.00     0.001 A 
HETATM    7  C   UNL     1     -40.734  54.049 -52.494  1.00  0.00     0.010 A 
ENDBRANCH   1   2
BRANCH   1   8
HETATM    8  N   UNL     1     -41.756  55.936 -55.628  1.00  0.00    -0.340 N 
HETATM    9  C   UNL     1     -42.328  57.026 -56.232  1.00  0.00     0.253 C 
HETATM   10  O   UNL     1     -42.537  58.084 -55.648  1.00  0.00    -0.268 OA
HETATM   11  H   UNL     1     -41.516  55.140 -56.200  1.00  0.00     0.164 HD
BRANCH   9  12
HETATM   12  C   UNL     1     -42.593  56.922 -57.683  1.00  0.00     0.047 A 
HETATM   13  C   UNL     1     -42.396  57.987 -58.585  1.00  0.00     0.027 A 
HETATM   14  C   UNL     1     -42.719  57.734 -59.917  1.00  0.00     0.138 A 
HETATM   15  C   UNL     1     -41.902  59.325 -58.546  1.00  0.00     0.033 A 
HETATM   16  N   UNL     1     -42.481  58.869 -60.641  1.00  0.00    -0.350 N 
HETATM   17  N   UNL     1     -43.182  56.589 -60.448  1.00  0.00    -0.242 NA
HETATM   18  H   UNL     1     -42.638  58.939 -61.636  1.00  0.00     0.166 HD
HETATM   19  C   UNL     1     -41.982  59.847 -59.821  1.00  0.00     0.090 A 
HETATM   20  C   UNL     1     -43.311  55.594 -59.546  1.00  0.00     0.120 A 
HETATM   21  C   UNL     1     -43.040  55.697 -58.191  1.00  0.00     0.037 A 
ENDBRANCH   9  12
ENDBRANCH   1   8
BRANCH   1  22
HETATM   22  C   UNL     1     -42.811  56.138 -53.263  1.00  0.00     0.245 C 
HETATM   23  N   UNL     1     -42.725  57.336 -52.589  1.00  0.00    -0.354 N 
HETATM   24  H   UNL     1     -42.019  57.990 -52.931  1.00  0.00     0.162 HD
HETATM   25  O   UNL     1     -43.837  55.452 -53.232  1.00  0.00    -0.271 OA
BRANCH  23  26
HETATM   26  C   UNL     1     -43.922  57.913 -52.026  1.00  0.00     0.168 C 
BRANCH  26  27
HETATM   27  C   UNL     1     -43.634  59.216 -51.353  1.00  0.00     0.000 A 
HETATM   28  S   UNL     1     -44.883  60.135 -50.616  1.00  0.00    -0.105 SA
HETATM   29  C   UNL     1     -43.782  61.326 -50.078  1.00  0.00     0.050 A 
HETATM   30  C   UNL     1     -42.485  61.028 -50.429  1.00  0.00     0.008 A 
HETATM   31  C   UNL     1     -42.401  59.812 -51.167  1.00  0.00     0.017 A 
ENDBRANCH  26  27
ENDBRANCH  23  26
ENDBRANCH   1  22
TORSDOF 6
ENDMDL
MODEL 9
REMARK VINA RESULT:      -7.7      1.761      1.947
REMARK  6 active torsions:
REMARK  status: ('A' for Active; 'I' for Inactive)
REMARK    1  A    between atoms: C_4  and  C_5 
REMARK    2  A    between atoms: C_5  and  N_6 
REMARK    3  A    between atoms: C_5  and  C_19 
REMARK       I    between atoms: N_6  and  C_7 
REMARK    4  A    between atoms: C_7  and  C_8 
REMARK       I    between atoms: C_19  and  N_20 
REMARK    5  A    between atoms: N_20  and  C_21 
REMARK    6  A    between atoms: C_21  and  C_22 
ROOT
HETATM    1  C   UNL     1     -42.152  57.011 -54.512  1.00  0.00     0.210 C 
ENDROOT
BRANCH   1   2
HETATM    2  C   UNL     1     -42.981  57.571 -53.364  1.00  0.00    -0.026 A 
HETATM    3  C   UNL     1     -43.049  58.959 -53.155  1.00  0.00     0.010 A 
HETATM    4  C   UNL     1     -43.817  59.487 -52.114  1.00  0.00     0.001 A 
HETATM    5  C   UNL     1     -44.519  58.637 -51.262  1.00  0.00     0.000 A 
HETATM    6  C   UNL     1     -44.449  57.259 -51.445  1.00  0.00     0.001 A 
HETATM    7  C   UNL     1     -43.684  56.730 -52.485  1.00  0.00     0.010 A 
ENDBRANCH   1   2
BRANCH   1   8
HETATM    8  N   UNL     1     -41.401  55.815 -54.123  1.00  0.00    -0.340 N 
HETATM    9  C   UNL     1     -41.856  54.526 -54.244  1.00  0.00     0.253 C 
HETATM   10  O   UNL     1     -42.820  54.218 -54.937  1.00  0.00    -0.268 OA
HETATM   11  H   UNL     1     -40.539  55.975 -53.623  1.00  0.00     0.164 HD
BRANCH   9  12
HETATM   12  C   UNL     1     -41.059  53.473 -53.583  1.00  0.00     0.047 A 
HETATM   13  C   UNL     1     -40.906  53.380 -52.184  1.00  0.00     0.027 A 
HETATM   14  C   UNL     1     -40.099  52.343 -51.720  1.00  0.00     0.138 A 
HETATM   15  C   UNL     1     -41.388  54.054 -51.023  1.00  0.00     0.033 A 
HETATM   16  N   UNL     1     -40.052  52.411 -50.355  1.00  0.00    -0.350 N 
HETATM   17  N   UNL     1     -39.460  51.410 -52.446  1.00  0.00    -0.242 NA
HETATM   18  H   UNL     1     -39.529  51.765 -49.782  1.00  0.00     0.166 HD
HETATM   19  C   UNL     1     -40.833  53.447 -49.915  1.00  0.00     0.090 A 
HETATM   20  C   UNL     1     -39.676  51.524 -53.774  1.00  0.00     0.120 A 
HETATM   21  C   UNL     1     -40.443  52.503 -54.383  1.00  0.00     0.037 A 
ENDBRANCH   9  12
ENDBRANCH   1   8
BRANCH   1  22
HETATM   22  C   UNL     1     -42.923  56.999 -55.863  1.00  0.00     0.245 C 
HETATM   23  N   UNL     1     -42.229  56.576 -56.977  1.00  0.00    -0.354 N 
HETATM   24  H   UNL     1     -41.361  56.071 -56.795  1.00  0.00     0.162 HD
HETATM   25  O   UNL     1     -44.131  57.247 -55.912  1.00  0.00    -0.271 OA
BRANCH  23  26
HETATM   26  C   UNL     1     -42.964  56.198 -58.160  1.00  0.00     0.168 C 
BRANCH  26  27
HETATM   27  C   UNL     1     -42.938  57.285 -59.186  1.00  0.00     0.000 A 
HETATM   28  S   UNL     1     -44.361  58.148 -59.607  1.00  0.00    -0.105 SA
HETATM   29  C   UNL     1     -43.510  59.155 -60.694  1.00  0.00     0.050 A 
HETATM   30  C   UNL     1     -42.166  58.862 -60.726  1.00  0.00     0.008 A 
HETATM   31  C   UNL     1     -41.837  57.781 -59.859  1.00  0.00     0.017 A 
ENDBRANCH  26  27
ENDBRANCH  23  26
ENDBRANCH   1  22
TORSDOF 6
ENDMDL
MODEL 10
REMARK VINA RESULT:      -7.6      2.486      5.899
REMARK  6 active torsions:
REMARK  status: ('A' for Active; 'I' for Inactive)
REMARK    1  A    between atoms: C_4  and  C_5 
REMARK    2  A    between atoms: C_5  and  N_6 
REMARK    3  A    between atoms: C_5  and  C_19 
REMARK       I    between atoms: N_6  and  C_7 
REMARK    4  A    between atoms: C_7  and  C_8 
REMARK       I    between atoms: C_19  and  N_20 
REMARK    5  A    between atoms: N_20  and  C_21 
REMARK    6  A    between atoms: C_21  and  C_22 
ROOT
HETATM    1  C   UNL     1     -42.371  54.437 -53.933  1.00  0.00     0.210 C 
ENDROOT
BRANCH   1   2
HETATM    2  C   UNL     1     -41.357  53.462 -53.352  1.00  0.00    -0.026 A 
HETATM    3  C   UNL     1     -40.842  53.666 -52.060  1.00  0.00     0.010 A 
HETATM    4  C   UNL     1     -39.921  52.771 -51.509  1.00  0.00     0.001 A 
HETATM    5  C   UNL     1     -39.493  51.667 -52.243  1.00  0.00     0.000 A 
HETATM    6  C   UNL     1     -39.980  51.459 -53.531  1.00  0.00     0.001 A 
HETATM    7  C   UNL     1     -40.902  52.351 -54.081  1.00  0.00     0.010 A 
ENDBRANCH   1   2
BRANCH   1   8
HETATM    8  N   UNL     1     -42.647  55.556 -53.029  1.00  0.00    -0.340 N 
HETATM    9  C   UNL     1     -43.581  56.535 -53.251  1.00  0.00     0.253 C 
HETATM   10  O   UNL     1     -44.472  56.435 -54.088  1.00  0.00    -0.268 OA
HETATM   11  H   UNL     1     -42.013  55.663 -52.250  1.00  0.00     0.164 HD
BRANCH   9  12
HETATM   12  C   UNL     1     -43.550  57.704 -52.347  1.00  0.00     0.047 A 
HETATM   13  C   UNL     1     -42.357  58.263 -51.845  1.00  0.00     0.027 A 
HETATM   14  C   UNL     1     -42.500  59.347 -50.981  1.00  0.00     0.138 A 
HETATM   15  C   UNL     1     -40.952  58.059 -51.991  1.00  0.00     0.033 A 
HETATM   16  N   UNL     1     -41.255  59.750 -50.585  1.00  0.00    -0.350 N 
HETATM   17  N   UNL     1     -43.641  59.935 -50.581  1.00  0.00    -0.242 NA
HETATM   18  H   UNL     1     -41.093  60.523 -49.955  1.00  0.00     0.166 HD
HETATM   19  C   UNL     1     -40.302  58.976 -51.192  1.00  0.00     0.090 A 
HETATM   20  C   UNL     1     -44.747  59.384 -51.125  1.00  0.00     0.120 A 
HETATM   21  C   UNL     1     -44.764  58.301 -51.989  1.00  0.00     0.037 A 
ENDBRANCH   9  12
ENDBRANCH   1   8
BRANCH   1  22
HETATM   22  C   UNL     1     -42.122  54.741 -55.439  1.00  0.00     0.245 C 
HETATM   23  N   UNL     1     -43.231  54.828 -56.252  1.00  0.00    -0.354 N 
HETATM   24  H   UNL     1     -44.126  54.940 -55.774  1.00  0.00     0.162 HD
HETATM   25  O   UNL     1     -40.991  55.004 -55.859  1.00  0.00    -0.271 OA
BRANCH  23  26
HETATM   26  C   UNL     1     -43.105  55.454 -57.546  1.00  0.00     0.168 C 
BRANCH  26  27
HETATM   27  C   UNL     1     -43.532  56.886 -57.502  1.00  0.00     0.000 A 
HETATM   28  S   UNL     1     -42.501  58.106 -56.875  1.00  0.00    -0.105 SA
HETATM   29  C   UNL     1     -43.631  59.338 -57.230  1.00  0.00     0.050 A 
HETATM   30  C   UNL     1     -44.764  58.843 -57.833  1.00  0.00     0.008 A 
HETATM   31  C   UNL     1     -44.708  57.428 -57.987  1.00  0.00     0.017 A 
ENDBRANCH  26  27
ENDBRANCH  23  26
ENDBRANCH   1  22
TORSDOF 6
ENDMDL
