MODEL 1
REMARK VINA RESULT:      -8.4      0.000      0.000
REMARK  3 active torsions:
REMARK  status: ('A' for Active; 'I' for Inactive)
REMARK    1  A    between atoms: O_2  and  C_3 
REMARK    2  A    between atoms: C_9  and  C_10 
REMARK       I    between atoms: C_10  and  N_11 
REMARK    3  A    between atoms: N_11  and  C_12 
ROOT
HETATM    1  C   UNL     1     -39.830  51.562 -51.577  1.00  0.00     0.068 A 
HETATM    2  C   UNL     1     -39.934  52.007 -52.898  1.00  0.00     0.044 A 
HETATM    3  C   UNL     1     -40.415  53.292 -53.185  1.00  0.00    -0.043 A 
HETATM    4  C   UNL     1     -40.825  54.129 -52.123  1.00  0.00    -0.001 A 
HETATM    5  C   UNL     1     -41.299  55.453 -52.491  1.00  0.00     0.069 A 
HETATM    6  C   UNL     1     -41.174  56.004 -53.747  1.00  0.00     0.007 A 
HETATM    7  C   UNL     1     -41.734  57.301 -53.654  1.00  0.00     0.153 A 
HETATM    8  N   UNL     1     -42.213  57.527 -52.406  1.00  0.00    -0.168 NA
HETATM    9  N   UNL     1     -41.933  56.389 -51.734  1.00  0.00    -0.276 N 
HETATM   10  H   UNL     1     -42.207  56.325 -50.760  1.00  0.00     0.189 HD
HETATM   11  C   UNL     1     -40.504  55.270 -54.855  1.00  0.00     0.048 C 
HETATM   12  C   UNL     1     -40.584  53.740 -54.634  1.00  0.00     0.044 C 
HETATM   13  C   UNL     1     -40.728  53.682 -50.806  1.00  0.00     0.017 A 
HETATM   14  C   UNL     1     -40.229  52.401 -50.535  1.00  0.00     0.037 A 
ENDROOT
BRANCH   7  15
HETATM   15  C   UNL     1     -41.812  58.337 -54.703  1.00  0.00     0.277 C 
HETATM   16  N   UNL     1     -42.566  57.910 -55.780  1.00  0.00    -0.322 N 
HETATM   17  H   UNL     1     -42.917  56.961 -55.662  1.00  0.00     0.169 HD
HETATM   18  O   UNL     1     -41.265  59.427 -54.585  1.00  0.00    -0.266 OA
BRANCH  16  19
HETATM   19  C   UNL     1     -42.904  58.610 -56.950  1.00  0.00     0.036 A 
HETATM   20  C   UNL     1     -42.242  58.452 -58.171  1.00  0.00     0.056 A 
HETATM   21  C   UNL     1     -42.639  59.199 -59.284  1.00  0.00     0.074 A 
HETATM   22 CL   UNL     1     -41.809  58.997 -60.781  1.00  0.00    -0.081 Cl
HETATM   23  C   UNL     1     -43.695  60.100 -59.180  1.00  0.00     0.138 A 
HETATM   24  F   UNL     1     -44.088  60.826 -60.237  1.00  0.00    -0.204 F 
HETATM   25  C   UNL     1     -44.363  60.265 -57.973  1.00  0.00     0.046 A 
HETATM   26  C   UNL     1     -43.967  59.520 -56.859  1.00  0.00     0.032 A 
ENDBRANCH  16  19
ENDBRANCH   7  15
BRANCH   1  27
HETATM   27  O   UNL     1     -39.333  50.294 -51.442  1.00  0.00    -0.356 OA
HETATM   28  C   UNL     1     -39.551  49.398 -52.525  1.00  0.00     0.210 C 
ENDBRANCH   1  27
TORSDOF 3
ENDMDL
MODEL 2
REMARK VINA RESULT:      -8.4      1.192      1.485
REMARK  3 active torsions:
REMARK  status: ('A' for Active; 'I' for Inactive)
REMARK    1  A    between atoms: O_2  and  C_3 
REMARK    2  A    between atoms: C_9  and  C_10 
REMARK       I    between atoms: C_10  and  N_11 
REMARK    3  A    between atoms: N_11  and  C_12 
ROOT
HETATM    1  C   UNL     1     -39.846  51.655 -51.470  1.00  0.00     0.068 A 
HETATM    2  C   UNL     1     -39.920  51.978 -52.828  1.00  0.00     0.044 A 
HETATM    3  C   UNL     1     -40.469  53.197 -53.247  1.00  0.00    -0.043 A 
HETATM    4  C   UNL     1     -40.979  54.093 -52.280  1.00  0.00    -0.001 A 
HETATM    5  C   UNL     1     -41.521  55.345 -52.782  1.00  0.00     0.069 A 
HETATM    6  C   UNL     1     -41.375  55.793 -54.076  1.00  0.00     0.007 A 
HETATM    7  C   UNL     1     -42.021  57.052 -54.120  1.00  0.00     0.153 A 
HETATM    8  N   UNL     1     -42.568  57.351 -52.917  1.00  0.00    -0.168 NA
HETATM    9  N   UNL     1     -42.246  56.297 -52.137  1.00  0.00    -0.276 N 
HETATM   10  H   UNL     1     -42.559  56.299 -51.172  1.00  0.00     0.189 HD
HETATM   11  C   UNL     1     -40.610  55.013 -55.087  1.00  0.00     0.048 C 
HETATM   12  C   UNL     1     -40.601  53.506 -54.735  1.00  0.00     0.044 C 
HETATM   13  C   UNL     1     -40.912  53.768 -50.926  1.00  0.00     0.017 A 
HETATM   14  C   UNL     1     -40.345  52.552 -50.522  1.00  0.00     0.037 A 
ENDROOT
BRANCH   7  15
HETATM   15  C   UNL     1     -42.118  57.987 -55.260  1.00  0.00     0.277 C 
HETATM   16  N   UNL     1     -42.717  57.389 -56.354  1.00  0.00    -0.322 N 
HETATM   17  H   UNL     1     -42.967  56.417 -56.182  1.00  0.00     0.169 HD
HETATM   18  O   UNL     1     -41.710  59.140 -55.194  1.00  0.00    -0.266 OA
BRANCH  16  19
HETATM   19  C   UNL     1     -43.022  57.950 -57.604  1.00  0.00     0.036 A 
HETATM   20  C   UNL     1     -44.298  58.387 -57.971  1.00  0.00     0.056 A 
HETATM   21  C   UNL     1     -44.515  58.924 -59.244  1.00  0.00     0.074 A 
HETATM   22 CL   UNL     1     -46.096  59.454 -59.682  1.00  0.00    -0.081 Cl
HETATM   23  C   UNL     1     -43.462  59.026 -60.148  1.00  0.00     0.138 A 
HETATM   24  F   UNL     1     -43.653  59.536 -61.374  1.00  0.00    -0.204 F 
HETATM   25  C   UNL     1     -42.188  58.596 -59.796  1.00  0.00     0.046 A 
HETATM   26  C   UNL     1     -41.969  58.059 -58.525  1.00  0.00     0.032 A 
ENDBRANCH  16  19
ENDBRANCH   7  15
BRANCH   1  27
HETATM   27  O   UNL     1     -39.276  50.441 -51.203  1.00  0.00    -0.356 OA
HETATM   28  C   UNL     1     -39.485  49.408 -52.158  1.00  0.00     0.210 C 
ENDBRANCH   1  27
TORSDOF 3
ENDMDL
MODEL 3
REMARK VINA RESULT:      -8.3      4.699      8.867
REMARK  3 active torsions:
REMARK  status: ('A' for Active; 'I' for Inactive)
REMARK    1  A    between atoms: O_2  and  C_3 
REMARK    2  A    between atoms: C_9  and  C_10 
REMARK       I    between atoms: C_10  and  N_11 
REMARK    3  A    between atoms: N_11  and  C_12 
ROOT
HETATM    1  C   UNL     1     -46.610  57.783 -59.761  1.00  0.00     0.068 A 
HETATM    2  C   UNL     1     -45.505  56.931 -59.859  1.00  0.00     0.044 A 
HETATM    3  C   UNL     1     -44.612  56.790 -58.789  1.00  0.00    -0.043 A 
HETATM    4  C   UNL     1     -44.820  57.543 -57.611  1.00  0.00    -0.001 A 
HETATM    5  C   UNL     1     -43.865  57.338 -56.535  1.00  0.00     0.069 A 
HETATM    6  C   UNL     1     -42.927  56.329 -56.509  1.00  0.00     0.007 A 
HETATM    7  C   UNL     1     -42.237  56.480 -55.281  1.00  0.00     0.153 A 
HETATM    8  N   UNL     1     -42.706  57.552 -54.598  1.00  0.00    -0.168 NA
HETATM    9  N   UNL     1     -43.686  58.044 -55.387  1.00  0.00    -0.276 N 
HETATM   10  H   UNL     1     -44.188  58.866 -55.073  1.00  0.00     0.189 HD
HETATM   11  C   UNL     1     -42.831  55.328 -57.607  1.00  0.00     0.048 C 
HETATM   12  C   UNL     1     -43.377  55.907 -58.934  1.00  0.00     0.044 C 
HETATM   13  C   UNL     1     -45.918  58.398 -57.516  1.00  0.00     0.017 A 
HETATM   14  C   UNL     1     -46.811  58.515 -58.589  1.00  0.00     0.037 A 
ENDROOT
BRANCH   7  15
HETATM   15  C   UNL     1     -41.163  55.628 -54.730  1.00  0.00     0.277 C 
HETATM   16  N   UNL     1     -41.678  54.512 -54.098  1.00  0.00    -0.322 N 
HETATM   17  H   UNL     1     -42.696  54.486 -54.115  1.00  0.00     0.169 HD
HETATM   18  O   UNL     1     -39.978  55.915 -54.850  1.00  0.00    -0.266 OA
BRANCH  16  19
HETATM   19  C   UNL     1     -40.989  53.452 -53.486  1.00  0.00     0.036 A 
HETATM   20  C   UNL     1     -40.550  52.313 -54.166  1.00  0.00     0.056 A 
HETATM   21  C   UNL     1     -39.880  51.299 -53.474  1.00  0.00     0.074 A 
HETATM   22 CL   UNL     1     -39.349  49.898 -54.326  1.00  0.00    -0.081 Cl
HETATM   23  C   UNL     1     -39.647  51.422 -52.107  1.00  0.00     0.138 A 
HETATM   24  F   UNL     1     -39.008  50.459 -51.427  1.00  0.00    -0.204 F 
HETATM   25  C   UNL     1     -40.077  52.551 -51.419  1.00  0.00     0.046 A 
HETATM   26  C   UNL     1     -40.747  53.564 -52.109  1.00  0.00     0.032 A 
ENDBRANCH  16  19
ENDBRANCH   7  15
BRANCH   1  27
HETATM   27  O   UNL     1     -47.405  57.814 -60.874  1.00  0.00    -0.356 OA
HETATM   28  C   UNL     1     -47.764  56.561 -61.444  1.00  0.00     0.210 C 
ENDBRANCH   1  27
TORSDOF 3
ENDMDL
MODEL 4
REMARK VINA RESULT:      -8.3      5.194      9.028
REMARK  3 active torsions:
REMARK  status: ('A' for Active; 'I' for Inactive)
REMARK    1  A    between atoms: O_2  and  C_3 
REMARK    2  A    between atoms: C_9  and  C_10 
REMARK       I    between atoms: C_10  and  N_11 
REMARK    3  A    between atoms: N_11  and  C_12 
ROOT
HETATM    1  C   UNL     1     -44.400  62.316 -51.584  1.00  0.00     0.068 A 
HETATM    2  C   UNL     1     -44.661  61.229 -52.423  1.00  0.00     0.044 A 
HETATM    3  C   UNL     1     -44.008  60.004 -52.233  1.00  0.00    -0.043 A 
HETATM    4  C   UNL     1     -43.054  59.883 -51.198  1.00  0.00    -0.001 A 
HETATM    5  C   UNL     1     -42.425  58.582 -51.047  1.00  0.00     0.069 A 
HETATM    6  C   UNL     1     -42.843  57.436 -51.688  1.00  0.00     0.007 A 
HETATM    7  C   UNL     1     -41.981  56.408 -51.236  1.00  0.00     0.153 A 
HETATM    8  N   UNL     1     -41.053  56.904 -50.381  1.00  0.00    -0.168 NA
HETATM    9  N   UNL     1     -41.353  58.218 -50.294  1.00  0.00    -0.276 N 
HETATM   10  H   UNL     1     -40.778  58.804 -49.700  1.00  0.00     0.189 HD
HETATM   11  C   UNL     1     -44.022  57.440 -52.597  1.00  0.00     0.048 C 
HETATM   12  C   UNL     1     -44.255  58.848 -53.197  1.00  0.00     0.044 C 
HETATM   13  C   UNL     1     -42.789  60.970 -50.365  1.00  0.00     0.017 A 
HETATM   14  C   UNL     1     -43.462  62.183 -50.557  1.00  0.00     0.037 A 
ENDROOT
BRANCH   7  15
HETATM   15  C   UNL     1     -42.022  54.971 -51.573  1.00  0.00     0.277 C 
HETATM   16  N   UNL     1     -40.804  54.529 -52.054  1.00  0.00    -0.322 N 
HETATM   17  H   UNL     1     -40.108  55.272 -52.101  1.00  0.00     0.169 HD
HETATM   18  O   UNL     1     -43.033  54.295 -51.421  1.00  0.00    -0.266 OA
BRANCH  16  19
HETATM   19  C   UNL     1     -40.430  53.233 -52.444  1.00  0.00     0.036 A 
HETATM   20  C   UNL     1     -40.028  52.236 -51.551  1.00  0.00     0.056 A 
HETATM   21  C   UNL     1     -39.661  50.974 -52.028  1.00  0.00     0.074 A 
HETATM   22 CL   UNL     1     -39.163  49.758 -50.913  1.00  0.00    -0.081 Cl
HETATM   23  C   UNL     1     -39.696  50.707 -53.393  1.00  0.00     0.138 A 
HETATM   24  F   UNL     1     -39.346  49.503 -53.869  1.00  0.00    -0.204 F 
HETATM   25  C   UNL     1     -40.096  51.688 -54.292  1.00  0.00     0.046 A 
HETATM   26  C   UNL     1     -40.462  52.950 -53.817  1.00  0.00     0.032 A 
ENDBRANCH  16  19
ENDBRANCH   7  15
BRANCH   1  27
HETATM   27  O   UNL     1     -45.117  63.444 -51.875  1.00  0.00    -0.356 OA
HETATM   28  C   UNL     1     -46.194  63.767 -51.003  1.00  0.00     0.210 C 
ENDBRANCH   1  27
TORSDOF 3
ENDMDL
MODEL 5
REMARK VINA RESULT:      -8.3      4.058      4.936
REMARK  3 active torsions:
REMARK  status: ('A' for Active; 'I' for Inactive)
REMARK    1  A    between atoms: O_2  and  C_3 
REMARK    2  A    between atoms: C_9  and  C_10 
REMARK       I    between atoms: C_10  and  N_11 
REMARK    3  A    between atoms: N_11  and  C_12 
ROOT
HETATM    1  C   UNL     1     -39.759  50.943 -52.722  1.00  0.00     0.068 A 
HETATM    2  C   UNL     1     -39.922  51.979 -51.797  1.00  0.00     0.044 A 
HETATM    3  C   UNL     1     -40.321  53.256 -52.213  1.00  0.00    -0.043 A 
HETATM    4  C   UNL     1     -40.531  53.500 -53.589  1.00  0.00    -0.001 A 
HETATM    5  C   UNL     1     -40.957  54.841 -53.950  1.00  0.00     0.069 A 
HETATM    6  C   UNL     1     -41.367  55.797 -53.047  1.00  0.00     0.007 A 
HETATM    7  C   UNL     1     -41.720  56.929 -53.821  1.00  0.00     0.153 A 
HETATM    8  N   UNL     1     -41.505  56.693 -55.138  1.00  0.00    -0.168 NA
HETATM    9  N   UNL     1     -41.044  55.424 -55.176  1.00  0.00    -0.276 N 
HETATM   10  H   UNL     1     -40.809  55.024 -56.077  1.00  0.00     0.189 HD
HETATM   11  C   UNL     1     -41.426  55.513 -51.587  1.00  0.00     0.048 C 
HETATM   12  C   UNL     1     -40.432  54.391 -51.200  1.00  0.00     0.044 C 
HETATM   13  C   UNL     1     -40.361  52.468 -54.513  1.00  0.00     0.017 A 
HETATM   14  C   UNL     1     -39.977  51.193 -54.079  1.00  0.00     0.037 A 
ENDROOT
BRANCH   7  15
HETATM   15  C   UNL     1     -42.271  58.217 -53.353  1.00  0.00     0.277 C 
HETATM   16  N   UNL     1     -43.575  58.080 -52.915  1.00  0.00    -0.322 N 
HETATM   17  H   UNL     1     -43.922  57.126 -53.007  1.00  0.00     0.169 HD
HETATM   18  O   UNL     1     -41.611  59.250 -53.363  1.00  0.00    -0.266 OA
BRANCH  16  19
HETATM   19  C   UNL     1     -44.425  59.053 -52.365  1.00  0.00     0.036 A 
HETATM   20  C   UNL     1     -44.470  59.369 -51.004  1.00  0.00     0.056 A 
HETATM   21  C   UNL     1     -45.356  60.346 -50.541  1.00  0.00     0.074 A 
HETATM   22 CL   UNL     1     -45.403  60.719 -48.859  1.00  0.00    -0.081 Cl
HETATM   23  C   UNL     1     -46.195  61.007 -51.434  1.00  0.00     0.138 A 
HETATM   24  F   UNL     1     -47.053  61.945 -51.007  1.00  0.00    -0.204 F 
HETATM   25  C   UNL     1     -46.159  60.705 -52.790  1.00  0.00     0.046 A 
HETATM   26  C   UNL     1     -45.274  59.728 -53.254  1.00  0.00     0.032 A 
ENDBRANCH  16  19
ENDBRANCH   7  15
BRANCH   1  27
HETATM   27  O   UNL     1     -39.379  49.748 -52.176  1.00  0.00    -0.356 OA
HETATM   28  C   UNL     1     -39.504  49.614 -50.766  1.00  0.00     0.210 C 
ENDBRANCH   1  27
TORSDOF 3
ENDMDL
MODEL 6
REMARK VINA RESULT:      -8.1      4.192      4.853
REMARK  3 active torsions:
REMARK  status: ('A' for Active; 'I' for Inactive)
REMARK    1  A    between atoms: O_2  and  C_3 
REMARK    2  A    between atoms: C_9  and  C_10 
REMARK       I    between atoms: C_10  and  N_11 
REMARK    3  A    between atoms: N_11  and  C_12 
ROOT
HETATM    1  C   UNL     1     -39.718  51.114 -52.802  1.00  0.00     0.068 A 
HETATM    2  C   UNL     1     -40.249  52.102 -53.637  1.00  0.00     0.044 A 
HETATM    3  C   UNL     1     -40.643  53.342 -53.118  1.00  0.00    -0.043 A 
HETATM    4  C   UNL     1     -40.528  53.579 -51.730  1.00  0.00    -0.001 A 
HETATM    5  C   UNL     1     -40.941  54.891 -51.261  1.00  0.00     0.069 A 
HETATM    6  C   UNL     1     -41.224  55.958 -52.085  1.00  0.00     0.007 A 
HETATM    7  C   UNL     1     -41.549  57.033 -51.222  1.00  0.00     0.153 A 
HETATM    8  N   UNL     1     -41.502  56.636 -49.927  1.00  0.00    -0.168 NA
HETATM    9  N   UNL     1     -41.133  55.339 -49.991  1.00  0.00    -0.276 N 
HETATM   10  H   UNL     1     -41.033  54.823 -49.125  1.00  0.00     0.189 HD
HETATM   11  C   UNL     1     -41.104  55.851 -53.565  1.00  0.00     0.048 C 
HETATM   12  C   UNL     1     -41.280  54.386 -54.031  1.00  0.00     0.044 C 
HETATM   13  C   UNL     1     -40.005  52.591 -50.896  1.00  0.00     0.017 A 
HETATM   14  C   UNL     1     -39.600  51.361 -51.433  1.00  0.00     0.037 A 
ENDROOT
BRANCH   7  15
HETATM   15  C   UNL     1     -41.884  58.425 -51.586  1.00  0.00     0.277 C 
HETATM   16  N   UNL     1     -43.032  58.852 -50.947  1.00  0.00    -0.322 N 
HETATM   17  H   UNL     1     -43.444  58.131 -50.356  1.00  0.00     0.169 HD
HETATM   18  O   UNL     1     -41.194  59.080 -52.358  1.00  0.00    -0.266 OA
BRANCH  16  19
HETATM   19  C   UNL     1     -43.652  60.111 -50.999  1.00  0.00     0.036 A 
HETATM   20  C   UNL     1     -44.546  60.498 -52.002  1.00  0.00     0.056 A 
HETATM   21  C   UNL     1     -45.108  61.778 -51.982  1.00  0.00     0.074 A 
HETATM   22 CL   UNL     1     -46.205  62.241 -53.228  1.00  0.00    -0.081 Cl
HETATM   23  C   UNL     1     -44.781  62.669 -50.965  1.00  0.00     0.138 A 
HETATM   24  F   UNL     1     -45.309  63.902 -50.932  1.00  0.00    -0.204 F 
HETATM   25  C   UNL     1     -43.895  62.297 -49.961  1.00  0.00     0.046 A 
HETATM   26  C   UNL     1     -43.331  61.019 -49.979  1.00  0.00     0.032 A 
ENDBRANCH  16  19
ENDBRANCH   7  15
BRANCH   1  27
HETATM   27  O   UNL     1     -39.364  49.959 -53.443  1.00  0.00    -0.356 OA
HETATM   28  C   UNL     1     -39.820  49.797 -54.780  1.00  0.00     0.210 C 
ENDBRANCH   1  27
TORSDOF 3
ENDMDL
MODEL 7
REMARK VINA RESULT:      -8.1      4.964      5.916
REMARK  3 active torsions:
REMARK  status: ('A' for Active; 'I' for Inactive)
REMARK    1  A    between atoms: O_2  and  C_3 
REMARK    2  A    between atoms: C_9  and  C_10 
REMARK       I    between atoms: C_10  and  N_11 
REMARK    3  A    between atoms: N_11  and  C_12 
ROOT
HETATM    1  C   UNL     1     -40.139  52.013 -53.212  1.00  0.00     0.068 A 
HETATM    2  C   UNL     1     -40.234  52.820 -52.074  1.00  0.00     0.044 A 
HETATM    3  C   UNL     1     -41.102  53.920 -52.046  1.00  0.00    -0.043 A 
HETATM    4  C   UNL     1     -41.863  54.229 -53.196  1.00  0.00    -0.001 A 
HETATM    5  C   UNL     1     -42.752  55.373 -53.094  1.00  0.00     0.069 A 
HETATM    6  C   UNL     1     -43.052  56.024 -51.917  1.00  0.00     0.007 A 
HETATM    7  C   UNL     1     -43.969  57.045 -52.267  1.00  0.00     0.153 A 
HETATM    8  N   UNL     1     -44.198  57.045 -53.603  1.00  0.00    -0.168 NA
HETATM    9  N   UNL     1     -43.446  56.023 -54.067  1.00  0.00    -0.276 N 
HETATM   10  H   UNL     1     -43.456  55.831 -55.062  1.00  0.00     0.189 HD
HETATM   11  C   UNL     1     -42.486  55.576 -50.615  1.00  0.00     0.048 C 
HETATM   12  C   UNL     1     -41.147  54.828 -50.821  1.00  0.00     0.044 C 
HETATM   13  C   UNL     1     -41.763  53.427 -54.333  1.00  0.00     0.017 A 
HETATM   14  C   UNL     1     -40.903  52.321 -54.339  1.00  0.00     0.037 A 
ENDROOT
BRANCH   7  15
HETATM   15  C   UNL     1     -44.648  58.005 -51.373  1.00  0.00     0.277 C 
HETATM   16  N   UNL     1     -44.206  59.297 -51.591  1.00  0.00    -0.322 N 
HETATM   17  H   UNL     1     -43.488  59.350 -52.312  1.00  0.00     0.169 HD
HETATM   18  O   UNL     1     -45.495  57.653 -50.562  1.00  0.00    -0.266 OA
BRANCH  16  19
HETATM   19  C   UNL     1     -44.629  60.486 -50.976  1.00  0.00     0.036 A 
HETATM   20  C   UNL     1     -45.848  61.113 -51.247  1.00  0.00     0.056 A 
HETATM   21  C   UNL     1     -46.185  62.303 -50.595  1.00  0.00     0.074 A 
HETATM   22 CL   UNL     1     -47.690  63.065 -50.946  1.00  0.00    -0.081 Cl
HETATM   23  C   UNL     1     -45.308  62.866 -49.673  1.00  0.00     0.138 A 
HETATM   24  F   UNL     1     -45.613  64.008 -49.040  1.00  0.00    -0.204 F 
HETATM   25  C   UNL     1     -44.093  62.252 -49.392  1.00  0.00     0.046 A 
HETATM   26  C   UNL     1     -43.755  61.063 -50.043  1.00  0.00     0.032 A 
ENDBRANCH  16  19
ENDBRANCH   7  15
BRANCH   1  27
HETATM   27  O   UNL     1     -39.264  50.967 -53.095  1.00  0.00    -0.356 OA
HETATM   28  C   UNL     1     -39.475  49.852 -53.953  1.00  0.00     0.210 C 
ENDBRANCH   1  27
TORSDOF 3
ENDMDL
MODEL 8
REMARK VINA RESULT:      -7.9     15.728     17.348
REMARK  3 active torsions:
REMARK  status: ('A' for Active; 'I' for Inactive)
REMARK    1  A    between atoms: O_2  and  C_3 
REMARK    2  A    between atoms: C_9  and  C_10 
REMARK       I    between atoms: C_10  and  N_11 
REMARK    3  A    between atoms: N_11  and  C_12 
ROOT
HETATM    1  C   UNL     1     -32.487  38.565 -49.384  1.00  0.00     0.068 A 
HETATM    2  C   UNL     1     -33.385  37.961 -50.270  1.00  0.00     0.044 A 
HETATM    3  C   UNL     1     -34.138  38.733 -51.165  1.00  0.00    -0.043 A 
HETATM    4  C   UNL     1     -34.004  40.140 -51.146  1.00  0.00    -0.001 A 
HETATM    5  C   UNL     1     -34.803  40.877 -52.110  1.00  0.00     0.069 A 
HETATM    6  C   UNL     1     -35.495  40.300 -53.152  1.00  0.00     0.007 A 
HETATM    7  C   UNL     1     -36.099  41.373 -53.851  1.00  0.00     0.153 A 
HETATM    8  N   UNL     1     -35.820  42.554 -53.248  1.00  0.00    -0.168 NA
HETATM    9  N   UNL     1     -35.037  42.214 -52.201  1.00  0.00    -0.276 N 
HETATM   10  H   UNL     1     -34.701  42.951 -51.592  1.00  0.00     0.189 HD
HETATM   11  C   UNL     1     -35.459  38.831 -53.390  1.00  0.00     0.048 C 
HETATM   12  C   UNL     1     -35.160  38.065 -52.079  1.00  0.00     0.044 C 
HETATM   13  C   UNL     1     -33.113  40.743 -50.258  1.00  0.00     0.017 A 
HETATM   14  C   UNL     1     -32.356  39.956 -49.381  1.00  0.00     0.037 A 
ENDROOT
BRANCH   7  15
HETATM   15  C   UNL     1     -36.916  41.314 -55.081  1.00  0.00     0.277 C 
HETATM   16  N   UNL     1     -36.128  41.125 -56.201  1.00  0.00    -0.322 N 
HETATM   17  H   UNL     1     -35.135  41.076 -55.979  1.00  0.00     0.169 HD
HETATM   18  O   UNL     1     -38.136  41.418 -55.058  1.00  0.00    -0.266 OA
BRANCH  16  19
HETATM   19  C   UNL     1     -36.525  40.980 -57.540  1.00  0.00     0.036 A 
HETATM   20  C   UNL     1     -36.777  42.053 -58.399  1.00  0.00     0.056 A 
HETATM   21  C   UNL     1     -37.179  41.815 -59.717  1.00  0.00     0.074 A 
HETATM   22 CL   UNL     1     -37.491  43.150 -60.762  1.00  0.00    -0.081 Cl
HETATM   23  C   UNL     1     -37.328  40.511 -60.178  1.00  0.00     0.138 A 
HETATM   24  F   UNL     1     -37.715  40.264 -61.438  1.00  0.00    -0.204 F 
HETATM   25  C   UNL     1     -37.079  39.434 -59.335  1.00  0.00     0.046 A 
HETATM   26  C   UNL     1     -36.678  39.669 -58.017  1.00  0.00     0.032 A 
ENDBRANCH  16  19
ENDBRANCH   7  15
BRANCH   1  27
HETATM   27  O   UNL     1     -31.810  37.693 -48.578  1.00  0.00    -0.356 OA
HETATM   28  C   UNL     1     -31.661  38.060 -47.212  1.00  0.00     0.210 C 
ENDBRANCH   1  27
TORSDOF 3
ENDMDL
MODEL 9
REMARK VINA RESULT:      -7.9      4.961      5.955
REMARK  3 active torsions:
REMARK  status: ('A' for Active; 'I' for Inactive)
REMARK    1  A    between atoms: O_2  and  C_3 
REMARK    2  A    between atoms: C_9  and  C_10 
REMARK       I    between atoms: C_10  and  N_11 
REMARK    3  A    between atoms: N_11  and  C_12 
ROOT
HETATM    1  C   UNL     1     -40.154  51.866 -53.182  1.00  0.00     0.068 A 
HETATM    2  C   UNL     1     -40.117  52.503 -51.938  1.00  0.00     0.044 A 
HETATM    3  C   UNL     1     -40.399  53.871 -51.826  1.00  0.00    -0.043 A 
HETATM    4  C   UNL     1     -40.694  54.614 -52.991  1.00  0.00    -0.001 A 
HETATM    5  C   UNL     1     -40.990  56.024 -52.801  1.00  0.00     0.069 A 
HETATM    6  C   UNL     1     -41.209  56.615 -51.576  1.00  0.00     0.007 A 
HETATM    7  C   UNL     1     -41.491  57.975 -51.852  1.00  0.00     0.153 A 
HETATM    8  N   UNL     1     -41.416  58.218 -53.184  1.00  0.00    -0.168 NA
HETATM    9  N   UNL     1     -41.111  57.018 -53.722  1.00  0.00    -0.276 N 
HETATM   10  H   UNL     1     -41.000  56.955 -54.727  1.00  0.00     0.189 HD
HETATM   11  C   UNL     1     -41.177  55.825 -50.315  1.00  0.00     0.048 C 
HETATM   12  C   UNL     1     -40.292  54.566 -50.472  1.00  0.00     0.044 C 
HETATM   13  C   UNL     1     -40.723  53.979 -54.233  1.00  0.00     0.017 A 
HETATM   14  C   UNL     1     -40.456  52.607 -54.326  1.00  0.00     0.037 A 
ENDROOT
BRANCH   7  15
HETATM   15  C   UNL     1     -41.847  59.044 -50.897  1.00  0.00     0.277 C 
HETATM   16  N   UNL     1     -43.013  59.686 -51.268  1.00  0.00    -0.322 N 
HETATM   17  H   UNL     1     -43.405  59.319 -52.134  1.00  0.00     0.169 HD
HETATM   18  O   UNL     1     -41.164  59.288 -49.909  1.00  0.00    -0.266 OA
BRANCH  16  19
HETATM   19  C   UNL     1     -43.696  60.721 -50.608  1.00  0.00     0.036 A 
HETATM   20  C   UNL     1     -43.134  61.969 -50.325  1.00  0.00     0.056 A 
HETATM   21  C   UNL     1     -43.884  62.938 -49.653  1.00  0.00     0.074 A 
HETATM   22 CL   UNL     1     -43.174  64.470 -49.307  1.00  0.00    -0.081 Cl
HETATM   23  C   UNL     1     -45.192  62.665 -49.266  1.00  0.00     0.138 A 
HETATM   24  F   UNL     1     -45.925  63.582 -48.618  1.00  0.00    -0.204 F 
HETATM   25  C   UNL     1     -45.764  61.429 -49.543  1.00  0.00     0.046 A 
HETATM   26  C   UNL     1     -45.016  60.458 -50.213  1.00  0.00     0.032 A 
ENDBRANCH  16  19
ENDBRANCH   7  15
BRANCH   1  27
HETATM   27  O   UNL     1     -39.872  50.528 -53.143  1.00  0.00    -0.356 OA
HETATM   28  C   UNL     1     -39.823  49.843 -54.389  1.00  0.00     0.210 C 
ENDBRANCH   1  27
TORSDOF 3
ENDMDL
MODEL 10
REMARK VINA RESULT:      -7.9      3.639      4.654
REMARK  3 active torsions:
REMARK  status: ('A' for Active; 'I' for Inactive)
REMARK    1  A    between atoms: O_2  and  C_3 
REMARK    2  A    between atoms: C_9  and  C_10 
REMARK       I    between atoms: C_10  and  N_11 
REMARK    3  A    between atoms: N_11  and  C_12 
ROOT
HETATM    1  C   UNL     1     -39.690  51.017 -52.641  1.00  0.00     0.068 A 
HETATM    2  C   UNL     1     -40.085  52.046 -51.780  1.00  0.00     0.044 A 
HETATM    3  C   UNL     1     -40.570  53.259 -52.289  1.00  0.00    -0.043 A 
HETATM    4  C   UNL     1     -40.630  53.447 -53.688  1.00  0.00    -0.001 A 
HETATM    5  C   UNL     1     -41.156  54.721 -54.147  1.00  0.00     0.069 A 
HETATM    6  C   UNL     1     -41.783  55.642 -53.336  1.00  0.00     0.007 A 
HETATM    7  C   UNL     1     -42.160  56.708 -54.188  1.00  0.00     0.153 A 
HETATM    8  N   UNL     1     -41.754  56.471 -55.459  1.00  0.00    -0.168 NA
HETATM    9  N   UNL     1     -41.152  55.264 -55.394  1.00  0.00    -0.276 N 
HETATM   10  H   UNL     1     -40.760  54.875 -56.244  1.00  0.00     0.189 HD
HETATM   11  C   UNL     1     -41.994  55.384 -51.885  1.00  0.00     0.048 C 
HETATM   12  C   UNL     1     -40.937  54.394 -51.339  1.00  0.00     0.044 C 
HETATM   13  C   UNL     1     -40.228  52.423 -54.546  1.00  0.00     0.017 A 
HETATM   14  C   UNL     1     -39.761  51.211 -54.022  1.00  0.00     0.037 A 
ENDROOT
BRANCH   7  15
HETATM   15  C   UNL     1     -42.908  57.933 -53.838  1.00  0.00     0.277 C 
HETATM   16  N   UNL     1     -42.183  58.740 -52.981  1.00  0.00    -0.322 N 
HETATM   17  H   UNL     1     -41.278  58.341 -52.737  1.00  0.00     0.169 HD
HETATM   18  O   UNL     1     -44.026  58.163 -54.283  1.00  0.00    -0.266 OA
BRANCH  16  19
HETATM   19  C   UNL     1     -42.527  59.995 -52.453  1.00  0.00     0.036 A 
HETATM   20  C   UNL     1     -42.777  61.127 -53.234  1.00  0.00     0.056 A 
HETATM   21  C   UNL     1     -43.103  62.341 -52.623  1.00  0.00     0.074 A 
HETATM   22 CL   UNL     1     -43.403  63.729 -53.601  1.00  0.00    -0.081 Cl
HETATM   23  C   UNL     1     -43.183  62.426 -51.237  1.00  0.00     0.138 A 
HETATM   24  F   UNL     1     -43.492  63.583 -50.633  1.00  0.00    -0.204 F 
HETATM   25  C   UNL     1     -42.939  61.308 -50.448  1.00  0.00     0.046 A 
HETATM   26  C   UNL     1     -42.612  60.094 -51.057  1.00  0.00     0.032 A 
ENDBRANCH  16  19
ENDBRANCH   7  15
BRANCH   1  27
HETATM   27  O   UNL     1     -39.250  49.886 -52.010  1.00  0.00    -0.356 OA
HETATM   28  C   UNL     1     -39.581  49.745 -50.634  1.00  0.00     0.210 C 
ENDBRANCH   1  27
TORSDOF 3
ENDMDL
