MODEL 1
REMARK VINA RESULT:      -8.3      0.000      0.000
REMARK  5 active torsions:
REMARK  status: ('A' for Active; 'I' for Inactive)
REMARK    1  A    between atoms: C_2  and  C_3 
REMARK       I    between atoms: C_3  and  N_4 
REMARK    2  A    between atoms: N_4  and  C_5 
REMARK    3  A    between atoms: C_8  and  C_9 
REMARK       I    between atoms: C_9  and  N_10 
REMARK    4  A    between atoms: N_10  and  N_11 
REMARK    5  A    between atoms: C_12  and  C_13 
ROOT
HETATM    1  C   UNL     1     -37.157  41.652 -58.839  1.00  0.00     0.271 C 
HETATM    2  N   UNL     1     -37.499  40.347 -59.172  1.00  0.00    -0.243 N 
HETATM    3  O   UNL     1     -37.219  42.624 -59.584  1.00  0.00    -0.266 OA
HETATM    4  H   UNL     1     -37.706  39.694 -58.423  1.00  0.00     0.192 HD
ENDROOT
BRANCH   2   5
HETATM    5  N   UNL     1     -37.945  39.917 -60.398  1.00  0.00    -0.183 NA
HETATM    6  C   UNL     1     -38.404  38.710 -60.503  1.00  0.00     0.153 C 
BRANCH   6   7
HETATM    7  C   UNL     1     -38.871  38.209 -61.786  1.00  0.00     0.018 A 
HETATM    8  C   UNL     1     -40.235  37.900 -62.112  1.00  0.00     0.004 A 
HETATM    9  C   UNL     1     -40.263  37.470 -63.438  1.00  0.00     0.043 A 
HETATM   10  C   UNL     1     -41.451  37.947 -61.398  1.00  0.00     0.014 A 
HETATM   11  C   UNL     1     -41.444  37.088 -64.087  1.00  0.00     0.030 A 
HETATM   12  N   UNL     1     -38.971  37.506 -63.900  1.00  0.00    -0.358 N 
HETATM   13  C   UNL     1     -42.635  37.148 -63.359  1.00  0.00     0.002 A 
HETATM   14  C   UNL     1     -42.642  37.569 -62.032  1.00  0.00     0.001 A 
HETATM   15  H   UNL     1     -38.696  37.242 -64.835  1.00  0.00     0.166 HD
HETATM   16  C   UNL     1     -38.114  37.950 -62.923  1.00  0.00     0.018 A 
HETATM   17  C   UNL     1     -36.657  38.085 -63.183  1.00  0.00     0.069 C 
ENDBRANCH   6   7
ENDBRANCH   2   5
BRANCH   1  18
HETATM   18  C   UNL     1     -36.705  41.856 -57.432  1.00  0.00     0.033 A 
HETATM   19  C   UNL     1     -37.600  41.898 -56.358  1.00  0.00     0.019 A 
HETATM   20  C   UNL     1     -37.124  42.040 -55.047  1.00  0.00     0.030 A 
HETATM   21  C   UNL     1     -35.755  42.136 -54.791  1.00  0.00     0.034 A 
HETATM   22  C   UNL     1     -34.862  42.096 -55.870  1.00  0.00     0.030 A 
HETATM   23  C   UNL     1     -35.332  41.950 -57.179  1.00  0.00     0.019 A 
BRANCH  21  24
HETATM   24  N   UNL     1     -35.197  42.252 -53.502  1.00  0.00    -0.327 N 
HETATM   25  C   UNL     1     -34.984  41.243 -52.581  1.00  0.00     0.221 C 
HETATM   26  O   UNL     1     -35.294  40.062 -52.711  1.00  0.00    -0.273 OA
HETATM   27  H   UNL     1     -34.891  43.180 -53.239  1.00  0.00     0.169 HD
BRANCH  25  28
HETATM   28  C   UNL     1     -34.332  41.728 -51.295  1.00  0.00     0.098 C 
HETATM   29  C   UNL     1     -33.531  40.650 -50.583  1.00  0.00     0.014 C 
ENDBRANCH  25  28
ENDBRANCH  21  24
ENDBRANCH   1  18
TORSDOF 5
ENDMDL
MODEL 2
REMARK VINA RESULT:      -8.2     15.404     19.194
REMARK  5 active torsions:
REMARK  status: ('A' for Active; 'I' for Inactive)
REMARK    1  A    between atoms: C_2  and  C_3 
REMARK       I    between atoms: C_3  and  N_4 
REMARK    2  A    between atoms: N_4  and  C_5 
REMARK    3  A    between atoms: C_8  and  C_9 
REMARK       I    between atoms: C_9  and  N_10 
REMARK    4  A    between atoms: N_10  and  N_11 
REMARK    5  A    between atoms: C_12  and  C_13 
ROOT
HETATM    1  C   UNL     1     -42.481  56.390 -56.432  1.00  0.00     0.271 C 
HETATM    2  N   UNL     1     -42.140  55.061 -56.213  1.00  0.00    -0.243 N 
HETATM    3  O   UNL     1     -42.116  57.347 -55.755  1.00  0.00    -0.266 OA
HETATM    4  H   UNL     1     -42.229  54.405 -56.983  1.00  0.00     0.192 HD
ENDROOT
BRANCH   2   5
HETATM    5  N   UNL     1     -41.354  54.586 -55.191  1.00  0.00    -0.183 NA
HETATM    6  C   UNL     1     -41.930  54.040 -54.168  1.00  0.00     0.153 C 
BRANCH   6   7
HETATM    7  C   UNL     1     -41.137  53.539 -53.057  1.00  0.00     0.018 A 
HETATM    8  C   UNL     1     -41.110  54.098 -51.735  1.00  0.00     0.004 A 
HETATM    9  C   UNL     1     -40.245  53.321 -50.966  1.00  0.00     0.043 A 
HETATM   10  C   UNL     1     -41.743  55.200 -51.120  1.00  0.00     0.014 A 
HETATM   11  C   UNL     1     -39.984  53.584 -49.615  1.00  0.00     0.030 A 
HETATM   12  N   UNL     1     -39.758  52.332 -51.785  1.00  0.00    -0.358 N 
HETATM   13  C   UNL     1     -40.628  54.677 -49.031  1.00  0.00     0.002 A 
HETATM   14  C   UNL     1     -41.494  55.478 -49.770  1.00  0.00     0.001 A 
HETATM   15  H   UNL     1     -39.103  51.622 -51.490  1.00  0.00     0.166 HD
HETATM   16  C   UNL     1     -40.282  52.442 -53.050  1.00  0.00     0.018 A 
HETATM   17  C   UNL     1     -39.913  51.480 -54.120  1.00  0.00     0.069 C 
ENDBRANCH   6   7
ENDBRANCH   2   5
BRANCH   1  18
HETATM   18  C   UNL     1     -43.346  56.642 -57.620  1.00  0.00     0.033 A 
HETATM   19  C   UNL     1     -43.314  55.825 -58.755  1.00  0.00     0.019 A 
HETATM   20  C   UNL     1     -44.183  56.071 -59.828  1.00  0.00     0.030 A 
HETATM   21  C   UNL     1     -45.096  57.126 -59.779  1.00  0.00     0.034 A 
HETATM   22  C   UNL     1     -45.122  57.944 -58.642  1.00  0.00     0.030 A 
HETATM   23  C   UNL     1     -44.260  57.700 -57.568  1.00  0.00     0.019 A 
BRANCH  21  24
HETATM   24  N   UNL     1     -46.019  57.421 -60.802  1.00  0.00    -0.327 N 
HETATM   25  C   UNL     1     -47.265  56.855 -61.002  1.00  0.00     0.221 C 
HETATM   26  O   UNL     1     -47.767  55.950 -60.342  1.00  0.00    -0.273 OA
HETATM   27  H   UNL     1     -45.745  58.155 -61.442  1.00  0.00     0.169 HD
BRANCH  25  28
HETATM   28  C   UNL     1     -48.007  57.437 -62.195  1.00  0.00     0.098 C 
HETATM   29  C   UNL     1     -48.286  58.925 -62.062  1.00  0.00     0.014 C 
ENDBRANCH  25  28
ENDBRANCH  21  24
ENDBRANCH   1  18
TORSDOF 5
ENDMDL
MODEL 3
REMARK VINA RESULT:      -8.1     15.254     18.822
REMARK  5 active torsions:
REMARK  status: ('A' for Active; 'I' for Inactive)
REMARK    1  A    between atoms: C_2  and  C_3 
REMARK       I    between atoms: C_3  and  N_4 
REMARK    2  A    between atoms: N_4  and  C_5 
REMARK    3  A    between atoms: C_8  and  C_9 
REMARK       I    between atoms: C_9  and  N_10 
REMARK    4  A    between atoms: N_10  and  N_11 
REMARK    5  A    between atoms: C_12  and  C_13 
ROOT
HETATM    1  C   UNL     1     -42.702  56.664 -56.910  1.00  0.00     0.271 C 
HETATM    2  N   UNL     1     -42.482  55.307 -56.710  1.00  0.00    -0.243 N 
HETATM    3  O   UNL     1     -42.196  57.577 -56.266  1.00  0.00    -0.266 OA
HETATM    4  H   UNL     1     -42.692  54.664 -57.467  1.00  0.00     0.192 HD
ENDROOT
BRANCH   2   5
HETATM    5  N   UNL     1     -41.677  54.753 -55.744  1.00  0.00    -0.183 NA
HETATM    6  C   UNL     1     -42.208  54.421 -54.609  1.00  0.00     0.153 C 
BRANCH   6   7
HETATM    7  C   UNL     1     -41.389  53.847 -53.553  1.00  0.00     0.018 A 
HETATM    8  C   UNL     1     -40.811  52.532 -53.570  1.00  0.00     0.004 A 
HETATM    9  C   UNL     1     -40.088  52.375 -52.390  1.00  0.00     0.043 A 
HETATM   10  C   UNL     1     -40.839  51.458 -54.485  1.00  0.00     0.014 A 
HETATM   11  C   UNL     1     -39.388  51.202 -52.077  1.00  0.00     0.030 A 
HETATM   12  N   UNL     1     -40.224  53.541 -51.677  1.00  0.00    -0.358 N 
HETATM   13  C   UNL     1     -39.428  50.156 -53.003  1.00  0.00     0.002 A 
HETATM   14  C   UNL     1     -40.145  50.278 -54.190  1.00  0.00     0.001 A 
HETATM   15  H   UNL     1     -39.803  53.705 -50.773  1.00  0.00     0.166 HD
HETATM   16  C   UNL     1     -41.002  54.443 -52.359  1.00  0.00     0.018 A 
HETATM   17  C   UNL     1     -41.290  55.788 -51.796  1.00  0.00     0.069 C 
ENDBRANCH   6   7
ENDBRANCH   2   5
BRANCH   1  18
HETATM   18  C   UNL     1     -43.620  57.005 -58.035  1.00  0.00     0.033 A 
HETATM   19  C   UNL     1     -43.440  56.497 -59.326  1.00  0.00     0.019 A 
HETATM   20  C   UNL     1     -44.358  56.804 -60.341  1.00  0.00     0.030 A 
HETATM   21  C   UNL     1     -45.466  57.612 -60.079  1.00  0.00     0.034 A 
HETATM   22  C   UNL     1     -45.641  58.120 -58.786  1.00  0.00     0.030 A 
HETATM   23  C   UNL     1     -44.730  57.813 -57.769  1.00  0.00     0.019 A 
BRANCH  21  24
HETATM   24  N   UNL     1     -46.447  57.943 -61.036  1.00  0.00    -0.327 N 
HETATM   25  C   UNL     1     -47.606  57.248 -61.330  1.00  0.00     0.221 C 
HETATM   26  O   UNL     1     -47.959  56.181 -60.837  1.00  0.00    -0.273 OA
HETATM   27  H   UNL     1     -46.295  58.807 -61.539  1.00  0.00     0.169 HD
BRANCH  25  28
HETATM   28  C   UNL     1     -48.452  57.914 -62.404  1.00  0.00     0.098 C 
HETATM   29  C   UNL     1     -48.572  57.086 -63.673  1.00  0.00     0.014 C 
ENDBRANCH  25  28
ENDBRANCH  21  24
ENDBRANCH   1  18
TORSDOF 5
ENDMDL
MODEL 4
REMARK VINA RESULT:      -8.1     14.955     18.521
REMARK  5 active torsions:
REMARK  status: ('A' for Active; 'I' for Inactive)
REMARK    1  A    between atoms: C_2  and  C_3 
REMARK       I    between atoms: C_3  and  N_4 
REMARK    2  A    between atoms: N_4  and  C_5 
REMARK    3  A    between atoms: C_8  and  C_9 
REMARK       I    between atoms: C_9  and  N_10 
REMARK    4  A    between atoms: N_10  and  N_11 
REMARK    5  A    between atoms: C_12  and  C_13 
ROOT
HETATM    1  C   UNL     1     -42.708  55.799 -56.057  1.00  0.00     0.271 C 
HETATM    2  N   UNL     1     -41.669  54.883 -55.954  1.00  0.00    -0.243 N 
HETATM    3  O   UNL     1     -43.593  55.979 -55.226  1.00  0.00    -0.266 OA
HETATM    4  H   UNL     1     -40.840  55.023 -56.524  1.00  0.00     0.192 HD
ENDROOT
BRANCH   2   5
HETATM    5  N   UNL     1     -41.464  54.006 -54.916  1.00  0.00    -0.183 NA
HETATM    6  C   UNL     1     -40.697  54.371 -53.938  1.00  0.00     0.153 C 
BRANCH   6   7
HETATM    7  C   UNL     1     -40.440  53.468 -52.828  1.00  0.00     0.018 A 
HETATM    8  C   UNL     1     -40.108  52.076 -52.946  1.00  0.00     0.004 A 
HETATM    9  C   UNL     1     -39.922  51.576 -51.659  1.00  0.00     0.043 A 
HETATM   10  C   UNL     1     -39.949  51.192 -54.036  1.00  0.00     0.014 A 
HETATM   11  C   UNL     1     -39.582  50.241 -51.403  1.00  0.00     0.030 A 
HETATM   12  N   UNL     1     -40.139  52.616 -50.789  1.00  0.00    -0.358 N 
HETATM   13  C   UNL     1     -39.426  49.390 -52.500  1.00  0.00     0.002 A 
HETATM   14  C   UNL     1     -39.609  49.854 -53.799  1.00  0.00     0.001 A 
HETATM   15  H   UNL     1     -40.075  52.537 -49.784  1.00  0.00     0.166 HD
HETATM   16  C   UNL     1     -40.451  53.767 -51.470  1.00  0.00     0.018 A 
HETATM   17  C   UNL     1     -40.723  55.037 -50.748  1.00  0.00     0.069 C 
ENDBRANCH   6   7
ENDBRANCH   2   5
BRANCH   1  18
HETATM   18  C   UNL     1     -42.700  56.641 -57.288  1.00  0.00     0.033 A 
HETATM   19  C   UNL     1     -43.006  56.123 -58.551  1.00  0.00     0.019 A 
HETATM   20  C   UNL     1     -43.036  56.965 -59.671  1.00  0.00     0.030 A 
HETATM   21  C   UNL     1     -42.770  58.330 -59.546  1.00  0.00     0.034 A 
HETATM   22  C   UNL     1     -42.461  58.844 -58.280  1.00  0.00     0.030 A 
HETATM   23  C   UNL     1     -42.434  58.009 -57.158  1.00  0.00     0.019 A 
BRANCH  21  24
HETATM   24  N   UNL     1     -42.807  59.245 -60.617  1.00  0.00    -0.327 N 
HETATM   25  C   UNL     1     -43.920  59.861 -61.161  1.00  0.00     0.221 C 
HETATM   26  O   UNL     1     -45.088  59.675 -60.833  1.00  0.00    -0.273 OA
HETATM   27  H   UNL     1     -41.910  59.500 -61.008  1.00  0.00     0.169 HD
BRANCH  25  28
HETATM   28  C   UNL     1     -43.585  60.817 -62.296  1.00  0.00     0.098 C 
HETATM   29  C   UNL     1     -42.133  61.267 -62.294  1.00  0.00     0.014 C 
ENDBRANCH  25  28
ENDBRANCH  21  24
ENDBRANCH   1  18
TORSDOF 5
ENDMDL
MODEL 5
REMARK VINA RESULT:      -7.9     18.116     21.120
REMARK  5 active torsions:
REMARK  status: ('A' for Active; 'I' for Inactive)
REMARK    1  A    between atoms: C_2  and  C_3 
REMARK       I    between atoms: C_3  and  N_4 
REMARK    2  A    between atoms: N_4  and  C_5 
REMARK    3  A    between atoms: C_8  and  C_9 
REMARK       I    between atoms: C_9  and  N_10 
REMARK    4  A    between atoms: N_10  and  N_11 
REMARK    5  A    between atoms: C_12  and  C_13 
ROOT
HETATM    1  C   UNL     1     -42.756  58.743 -51.497  1.00  0.00     0.271 C 
HETATM    2  N   UNL     1     -42.581  57.678 -50.621  1.00  0.00    -0.243 N 
HETATM    3  O   UNL     1     -42.185  58.889 -52.574  1.00  0.00    -0.266 OA
HETATM    4  H   UNL     1     -43.304  57.494 -49.932  1.00  0.00     0.192 HD
ENDROOT
BRANCH   2   5
HETATM    5  N   UNL     1     -41.725  56.619 -50.797  1.00  0.00    -0.183 NA
HETATM    6  C   UNL     1     -42.180  55.418 -50.629  1.00  0.00     0.153 C 
BRANCH   6   7
HETATM    7  C   UNL     1     -41.303  54.269 -50.789  1.00  0.00     0.018 A 
HETATM    8  C   UNL     1     -41.033  53.596 -52.028  1.00  0.00     0.004 A 
HETATM    9  C   UNL     1     -40.133  52.565 -51.760  1.00  0.00     0.043 A 
HETATM   10  C   UNL     1     -41.473  53.769 -53.359  1.00  0.00     0.014 A 
HETATM   11  C   UNL     1     -39.648  51.702 -52.751  1.00  0.00     0.030 A 
HETATM   12  N   UNL     1     -39.872  52.601 -50.413  1.00  0.00    -0.358 N 
HETATM   13  C   UNL     1     -40.097  51.899 -54.060  1.00  0.00     0.002 A 
HETATM   14  C   UNL     1     -40.998  52.915 -54.362  1.00  0.00     0.001 A 
HETATM   15  H   UNL     1     -39.250  51.961 -49.939  1.00  0.00     0.166 HD
HETATM   16  C   UNL     1     -40.564  53.620 -49.807  1.00  0.00     0.018 A 
HETATM   17  C   UNL     1     -40.440  53.871 -48.347  1.00  0.00     0.069 C 
ENDBRANCH   6   7
ENDBRANCH   2   5
BRANCH   1  18
HETATM   18  C   UNL     1     -43.755  59.765 -51.073  1.00  0.00     0.033 A 
HETATM   19  C   UNL     1     -45.098  59.704 -51.461  1.00  0.00     0.019 A 
HETATM   20  C   UNL     1     -46.013  60.658 -50.994  1.00  0.00     0.030 A 
HETATM   21  C   UNL     1     -45.602  61.678 -50.133  1.00  0.00     0.034 A 
HETATM   22  C   UNL     1     -44.256  61.737 -49.749  1.00  0.00     0.030 A 
HETATM   23  C   UNL     1     -43.341  60.784 -50.209  1.00  0.00     0.019 A 
BRANCH  21  24
HETATM   24  N   UNL     1     -46.464  62.657 -49.599  1.00  0.00    -0.327 N 
HETATM   25  C   UNL     1     -47.089  62.648 -48.365  1.00  0.00     0.221 C 
HETATM   26  O   UNL     1     -47.039  61.749 -47.531  1.00  0.00    -0.273 OA
HETATM   27  H   UNL     1     -46.613  63.473 -50.179  1.00  0.00     0.169 HD
BRANCH  25  28
HETATM   28  C   UNL     1     -47.930  63.889 -48.106  1.00  0.00     0.098 C 
HETATM   29  C   UNL     1     -49.144  63.992 -49.014  1.00  0.00     0.014 C 
ENDBRANCH  25  28
ENDBRANCH  21  24
ENDBRANCH   1  18
TORSDOF 5
ENDMDL
MODEL 6
REMARK VINA RESULT:      -7.8     16.918     19.721
REMARK  5 active torsions:
REMARK  status: ('A' for Active; 'I' for Inactive)
REMARK    1  A    between atoms: C_2  and  C_3 
REMARK       I    between atoms: C_3  and  N_4 
REMARK    2  A    between atoms: N_4  and  C_5 
REMARK    3  A    between atoms: C_8  and  C_9 
REMARK       I    between atoms: C_9  and  N_10 
REMARK    4  A    between atoms: N_10  and  N_11 
REMARK    5  A    between atoms: C_12  and  C_13 
ROOT
HETATM    1  C   UNL     1     -43.427  57.329 -52.406  1.00  0.00     0.271 C 
HETATM    2  N   UNL     1     -42.891  56.277 -51.674  1.00  0.00    -0.243 N 
HETATM    3  O   UNL     1     -43.582  57.353 -53.623  1.00  0.00    -0.266 OA
HETATM    4  H   UNL     1     -43.088  56.228 -50.680  1.00  0.00     0.192 HD
ENDROOT
BRANCH   2   5
HETATM    5  N   UNL     1     -42.423  55.091 -52.187  1.00  0.00    -0.183 NA
HETATM    6  C   UNL     1     -41.158  54.830 -52.091  1.00  0.00     0.153 C 
BRANCH   6   7
HETATM    7  C   UNL     1     -40.618  53.594 -52.636  1.00  0.00     0.018 A 
HETATM    8  C   UNL     1     -40.347  52.402 -51.883  1.00  0.00     0.004 A 
HETATM    9  C   UNL     1     -39.859  51.444 -52.771  1.00  0.00     0.043 A 
HETATM   10  C   UNL     1     -40.471  52.048 -50.522  1.00  0.00     0.014 A 
HETATM   11  C   UNL     1     -39.493  50.153 -52.371  1.00  0.00     0.030 A 
HETATM   12  N   UNL     1     -39.826  52.029 -54.013  1.00  0.00    -0.358 N 
HETATM   13  C   UNL     1     -39.631  49.828 -51.019  1.00  0.00     0.002 A 
HETATM   14  C   UNL     1     -40.110  50.761 -50.104  1.00  0.00     0.001 A 
HETATM   15  H   UNL     1     -39.510  51.562 -54.851  1.00  0.00     0.166 HD
HETATM   16  C   UNL     1     -40.281  53.323 -53.957  1.00  0.00     0.018 A 
HETATM   17  C   UNL     1     -40.349  54.167 -55.179  1.00  0.00     0.069 C 
ENDBRANCH   6   7
ENDBRANCH   2   5
BRANCH   1  18
HETATM   18  C   UNL     1     -43.868  58.507 -51.605  1.00  0.00     0.033 A 
HETATM   19  C   UNL     1     -45.159  58.610 -51.077  1.00  0.00     0.019 A 
HETATM   20  C   UNL     1     -45.513  59.713 -50.286  1.00  0.00     0.030 A 
HETATM   21  C   UNL     1     -44.586  60.718 -50.008  1.00  0.00     0.034 A 
HETATM   22  C   UNL     1     -43.295  60.612 -50.541  1.00  0.00     0.030 A 
HETATM   23  C   UNL     1     -42.936  59.512 -51.327  1.00  0.00     0.019 A 
BRANCH  21  24
HETATM   24  N   UNL     1     -44.855  61.842 -49.200  1.00  0.00    -0.327 N 
HETATM   25  C   UNL     1     -44.873  61.902 -47.819  1.00  0.00     0.221 C 
HETATM   26  O   UNL     1     -44.705  60.962 -47.048  1.00  0.00    -0.273 OA
HETATM   27  H   UNL     1     -45.022  62.707 -49.696  1.00  0.00     0.169 HD
BRANCH  25  28
HETATM   28  C   UNL     1     -45.175  63.292 -47.280  1.00  0.00     0.098 C 
HETATM   29  C   UNL     1     -44.384  64.390 -47.973  1.00  0.00     0.014 C 
ENDBRANCH  25  28
ENDBRANCH  21  24
ENDBRANCH   1  18
TORSDOF 5
ENDMDL
MODEL 7
REMARK VINA RESULT:      -7.8     15.634     17.554
REMARK  5 active torsions:
REMARK  status: ('A' for Active; 'I' for Inactive)
REMARK    1  A    between atoms: C_2  and  C_3 
REMARK       I    between atoms: C_3  and  N_4 
REMARK    2  A    between atoms: N_4  and  C_5 
REMARK    3  A    between atoms: C_8  and  C_9 
REMARK       I    between atoms: C_9  and  N_10 
REMARK    4  A    between atoms: N_10  and  N_11 
REMARK    5  A    between atoms: C_12  and  C_13 
ROOT
HETATM    1  C   UNL     1     -42.330  56.165 -55.650  1.00  0.00     0.271 C 
HETATM    2  N   UNL     1     -43.051  55.929 -56.814  1.00  0.00    -0.243 N 
HETATM    3  O   UNL     1     -42.158  57.258 -55.119  1.00  0.00    -0.266 OA
HETATM    4  H   UNL     1     -43.389  54.989 -56.993  1.00  0.00     0.192 HD
ENDROOT
BRANCH   2   5
HETATM    5  N   UNL     1     -43.678  56.880 -57.582  1.00  0.00    -0.183 NA
HETATM    6  C   UNL     1     -43.615  56.776 -58.872  1.00  0.00     0.153 C 
BRANCH   6   7
HETATM    7  C   UNL     1     -44.251  57.770 -59.722  1.00  0.00     0.018 A 
HETATM    8  C   UNL     1     -43.572  58.830 -60.413  1.00  0.00     0.004 A 
HETATM    9  C   UNL     1     -44.530  59.546 -61.130  1.00  0.00     0.043 A 
HETATM   10  C   UNL     1     -42.226  59.249 -60.494  1.00  0.00     0.014 A 
HETATM   11  C   UNL     1     -44.212  60.654 -61.926  1.00  0.00     0.030 A 
HETATM   12  N   UNL     1     -45.743  58.953 -60.882  1.00  0.00    -0.358 N 
HETATM   13  C   UNL     1     -42.872  61.044 -61.991  1.00  0.00     0.002 A 
HETATM   14  C   UNL     1     -41.891  60.355 -61.284  1.00  0.00     0.001 A 
HETATM   15  H   UNL     1     -46.619  59.270 -61.274  1.00  0.00     0.166 HD
HETATM   16  C   UNL     1     -45.600  57.880 -60.038  1.00  0.00     0.018 A 
HETATM   17  C   UNL     1     -46.774  57.067 -59.624  1.00  0.00     0.069 C 
ENDBRANCH   6   7
ENDBRANCH   2   5
BRANCH   1  18
HETATM   18  C   UNL     1     -41.750  54.954 -54.999  1.00  0.00     0.033 A 
HETATM   19  C   UNL     1     -40.574  54.351 -55.456  1.00  0.00     0.019 A 
HETATM   20  C   UNL     1     -40.039  53.245 -54.780  1.00  0.00     0.030 A 
HETATM   21  C   UNL     1     -40.665  52.733 -53.641  1.00  0.00     0.034 A 
HETATM   22  C   UNL     1     -41.844  53.339 -53.190  1.00  0.00     0.030 A 
HETATM   23  C   UNL     1     -42.379  54.445 -53.858  1.00  0.00     0.019 A 
BRANCH  21  24
HETATM   24  N   UNL     1     -40.176  51.644 -52.892  1.00  0.00    -0.327 N 
HETATM   25  C   UNL     1     -39.982  50.344 -53.322  1.00  0.00     0.221 C 
HETATM   26  O   UNL     1     -40.253  49.897 -54.432  1.00  0.00    -0.273 OA
HETATM   27  H   UNL     1     -39.910  51.853 -51.939  1.00  0.00     0.169 HD
BRANCH  25  28
HETATM   28  C   UNL     1     -39.410  49.433 -52.247  1.00  0.00     0.098 C 
HETATM   29  C   UNL     1     -39.666  49.934 -50.835  1.00  0.00     0.014 C 
ENDBRANCH  25  28
ENDBRANCH  21  24
ENDBRANCH   1  18
TORSDOF 5
ENDMDL
MODEL 8
REMARK VINA RESULT:      -7.5     15.592     17.330
REMARK  5 active torsions:
REMARK  status: ('A' for Active; 'I' for Inactive)
REMARK    1  A    between atoms: C_2  and  C_3 
REMARK       I    between atoms: C_3  and  N_4 
REMARK    2  A    between atoms: N_4  and  C_5 
REMARK    3  A    between atoms: C_8  and  C_9 
REMARK       I    between atoms: C_9  and  N_10 
REMARK    4  A    between atoms: N_10  and  N_11 
REMARK    5  A    between atoms: C_12  and  C_13 
ROOT
HETATM    1  C   UNL     1     -42.112  56.002 -55.807  1.00  0.00     0.271 C 
HETATM    2  N   UNL     1     -42.585  55.783 -57.095  1.00  0.00    -0.243 N 
HETATM    3  O   UNL     1     -42.137  57.070 -55.203  1.00  0.00    -0.266 OA
HETATM    4  H   UNL     1     -42.800  54.832 -57.377  1.00  0.00     0.192 HD
ENDROOT
BRANCH   2   5
HETATM    5  N   UNL     1     -43.141  56.728 -57.922  1.00  0.00    -0.183 NA
HETATM    6  C   UNL     1     -44.378  57.066 -57.736  1.00  0.00     0.153 C 
BRANCH   6   7
HETATM    7  C   UNL     1     -45.010  58.051 -58.599  1.00  0.00     0.018 A 
HETATM    8  C   UNL     1     -46.001  57.766 -59.598  1.00  0.00     0.004 A 
HETATM    9  C   UNL     1     -46.363  58.976 -60.188  1.00  0.00     0.043 A 
HETATM   10  C   UNL     1     -46.625  56.586 -60.057  1.00  0.00     0.014 A 
HETATM   11  C   UNL     1     -47.318  59.068 -61.210  1.00  0.00     0.030 A 
HETATM   12  N   UNL     1     -45.619  59.957 -59.581  1.00  0.00    -0.358 N 
HETATM   13  C   UNL     1     -47.923  57.885 -61.641  1.00  0.00     0.002 A 
HETATM   14  C   UNL     1     -47.582  56.659 -61.077  1.00  0.00     0.001 A 
HETATM   15  H   UNL     1     -45.676  60.938 -59.816  1.00  0.00     0.166 HD
HETATM   16  C   UNL     1     -44.798  59.424 -58.619  1.00  0.00     0.018 A 
HETATM   17  C   UNL     1     -43.897  60.289 -57.813  1.00  0.00     0.069 C 
ENDBRANCH   6   7
ENDBRANCH   2   5
BRANCH   1  18
HETATM   18  C   UNL     1     -41.558  54.802 -55.115  1.00  0.00     0.033 A 
HETATM   19  C   UNL     1     -40.344  54.216 -55.491  1.00  0.00     0.019 A 
HETATM   20  C   UNL     1     -39.838  53.121 -54.778  1.00  0.00     0.030 A 
HETATM   21  C   UNL     1     -40.529  52.601 -53.681  1.00  0.00     0.034 A 
HETATM   22  C   UNL     1     -41.745  53.189 -53.310  1.00  0.00     0.030 A 
HETATM   23  C   UNL     1     -42.252  54.285 -54.016  1.00  0.00     0.019 A 
BRANCH  21  24
HETATM   24  N   UNL     1     -40.074  51.522 -52.898  1.00  0.00    -0.327 N 
HETATM   25  C   UNL     1     -39.892  50.210 -53.294  1.00  0.00     0.221 C 
HETATM   26  O   UNL     1     -40.148  49.742 -54.400  1.00  0.00    -0.273 OA
HETATM   27  H   UNL     1     -39.823  51.748 -51.944  1.00  0.00     0.169 HD
BRANCH  25  28
HETATM   28  C   UNL     1     -39.358  49.314 -52.188  1.00  0.00     0.098 C 
HETATM   29  C   UNL     1     -39.621  49.859 -50.793  1.00  0.00     0.014 C 
ENDBRANCH  25  28
ENDBRANCH  21  24
ENDBRANCH   1  18
TORSDOF 5
ENDMDL
MODEL 9
REMARK VINA RESULT:      -7.3     15.499     18.994
REMARK  5 active torsions:
REMARK  status: ('A' for Active; 'I' for Inactive)
REMARK    1  A    between atoms: C_2  and  C_3 
REMARK       I    between atoms: C_3  and  N_4 
REMARK    2  A    between atoms: N_4  and  C_5 
REMARK    3  A    between atoms: C_8  and  C_9 
REMARK       I    between atoms: C_9  and  N_10 
REMARK    4  A    between atoms: N_10  and  N_11 
REMARK    5  A    between atoms: C_12  and  C_13 
ROOT
HETATM    1  C   UNL     1     -41.907  57.354 -54.444  1.00  0.00     0.271 C 
HETATM    2  N   UNL     1     -42.302  56.022 -54.451  1.00  0.00    -0.243 N 
HETATM    3  O   UNL     1     -41.215  57.894 -53.588  1.00  0.00    -0.266 OA
HETATM    4  H   UNL     1     -42.596  55.608 -55.330  1.00  0.00     0.192 HD
ENDROOT
BRANCH   2   5
HETATM    5  N   UNL     1     -42.004  55.086 -53.491  1.00  0.00    -0.183 NA
HETATM    6  C   UNL     1     -40.820  54.559 -53.483  1.00  0.00     0.153 C 
BRANCH   6   7
HETATM    7  C   UNL     1     -40.469  53.553 -52.493  1.00  0.00     0.018 A 
HETATM    8  C   UNL     1     -40.179  52.175 -52.774  1.00  0.00     0.004 A 
HETATM    9  C   UNL     1     -39.871  51.554 -51.565  1.00  0.00     0.043 A 
HETATM   10  C   UNL     1     -40.152  51.396 -53.951  1.00  0.00     0.014 A 
HETATM   11  C   UNL     1     -39.534  50.198 -51.471  1.00  0.00     0.030 A 
HETATM   12  N   UNL     1     -39.976  52.510 -50.585  1.00  0.00    -0.358 N 
HETATM   13  C   UNL     1     -39.510  49.451 -52.651  1.00  0.00     0.002 A 
HETATM   14  C   UNL     1     -39.817  50.038 -53.876  1.00  0.00     0.001 A 
HETATM   15  H   UNL     1     -39.809  52.337 -49.604  1.00  0.00     0.166 HD
HETATM   16  C   UNL     1     -40.333  53.723 -51.121  1.00  0.00     0.018 A 
HETATM   17  C   UNL     1     -40.503  54.923 -50.259  1.00  0.00     0.069 C 
ENDBRANCH   6   7
ENDBRANCH   2   5
BRANCH   1  18
HETATM   18  C   UNL     1     -42.360  58.162 -55.614  1.00  0.00     0.033 A 
HETATM   19  C   UNL     1     -42.076  59.527 -55.734  1.00  0.00     0.019 A 
HETATM   20  C   UNL     1     -42.477  60.234 -56.876  1.00  0.00     0.030 A 
HETATM   21  C   UNL     1     -43.158  59.590 -57.912  1.00  0.00     0.034 A 
HETATM   22  C   UNL     1     -43.442  58.224 -57.786  1.00  0.00     0.030 A 
HETATM   23  C   UNL     1     -43.040  57.513 -56.650  1.00  0.00     0.019 A 
BRANCH  21  24
HETATM   24  N   UNL     1     -43.570  60.222 -59.102  1.00  0.00    -0.327 N 
HETATM   25  C   UNL     1     -42.877  60.305 -60.296  1.00  0.00     0.221 C 
HETATM   26  O   UNL     1     -41.746  59.878 -60.512  1.00  0.00    -0.273 OA
HETATM   27  H   UNL     1     -44.493  60.635 -59.082  1.00  0.00     0.169 HD
BRANCH  25  28
HETATM   28  C   UNL     1     -43.640  61.043 -61.385  1.00  0.00     0.098 C 
HETATM   29  C   UNL     1     -45.079  60.577 -61.532  1.00  0.00     0.014 C 
ENDBRANCH  25  28
ENDBRANCH  21  24
ENDBRANCH   1  18
TORSDOF 5
ENDMDL
MODEL 10
REMARK VINA RESULT:      -7.3     15.813     17.653
REMARK  5 active torsions:
REMARK  status: ('A' for Active; 'I' for Inactive)
REMARK    1  A    between atoms: C_2  and  C_3 
REMARK       I    between atoms: C_3  and  N_4 
REMARK    2  A    between atoms: N_4  and  C_5 
REMARK    3  A    between atoms: C_8  and  C_9 
REMARK       I    between atoms: C_9  and  N_10 
REMARK    4  A    between atoms: N_10  and  N_11 
REMARK    5  A    between atoms: C_12  and  C_13 
ROOT
HETATM    1  C   UNL     1     -41.939  56.340 -55.462  1.00  0.00     0.271 C 
HETATM    2  N   UNL     1     -42.213  56.289 -56.823  1.00  0.00    -0.243 N 
HETATM    3  O   UNL     1     -42.069  57.322 -54.738  1.00  0.00    -0.266 OA
HETATM    4  H   UNL     1     -42.370  55.383 -57.253  1.00  0.00     0.192 HD
ENDROOT
BRANCH   2   5
HETATM    5  N   UNL     1     -42.655  57.335 -57.597  1.00  0.00    -0.183 NA
HETATM    6  C   UNL     1     -43.560  57.103 -58.495  1.00  0.00     0.153 C 
BRANCH   6   7
HETATM    7  C   UNL     1     -44.044  58.178 -59.347  1.00  0.00     0.018 A 
HETATM    8  C   UNL     1     -45.364  58.742 -59.306  1.00  0.00     0.004 A 
HETATM    9  C   UNL     1     -45.419  59.754 -60.262  1.00  0.00     0.043 A 
HETATM   10  C   UNL     1     -46.521  58.482 -58.540  1.00  0.00     0.014 A 
HETATM   11  C   UNL     1     -46.568  60.522 -60.491  1.00  0.00     0.030 A 
HETATM   12  N   UNL     1     -44.188  59.802 -60.868  1.00  0.00    -0.358 N 
HETATM   13  C   UNL     1     -47.698  60.247 -59.716  1.00  0.00     0.002 A 
HETATM   14  C   UNL     1     -47.679  59.240 -58.755  1.00  0.00     0.001 A 
HETATM   15  H   UNL     1     -43.944  60.446 -61.607  1.00  0.00     0.166 HD
HETATM   16  C   UNL     1     -43.342  58.862 -60.332  1.00  0.00     0.018 A 
HETATM   17  C   UNL     1     -41.944  58.722 -60.817  1.00  0.00     0.069 C 
ENDBRANCH   6   7
ENDBRANCH   2   5
BRANCH   1  18
HETATM   18  C   UNL     1     -41.475  55.059 -54.854  1.00  0.00     0.033 A 
HETATM   19  C   UNL     1     -40.319  54.401 -55.287  1.00  0.00     0.019 A 
HETATM   20  C   UNL     1     -39.894  53.227 -54.650  1.00  0.00     0.030 A 
HETATM   21  C   UNL     1     -40.610  52.699 -53.574  1.00  0.00     0.034 A 
HETATM   22  C   UNL     1     -41.768  53.360 -53.145  1.00  0.00     0.030 A 
HETATM   23  C   UNL     1     -42.194  54.535 -53.774  1.00  0.00     0.019 A 
BRANCH  21  24
HETATM   24  N   UNL     1     -40.233  51.541 -52.865  1.00  0.00    -0.327 N 
HETATM   25  C   UNL     1     -39.916  50.300 -53.386  1.00  0.00     0.221 C 
HETATM   26  O   UNL     1     -39.957  49.975 -54.568  1.00  0.00    -0.273 OA
HETATM   27  H   UNL     1     -40.159  51.646 -51.862  1.00  0.00     0.169 HD
BRANCH  25  28
HETATM   28  C   UNL     1     -39.525  49.283 -52.324  1.00  0.00     0.098 C 
HETATM   29  C   UNL     1     -39.492  49.863 -50.920  1.00  0.00     0.014 C 
ENDBRANCH  25  28
ENDBRANCH  21  24
ENDBRANCH   1  18
TORSDOF 5
ENDMDL
