MODEL 1
REMARK VINA RESULT:      -7.9      0.000      0.000
REMARK  6 active torsions:
REMARK  status: ('A' for Active; 'I' for Inactive)
REMARK    1  A    between atoms: C_2  and  N_3 
REMARK    2  A    between atoms: N_3  and  C_5 
REMARK    3  A    between atoms: N_3  and  C_26 
REMARK    4  A    between atoms: C_5  and  C_6 
REMARK    5  A    between atoms: C_8  and  N_9 
REMARK       I    between atoms: N_9  and  C_10 
REMARK    6  A    between atoms: C_10  and  C_11 
ROOT
HETATM    1  N   UNL     1     -41.986  56.201 -54.820  1.00  0.00    -0.322 N 
HETATM    2  C   UNL     1     -42.534  55.074 -54.228  1.00  0.00     0.277 C 
HETATM    3  O   UNL     1     -43.623  54.577 -54.505  1.00  0.00    -0.266 OA
HETATM    4  H   UNL     1     -41.067  56.440 -54.452  1.00  0.00     0.169 HD
ENDROOT
BRANCH   1   5
HETATM    5  C   UNL     1     -42.565  57.045 -55.780  1.00  0.00     0.035 A 
HETATM    6  C   UNL     1     -42.893  56.623 -57.070  1.00  0.00     0.038 A 
HETATM    7  C   UNL     1     -43.564  57.465 -57.973  1.00  0.00    -0.030 A 
HETATM    8  C   UNL     1     -43.839  58.782 -57.585  1.00  0.00     0.009 A 
HETATM    9  C   UNL     1     -43.481  59.226 -56.310  1.00  0.00     0.003 A 
HETATM   10  C   UNL     1     -42.859  58.358 -55.409  1.00  0.00     0.029 A 
BRANCH   7  11
HETATM   11  C   UNL     1     -43.995  56.925 -59.312  1.00  0.00     0.273 C 
BRANCH  11  12
HETATM   12  N   UNL     1     -45.337  56.197 -59.337  1.00  0.00    -0.068 N 
HETATM   13  H   UNL     1     -45.519  55.927 -58.363  1.00  0.00     0.280 HD
BRANCH  12  14
HETATM   14  C   UNL     1     -45.327  54.906 -60.135  1.00  0.00     0.231 C 
HETATM   15  C   UNL     1     -44.466  53.851 -59.464  1.00  0.00     0.034 C 
ENDBRANCH  12  14
BRANCH  12  16
HETATM   16  C   UNL     1     -46.518  57.064 -59.747  1.00  0.00     0.231 C 
HETATM   17  C   UNL     1     -47.315  56.424 -60.869  1.00  0.00     0.034 C 
ENDBRANCH  12  16
ENDBRANCH  11  12
ENDBRANCH   7  11
ENDBRANCH   1   5
BRANCH   2  18
HETATM   18  C   UNL     1     -41.665  54.526 -53.173  1.00  0.00     0.157 A 
HETATM   19  N   UNL     1     -41.455  55.202 -52.022  1.00  0.00    -0.168 NA
HETATM   20  N   UNL     1     -40.676  54.371 -51.303  1.00  0.00    -0.277 N 
HETATM   21  H   UNL     1     -40.392  54.656 -50.372  1.00  0.00     0.189 HD
HETATM   22  C   UNL     1     -40.352  53.206 -51.942  1.00  0.00     0.063 A 
HETATM   23  C   UNL     1     -40.974  53.280 -53.182  1.00  0.00     0.029 A 
HETATM   24  C   UNL     1     -39.574  52.116 -51.544  1.00  0.00     0.032 A 
HETATM   25  C   UNL     1     -40.806  52.216 -54.091  1.00  0.00     0.023 A 
HETATM   26  C   UNL     1     -40.024  51.108 -53.725  1.00  0.00    -0.061 A 
HETATM   27  C   UNL     1     -39.417  51.071 -52.464  1.00  0.00     0.009 A 
HETATM   28  C   UNL     1     -39.793  50.001 -54.714  1.00  0.00     0.048 C 
ENDBRANCH   2  18
TORSDOF 6
ENDMDL
MODEL 2
REMARK VINA RESULT:      -7.7      1.429      1.835
REMARK  6 active torsions:
REMARK  status: ('A' for Active; 'I' for Inactive)
REMARK    1  A    between atoms: C_2  and  N_3 
REMARK    2  A    between atoms: N_3  and  C_5 
REMARK    3  A    between atoms: N_3  and  C_26 
REMARK    4  A    between atoms: C_5  and  C_6 
REMARK    5  A    between atoms: C_8  and  N_9 
REMARK       I    between atoms: N_9  and  C_10 
REMARK    6  A    between atoms: C_10  and  C_11 
ROOT
HETATM    1  N   UNL     1     -42.423  55.532 -53.617  1.00  0.00    -0.322 N 
HETATM    2  C   UNL     1     -41.078  55.199 -53.590  1.00  0.00     0.277 C 
HETATM    3  O   UNL     1     -40.229  55.586 -54.389  1.00  0.00    -0.266 OA
HETATM    4  H   UNL     1     -42.955  55.111 -52.856  1.00  0.00     0.169 HD
ENDROOT
BRANCH   1   5
HETATM    5  C   UNL     1     -43.110  56.295 -54.574  1.00  0.00     0.035 A 
HETATM    6  C   UNL     1     -42.853  56.212 -55.944  1.00  0.00     0.038 A 
HETATM    7  C   UNL     1     -43.627  56.914 -56.883  1.00  0.00    -0.030 A 
HETATM    8  C   UNL     1     -44.629  57.774 -56.417  1.00  0.00     0.009 A 
HETATM    9  C   UNL     1     -44.869  57.894 -55.047  1.00  0.00     0.003 A 
HETATM   10  C   UNL     1     -44.121  57.149 -54.131  1.00  0.00     0.029 A 
BRANCH   7  11
HETATM   11  C   UNL     1     -43.382  56.702 -58.354  1.00  0.00     0.273 C 
BRANCH  11  12
HETATM   12  N   UNL     1     -44.503  57.154 -59.289  1.00  0.00    -0.068 N 
HETATM   13  H   UNL     1     -45.177  57.645 -58.689  1.00  0.00     0.280 HD
BRANCH  12  14
HETATM   14  C   UNL     1     -45.269  56.014 -59.934  1.00  0.00     0.231 C 
HETATM   15  C   UNL     1     -44.487  54.715 -59.862  1.00  0.00     0.034 C 
ENDBRANCH  12  14
BRANCH  12  16
HETATM   16  C   UNL     1     -44.077  58.169 -60.340  1.00  0.00     0.231 C 
HETATM   17  C   UNL     1     -42.571  58.360 -60.350  1.00  0.00     0.034 C 
ENDBRANCH  12  16
ENDBRANCH  11  12
ENDBRANCH   7  11
ENDBRANCH   1   5
BRANCH   2  18
HETATM   18  C   UNL     1     -40.759  54.277 -52.487  1.00  0.00     0.157 A 
HETATM   19  N   UNL     1     -40.842  54.675 -51.199  1.00  0.00    -0.168 NA
HETATM   20  N   UNL     1     -40.542  53.561 -50.502  1.00  0.00    -0.277 N 
HETATM   21  H   UNL     1     -40.555  53.605 -49.489  1.00  0.00     0.189 HD
HETATM   22  C   UNL     1     -40.245  52.473 -51.276  1.00  0.00     0.063 A 
HETATM   23  C   UNL     1     -40.364  52.911 -52.589  1.00  0.00     0.029 A 
HETATM   24  C   UNL     1     -39.884  51.167 -50.938  1.00  0.00     0.032 A 
HETATM   25  C   UNL     1     -40.095  52.005 -53.634  1.00  0.00     0.023 A 
HETATM   26  C   UNL     1     -39.723  50.685 -53.329  1.00  0.00    -0.061 A 
HETATM   27  C   UNL     1     -39.618  50.284 -51.992  1.00  0.00     0.009 A 
HETATM   28  C   UNL     1     -39.377  49.734 -54.439  1.00  0.00     0.048 C 
ENDBRANCH   2  18
TORSDOF 6
ENDMDL
MODEL 3
REMARK VINA RESULT:      -7.6      1.972      3.433
REMARK  6 active torsions:
REMARK  status: ('A' for Active; 'I' for Inactive)
REMARK    1  A    between atoms: C_2  and  N_3 
REMARK    2  A    between atoms: N_3  and  C_5 
REMARK    3  A    between atoms: N_3  and  C_26 
REMARK    4  A    between atoms: C_5  and  C_6 
REMARK    5  A    between atoms: C_8  and  N_9 
REMARK       I    between atoms: N_9  and  C_10 
REMARK    6  A    between atoms: C_10  and  C_11 
ROOT
HETATM    1  N   UNL     1     -42.128  55.563 -55.519  1.00  0.00    -0.322 N 
HETATM    2  C   UNL     1     -42.778  54.912 -54.482  1.00  0.00     0.277 C 
HETATM    3  O   UNL     1     -43.985  54.693 -54.420  1.00  0.00    -0.266 OA
HETATM    4  H   UNL     1     -41.121  55.633 -55.380  1.00  0.00     0.169 HD
ENDROOT
BRANCH   1   5
HETATM    5  C   UNL     1     -42.692  56.166 -56.654  1.00  0.00     0.035 A 
HETATM    6  C   UNL     1     -42.868  57.546 -56.777  1.00  0.00     0.038 A 
HETATM    7  C   UNL     1     -43.341  58.125 -57.967  1.00  0.00    -0.030 A 
HETATM    8  C   UNL     1     -43.714  57.283 -59.021  1.00  0.00     0.009 A 
HETATM    9  C   UNL     1     -43.579  55.899 -58.893  1.00  0.00     0.003 A 
HETATM   10  C   UNL     1     -43.059  55.345 -57.721  1.00  0.00     0.029 A 
BRANCH   7  11
HETATM   11  C   UNL     1     -43.406  59.625 -58.088  1.00  0.00     0.273 C 
BRANCH  11  12
HETATM   12  N   UNL     1     -42.180  60.298 -58.703  1.00  0.00    -0.068 N 
HETATM   13  H   UNL     1     -41.479  59.554 -58.798  1.00  0.00     0.280 HD
BRANCH  12  14
HETATM   14  C   UNL     1     -41.548  61.360 -57.821  1.00  0.00     0.231 C 
HETATM   15  C   UNL     1     -40.372  62.023 -58.516  1.00  0.00     0.034 C 
ENDBRANCH  12  14
BRANCH  12  16
HETATM   16  C   UNL     1     -42.395  60.837 -60.110  1.00  0.00     0.231 C 
HETATM   17  C   UNL     1     -42.000  59.815 -61.161  1.00  0.00     0.034 C 
ENDBRANCH  12  16
ENDBRANCH  11  12
ENDBRANCH   7  11
ENDBRANCH   1   5
BRANCH   2  18
HETATM   18  C   UNL     1     -41.850  54.523 -53.407  1.00  0.00     0.157 A 
HETATM   19  N   UNL     1     -41.652  55.320 -52.334  1.00  0.00    -0.168 NA
HETATM   20  N   UNL     1     -40.805  54.609 -51.563  1.00  0.00    -0.277 N 
HETATM   21  H   UNL     1     -40.515  55.000 -50.673  1.00  0.00     0.189 HD
HETATM   22  C   UNL     1     -40.428  53.408 -52.097  1.00  0.00     0.063 A 
HETATM   23  C   UNL     1     -41.085  53.323 -53.317  1.00  0.00     0.029 A 
HETATM   24  C   UNL     1     -39.575  52.409 -51.620  1.00  0.00     0.032 A 
HETATM   25  C   UNL     1     -40.877  52.187 -54.125  1.00  0.00     0.023 A 
HETATM   26  C   UNL     1     -40.020  51.167 -53.678  1.00  0.00    -0.061 A 
HETATM   27  C   UNL     1     -39.379  51.290 -52.440  1.00  0.00     0.009 A 
HETATM   28  C   UNL     1     -39.748  49.984 -54.562  1.00  0.00     0.048 C 
ENDBRANCH   2  18
TORSDOF 6
ENDMDL
MODEL 4
REMARK VINA RESULT:      -7.4      2.088      7.961
REMARK  6 active torsions:
REMARK  status: ('A' for Active; 'I' for Inactive)
REMARK    1  A    between atoms: C_2  and  N_3 
REMARK    2  A    between atoms: N_3  and  C_5 
REMARK    3  A    between atoms: N_3  and  C_26 
REMARK    4  A    between atoms: C_5  and  C_6 
REMARK    5  A    between atoms: C_8  and  N_9 
REMARK       I    between atoms: N_9  and  C_10 
REMARK    6  A    between atoms: C_10  and  C_11 
ROOT
HETATM    1  N   UNL     1     -41.277  55.612 -55.509  1.00  0.00    -0.322 N 
HETATM    2  C   UNL     1     -42.216  56.614 -55.323  1.00  0.00     0.277 C 
HETATM    3  O   UNL     1     -42.854  56.814 -54.293  1.00  0.00    -0.266 OA
HETATM    4  H   UNL     1     -40.853  55.627 -56.436  1.00  0.00     0.169 HD
ENDROOT
BRANCH   1   5
HETATM    5  C   UNL     1     -40.914  54.587 -54.621  1.00  0.00     0.035 A 
HETATM    6  C   UNL     1     -41.231  54.606 -53.262  1.00  0.00     0.038 A 
HETATM    7  C   UNL     1     -40.942  53.518 -52.422  1.00  0.00    -0.030 A 
HETATM    8  C   UNL     1     -40.251  52.424 -52.956  1.00  0.00     0.009 A 
HETATM    9  C   UNL     1     -39.895  52.411 -54.306  1.00  0.00     0.003 A 
HETATM   10  C   UNL     1     -40.235  53.482 -55.136  1.00  0.00     0.029 A 
BRANCH   7  11
HETATM   11  C   UNL     1     -41.406  53.541 -50.989  1.00  0.00     0.273 C 
BRANCH  11  12
HETATM   12  N   UNL     1     -41.918  54.886 -50.475  1.00  0.00    -0.068 N 
HETATM   13  H   UNL     1     -41.657  55.570 -51.195  1.00  0.00     0.280 HD
BRANCH  12  14
HETATM   14  C   UNL     1     -41.254  55.353 -49.193  1.00  0.00     0.231 C 
HETATM   15  C   UNL     1     -40.515  54.216 -48.511  1.00  0.00     0.034 C 
ENDBRANCH  12  14
BRANCH  12  16
HETATM   16  C   UNL     1     -43.432  54.981 -50.354  1.00  0.00     0.231 C 
HETATM   17  C   UNL     1     -43.957  56.273 -50.952  1.00  0.00     0.034 C 
ENDBRANCH  12  16
ENDBRANCH  11  12
ENDBRANCH   7  11
ENDBRANCH   1   5
BRANCH   2  18
HETATM   18  C   UNL     1     -42.403  57.428 -56.535  1.00  0.00     0.157 A 
HETATM   19  N   UNL     1     -42.023  58.724 -56.571  1.00  0.00    -0.168 NA
HETATM   20  N   UNL     1     -42.293  59.100 -57.837  1.00  0.00    -0.277 N 
HETATM   21  H   UNL     1     -42.073  60.049 -58.119  1.00  0.00     0.189 HD
HETATM   22  C   UNL     1     -42.851  58.119 -58.610  1.00  0.00     0.063 A 
HETATM   23  C   UNL     1     -42.951  57.009 -57.783  1.00  0.00     0.029 A 
HETATM   24  C   UNL     1     -43.272  58.117 -59.942  1.00  0.00     0.032 A 
HETATM   25  C   UNL     1     -43.517  55.825 -58.298  1.00  0.00     0.023 A 
HETATM   26  C   UNL     1     -43.957  55.791 -59.632  1.00  0.00    -0.061 A 
HETATM   27  C   UNL     1     -43.834  56.933 -60.434  1.00  0.00     0.009 A 
HETATM   28  C   UNL     1     -44.615  54.552 -60.167  1.00  0.00     0.048 C 
ENDBRANCH   2  18
TORSDOF 6
ENDMDL
MODEL 5
REMARK VINA RESULT:      -7.2      2.334      8.572
REMARK  6 active torsions:
REMARK  status: ('A' for Active; 'I' for Inactive)
REMARK    1  A    between atoms: C_2  and  N_3 
REMARK    2  A    between atoms: N_3  and  C_5 
REMARK    3  A    between atoms: N_3  and  C_26 
REMARK    4  A    between atoms: C_5  and  C_6 
REMARK    5  A    between atoms: C_8  and  N_9 
REMARK       I    between atoms: N_9  and  C_10 
REMARK    6  A    between atoms: C_10  and  C_11 
ROOT
HETATM    1  N   UNL     1     -41.630  55.369 -56.289  1.00  0.00    -0.322 N 
HETATM    2  C   UNL     1     -42.701  56.205 -56.563  1.00  0.00     0.277 C 
HETATM    3  O   UNL     1     -43.584  56.519 -55.769  1.00  0.00    -0.266 OA
HETATM    4  H   UNL     1     -41.004  55.247 -57.085  1.00  0.00     0.169 HD
ENDROOT
BRANCH   1   5
HETATM    5  C   UNL     1     -41.365  54.655 -55.111  1.00  0.00     0.035 A 
HETATM    6  C   UNL     1     -42.052  54.873 -53.915  1.00  0.00     0.038 A 
HETATM    7  C   UNL     1     -41.833  54.071 -52.782  1.00  0.00    -0.030 A 
HETATM    8  C   UNL     1     -40.844  53.082 -52.842  1.00  0.00     0.009 A 
HETATM    9  C   UNL     1     -40.124  52.881 -54.021  1.00  0.00     0.003 A 
HETATM   10  C   UNL     1     -40.392  53.655 -55.153  1.00  0.00     0.029 A 
BRANCH   7  11
HETATM   11  C   UNL     1     -42.680  54.275 -51.554  1.00  0.00     0.273 C 
BRANCH  11  12
HETATM   12  N   UNL     1     -41.998  54.976 -50.381  1.00  0.00    -0.068 N 
HETATM   13  H   UNL     1     -42.762  55.354 -49.807  1.00  0.00     0.280 HD
BRANCH  12  14
HETATM   14  C   UNL     1     -41.147  56.168 -50.781  1.00  0.00     0.231 C 
HETATM   15  C   UNL     1     -42.007  57.383 -51.078  1.00  0.00     0.034 C 
ENDBRANCH  12  14
BRANCH  12  16
HETATM   16  C   UNL     1     -41.216  54.051 -49.460  1.00  0.00     0.231 C 
HETATM   17  C   UNL     1     -39.730  54.358 -49.496  1.00  0.00     0.034 C 
ENDBRANCH  12  16
ENDBRANCH  11  12
ENDBRANCH   7  11
ENDBRANCH   1   5
BRANCH   2  18
HETATM   18  C   UNL     1     -42.694  56.674 -57.959  1.00  0.00     0.157 A 
HETATM   19  N   UNL     1     -43.022  55.845 -58.974  1.00  0.00    -0.168 NA
HETATM   20  N   UNL     1     -42.960  56.637 -60.063  1.00  0.00    -0.277 N 
HETATM   21  H   UNL     1     -43.187  56.237 -60.967  1.00  0.00     0.189 HD
HETATM   22  C   UNL     1     -42.584  57.926 -59.803  1.00  0.00     0.063 A 
HETATM   23  C   UNL     1     -42.387  57.983 -58.430  1.00  0.00     0.029 A 
HETATM   24  C   UNL     1     -42.399  59.025 -60.646  1.00  0.00     0.032 A 
HETATM   25  C   UNL     1     -41.967  59.199 -57.854  1.00  0.00     0.023 A 
HETATM   26  C   UNL     1     -41.765  60.322 -58.674  1.00  0.00    -0.061 A 
HETATM   27  C   UNL     1     -41.979  60.222 -60.054  1.00  0.00     0.009 A 
HETATM   28  C   UNL     1     -41.260  61.602 -58.072  1.00  0.00     0.048 C 
ENDBRANCH   2  18
TORSDOF 6
ENDMDL
MODEL 6
REMARK VINA RESULT:      -7.1      3.556      5.516
REMARK  6 active torsions:
REMARK  status: ('A' for Active; 'I' for Inactive)
REMARK    1  A    between atoms: C_2  and  N_3 
REMARK    2  A    between atoms: N_3  and  C_5 
REMARK    3  A    between atoms: N_3  and  C_26 
REMARK    4  A    between atoms: C_5  and  C_6 
REMARK    5  A    between atoms: C_8  and  N_9 
REMARK       I    between atoms: N_9  and  C_10 
REMARK    6  A    between atoms: C_10  and  C_11 
ROOT
HETATM    1  N   UNL     1     -42.550  55.386 -52.037  1.00  0.00    -0.322 N 
HETATM    2  C   UNL     1     -41.305  54.937 -52.448  1.00  0.00     0.277 C 
HETATM    3  O   UNL     1     -40.658  55.385 -53.391  1.00  0.00    -0.266 OA
HETATM    4  H   UNL     1     -42.909  54.885 -51.226  1.00  0.00     0.169 HD
ENDROOT
BRANCH   1   5
HETATM    5  C   UNL     1     -43.359  56.366 -52.633  1.00  0.00     0.035 A 
HETATM    6  C   UNL     1     -43.733  57.545 -51.986  1.00  0.00     0.038 A 
HETATM    7  C   UNL     1     -44.459  58.551 -52.647  1.00  0.00    -0.030 A 
HETATM    8  C   UNL     1     -44.877  58.322 -53.963  1.00  0.00     0.009 A 
HETATM    9  C   UNL     1     -44.541  57.129 -54.607  1.00  0.00     0.003 A 
HETATM   10  C   UNL     1     -43.776  56.162 -53.949  1.00  0.00     0.029 A 
BRANCH   7  11
HETATM   11  C   UNL     1     -44.739  59.851 -51.939  1.00  0.00     0.273 C 
BRANCH  11  12
HETATM   12  N   UNL     1     -43.593  60.861 -51.920  1.00  0.00    -0.068 N 
HETATM   13  H   UNL     1     -42.849  60.441 -52.490  1.00  0.00     0.280 HD
BRANCH  12  14
HETATM   14  C   UNL     1     -42.990  61.089 -50.546  1.00  0.00     0.231 C 
HETATM   15  C   UNL     1     -41.708  60.295 -50.370  1.00  0.00     0.034 C 
ENDBRANCH  12  14
BRANCH  12  16
HETATM   16  C   UNL     1     -43.913  62.191 -52.586  1.00  0.00     0.231 C 
HETATM   17  C   UNL     1     -45.318  62.657 -52.250  1.00  0.00     0.034 C 
ENDBRANCH  12  16
ENDBRANCH  11  12
ENDBRANCH   7  11
ENDBRANCH   1   5
BRANCH   2  18
HETATM   18  C   UNL     1     -40.829  53.808 -51.632  1.00  0.00     0.157 A 
HETATM   19  N   UNL     1     -40.771  53.897 -50.285  1.00  0.00    -0.168 NA
HETATM   20  N   UNL     1     -40.356  52.673 -49.903  1.00  0.00    -0.277 N 
HETATM   21  H   UNL     1     -40.250  52.483 -48.912  1.00  0.00     0.189 HD
HETATM   22  C   UNL     1     -40.118  51.809 -50.937  1.00  0.00     0.063 A 
HETATM   23  C   UNL     1     -40.405  52.527 -52.091  1.00  0.00     0.029 A 
HETATM   24  C   UNL     1     -39.678  50.483 -50.954  1.00  0.00     0.032 A 
HETATM   25  C   UNL     1     -40.233  51.900 -53.341  1.00  0.00     0.023 A 
HETATM   26  C   UNL     1     -39.786  50.569 -53.395  1.00  0.00    -0.061 A 
HETATM   27  C   UNL     1     -39.510  49.881 -52.207  1.00  0.00     0.009 A 
HETATM   28  C   UNL     1     -39.543  49.919 -54.726  1.00  0.00     0.048 C 
ENDBRANCH   2  18
TORSDOF 6
ENDMDL
MODEL 7
REMARK VINA RESULT:      -6.8      2.426      4.000
REMARK  6 active torsions:
REMARK  status: ('A' for Active; 'I' for Inactive)
REMARK    1  A    between atoms: C_2  and  N_3 
REMARK    2  A    between atoms: N_3  and  C_5 
REMARK    3  A    between atoms: N_3  and  C_26 
REMARK    4  A    between atoms: C_5  and  C_6 
REMARK    5  A    between atoms: C_8  and  N_9 
REMARK       I    between atoms: N_9  and  C_10 
REMARK    6  A    between atoms: C_10  and  C_11 
ROOT
HETATM    1  N   UNL     1     -42.385  55.294 -53.776  1.00  0.00    -0.322 N 
HETATM    2  C   UNL     1     -41.030  55.270 -53.481  1.00  0.00     0.277 C 
HETATM    3  O   UNL     1     -40.166  55.946 -54.033  1.00  0.00    -0.266 OA
HETATM    4  H   UNL     1     -42.933  54.663 -53.192  1.00  0.00     0.169 HD
ENDROOT
BRANCH   1   5
HETATM    5  C   UNL     1     -43.040  56.011 -54.789  1.00  0.00     0.035 A 
HETATM    6  C   UNL     1     -43.877  57.099 -54.536  1.00  0.00     0.038 A 
HETATM    7  C   UNL     1     -44.436  57.857 -55.578  1.00  0.00    -0.030 A 
HETATM    8  C   UNL     1     -44.202  57.457 -56.899  1.00  0.00     0.009 A 
HETATM    9  C   UNL     1     -43.398  56.347 -57.162  1.00  0.00     0.003 A 
HETATM   10  C   UNL     1     -42.810  55.635 -56.113  1.00  0.00     0.029 A 
BRANCH   7  11
HETATM   11  C   UNL     1     -45.240  59.089 -55.252  1.00  0.00     0.273 C 
BRANCH  11  12
HETATM   12  N   UNL     1     -44.440  60.302 -54.781  1.00  0.00    -0.068 N 
HETATM   13  H   UNL     1     -44.903  61.115 -55.205  1.00  0.00     0.280 HD
BRANCH  12  14
HETATM   14  C   UNL     1     -43.006  60.331 -55.276  1.00  0.00     0.231 C 
HETATM   15  C   UNL     1     -42.024  60.225 -54.124  1.00  0.00     0.034 C 
ENDBRANCH  12  14
BRANCH  12  16
HETATM   16  C   UNL     1     -44.487  60.545 -53.279  1.00  0.00     0.231 C 
HETATM   17  C   UNL     1     -45.787  60.044 -52.676  1.00  0.00     0.034 C 
ENDBRANCH  12  16
ENDBRANCH  11  12
ENDBRANCH   7  11
ENDBRANCH   1   5
BRANCH   2  18
HETATM   18  C   UNL     1     -40.713  54.298 -52.422  1.00  0.00     0.157 A 
HETATM   19  N   UNL     1     -40.756  54.648 -51.117  1.00  0.00    -0.168 NA
HETATM   20  N   UNL     1     -40.472  53.500 -50.471  1.00  0.00    -0.277 N 
HETATM   21  H   UNL     1     -40.462  53.504 -49.457  1.00  0.00     0.189 HD
HETATM   22  C   UNL     1     -40.222  52.436 -51.293  1.00  0.00     0.063 A 
HETATM   23  C   UNL     1     -40.358  52.927 -52.584  1.00  0.00     0.029 A 
HETATM   24  C   UNL     1     -39.889  51.108 -51.014  1.00  0.00     0.032 A 
HETATM   25  C   UNL     1     -40.137  52.056 -53.670  1.00  0.00     0.023 A 
HETATM   26  C   UNL     1     -39.794  50.715 -53.425  1.00  0.00    -0.061 A 
HETATM   27  C   UNL     1     -39.671  50.260 -52.106  1.00  0.00     0.009 A 
HETATM   28  C   UNL     1     -39.499  49.800 -54.578  1.00  0.00     0.048 C 
ENDBRANCH   2  18
TORSDOF 6
ENDMDL
MODEL 8
REMARK VINA RESULT:      -6.8     14.818     16.900
REMARK  6 active torsions:
REMARK  status: ('A' for Active; 'I' for Inactive)
REMARK    1  A    between atoms: C_2  and  N_3 
REMARK    2  A    between atoms: N_3  and  C_5 
REMARK    3  A    between atoms: N_3  and  C_26 
REMARK    4  A    between atoms: C_5  and  C_6 
REMARK    5  A    between atoms: C_8  and  N_9 
REMARK       I    between atoms: N_9  and  C_10 
REMARK    6  A    between atoms: C_10  and  C_11 
ROOT
HETATM    1  N   UNL     1     -35.546  41.222 -56.062  1.00  0.00    -0.322 N 
HETATM    2  C   UNL     1     -36.228  41.035 -54.870  1.00  0.00     0.277 C 
HETATM    3  O   UNL     1     -37.405  40.701 -54.765  1.00  0.00    -0.266 OA
HETATM    4  H   UNL     1     -34.571  41.489 -55.928  1.00  0.00     0.169 HD
ENDROOT
BRANCH   1   5
HETATM    5  C   UNL     1     -36.048  41.151 -57.371  1.00  0.00     0.035 A 
HETATM    6  C   UNL     1     -35.999  39.991 -58.146  1.00  0.00     0.038 A 
HETATM    7  C   UNL     1     -36.602  39.926 -59.413  1.00  0.00    -0.030 A 
HETATM    8  C   UNL     1     -37.199  41.080 -59.933  1.00  0.00     0.009 A 
HETATM    9  C   UNL     1     -37.220  42.257 -59.181  1.00  0.00     0.003 A 
HETATM   10  C   UNL     1     -36.659  42.288 -57.902  1.00  0.00     0.029 A 
BRANCH   7  11
HETATM   11  C   UNL     1     -36.618  38.618 -60.161  1.00  0.00     0.273 C 
BRANCH  11  12
HETATM   12  N   UNL     1     -36.317  38.700 -61.656  1.00  0.00    -0.068 N 
HETATM   13  H   UNL     1     -36.068  39.681 -61.831  1.00  0.00     0.280 HD
BRANCH  12  14
HETATM   14  C   UNL     1     -37.510  38.404 -62.546  1.00  0.00     0.231 C 
HETATM   15  C   UNL     1     -38.779  38.240 -61.729  1.00  0.00     0.034 C 
ENDBRANCH  12  14
BRANCH  12  16
HETATM   16  C   UNL     1     -35.109  37.888 -62.101  1.00  0.00     0.231 C 
HETATM   17  C   UNL     1     -34.220  37.524 -60.926  1.00  0.00     0.034 C 
ENDBRANCH  12  16
ENDBRANCH  11  12
ENDBRANCH   7  11
ENDBRANCH   1   5
BRANCH   2  18
HETATM   18  C   UNL     1     -35.381  41.317 -53.699  1.00  0.00     0.157 A 
HETATM   19  N   UNL     1     -35.647  42.359 -52.881  1.00  0.00    -0.168 NA
HETATM   20  N   UNL     1     -34.713  42.252 -51.916  1.00  0.00    -0.277 N 
HETATM   21  H   UNL     1     -34.717  42.927 -51.159  1.00  0.00     0.189 HD
HETATM   22  C   UNL     1     -33.843  41.209 -52.085  1.00  0.00     0.063 A 
HETATM   23  C   UNL     1     -34.245  40.580 -53.256  1.00  0.00     0.029 A 
HETATM   24  C   UNL     1     -32.755  40.777 -51.323  1.00  0.00     0.032 A 
HETATM   25  C   UNL     1     -33.517  39.462 -53.711  1.00  0.00     0.023 A 
HETATM   26  C   UNL     1     -32.412  39.006 -52.972  1.00  0.00    -0.061 A 
HETATM   27  C   UNL     1     -32.043  39.667 -51.794  1.00  0.00     0.009 A 
HETATM   28  C   UNL     1     -31.598  37.854 -53.486  1.00  0.00     0.048 C 
ENDBRANCH   2  18
TORSDOF 6
ENDMDL
MODEL 9
REMARK VINA RESULT:      -6.7     15.459     16.866
REMARK  6 active torsions:
REMARK  status: ('A' for Active; 'I' for Inactive)
REMARK    1  A    between atoms: C_2  and  N_3 
REMARK    2  A    between atoms: N_3  and  C_5 
REMARK    3  A    between atoms: N_3  and  C_26 
REMARK    4  A    between atoms: C_5  and  C_6 
REMARK    5  A    between atoms: C_8  and  N_9 
REMARK       I    between atoms: N_9  and  C_10 
REMARK    6  A    between atoms: C_10  and  C_11 
ROOT
HETATM    1  N   UNL     1     -35.118  40.576 -56.770  1.00  0.00    -0.322 N 
HETATM    2  C   UNL     1     -35.516  40.136 -55.517  1.00  0.00     0.277 C 
HETATM    3  O   UNL     1     -36.621  39.680 -55.237  1.00  0.00    -0.266 OA
HETATM    4  H   UNL     1     -34.155  40.909 -56.791  1.00  0.00     0.169 HD
ENDROOT
BRANCH   1   5
HETATM    5  C   UNL     1     -35.885  40.668 -57.942  1.00  0.00     0.035 A 
HETATM    6  C   UNL     1     -36.159  39.573 -58.764  1.00  0.00     0.038 A 
HETATM    7  C   UNL     1     -37.014  39.680 -59.873  1.00  0.00    -0.030 A 
HETATM    8  C   UNL     1     -37.539  40.937 -60.197  1.00  0.00     0.009 A 
HETATM    9  C   UNL     1     -37.242  42.046 -59.403  1.00  0.00     0.003 A 
HETATM   10  C   UNL     1     -36.429  41.910 -58.275  1.00  0.00     0.029 A 
BRANCH   7  11
HETATM   11  C   UNL     1     -37.366  38.446 -60.661  1.00  0.00     0.273 C 
BRANCH  11  12
HETATM   12  N   UNL     1     -38.601  38.552 -61.554  1.00  0.00    -0.068 N 
HETATM   13  H   UNL     1     -38.768  39.559 -61.668  1.00  0.00     0.280 HD
BRANCH  12  14
HETATM   14  C   UNL     1     -39.865  37.986 -60.933  1.00  0.00     0.231 C 
HETATM   15  C   UNL     1     -41.000  37.941 -61.941  1.00  0.00     0.034 C 
ENDBRANCH  12  14
BRANCH  12  16
HETATM   16  C   UNL     1     -38.411  38.008 -62.962  1.00  0.00     0.231 C 
HETATM   17  C   UNL     1     -37.059  38.398 -63.531  1.00  0.00     0.034 C 
ENDBRANCH  12  16
ENDBRANCH  11  12
ENDBRANCH   7  11
ENDBRANCH   1   5
BRANCH   2  18
HETATM   18  C   UNL     1     -34.455  40.305 -54.510  1.00  0.00     0.157 A 
HETATM   19  N   UNL     1     -33.172  40.517 -54.878  1.00  0.00    -0.168 NA
HETATM   20  N   UNL     1     -32.529  40.681 -53.705  1.00  0.00    -0.277 N 
HETATM   21  H   UNL     1     -31.533  40.874 -53.720  1.00  0.00     0.189 HD
HETATM   22  C   UNL     1     -33.327  40.559 -52.601  1.00  0.00     0.063 A 
HETATM   23  C   UNL     1     -34.599  40.298 -53.092  1.00  0.00     0.029 A 
HETATM   24  C   UNL     1     -33.041  40.650 -51.236  1.00  0.00     0.032 A 
HETATM   25  C   UNL     1     -35.654  40.101 -52.178  1.00  0.00     0.023 A 
HETATM   26  C   UNL     1     -35.400  40.179 -50.799  1.00  0.00    -0.061 A 
HETATM   27  C   UNL     1     -34.102  40.448 -50.345  1.00  0.00     0.009 A 
HETATM   28  C   UNL     1     -36.507  39.909 -49.821  1.00  0.00     0.048 C 
ENDBRANCH   2  18
TORSDOF 6
ENDMDL
MODEL 10
REMARK VINA RESULT:      -6.6      5.130      8.934
REMARK  6 active torsions:
REMARK  status: ('A' for Active; 'I' for Inactive)
REMARK    1  A    between atoms: C_2  and  N_3 
REMARK    2  A    between atoms: N_3  and  C_5 
REMARK    3  A    between atoms: N_3  and  C_26 
REMARK    4  A    between atoms: C_5  and  C_6 
REMARK    5  A    between atoms: C_8  and  N_9 
REMARK       I    between atoms: N_9  and  C_10 
REMARK    6  A    between atoms: C_10  and  C_11 
ROOT
HETATM    1  N   UNL     1     -43.007  58.075 -51.062  1.00  0.00    -0.322 N 
HETATM    2  C   UNL     1     -44.112  58.897 -51.224  1.00  0.00     0.277 C 
HETATM    3  O   UNL     1     -45.265  58.517 -51.407  1.00  0.00    -0.266 OA
HETATM    4  H   UNL     1     -42.142  58.592 -50.911  1.00  0.00     0.169 HD
ENDROOT
BRANCH   1   5
HETATM    5  C   UNL     1     -42.947  56.675 -51.146  1.00  0.00     0.035 A 
HETATM    6  C   UNL     1     -41.865  55.990 -51.702  1.00  0.00     0.038 A 
HETATM    7  C   UNL     1     -41.791  54.587 -51.679  1.00  0.00    -0.030 A 
HETATM    8  C   UNL     1     -42.869  53.867 -51.151  1.00  0.00     0.009 A 
HETATM    9  C   UNL     1     -43.973  54.542 -50.627  1.00  0.00     0.003 A 
HETATM   10  C   UNL     1     -44.006  55.939 -50.614  1.00  0.00     0.029 A 
BRANCH   7  11
HETATM   11  C   UNL     1     -40.551  53.901 -52.191  1.00  0.00     0.273 C 
BRANCH  11  12
HETATM   12  N   UNL     1     -40.776  52.805 -53.231  1.00  0.00    -0.068 N 
HETATM   13  H   UNL     1     -41.613  52.299 -52.917  1.00  0.00     0.280 HD
BRANCH  12  14
HETATM   14  C   UNL     1     -39.663  51.775 -53.297  1.00  0.00     0.231 C 
HETATM   15  C   UNL     1     -40.056  50.596 -54.169  1.00  0.00     0.034 C 
ENDBRANCH  12  14
BRANCH  12  16
HETATM   16  C   UNL     1     -41.109  53.317 -54.625  1.00  0.00     0.231 C 
HETATM   17  C   UNL     1     -40.090  54.337 -55.100  1.00  0.00     0.034 C 
ENDBRANCH  12  16
ENDBRANCH  11  12
ENDBRANCH   7  11
ENDBRANCH   1   5
BRANCH   2  18
HETATM   18  C   UNL     1     -43.749  60.323 -51.184  1.00  0.00     0.157 A 
HETATM   19  N   UNL     1     -43.098  60.906 -52.215  1.00  0.00    -0.168 NA
HETATM   20  N   UNL     1     -43.004  62.198 -51.842  1.00  0.00    -0.277 N 
HETATM   21  H   UNL     1     -42.558  62.854 -52.474  1.00  0.00     0.189 HD
HETATM   22  C   UNL     1     -43.537  62.471 -50.612  1.00  0.00     0.063 A 
HETATM   23  C   UNL     1     -44.024  61.258 -50.143  1.00  0.00     0.029 A 
HETATM   24  C   UNL     1     -43.625  63.659 -49.883  1.00  0.00     0.032 A 
HETATM   25  C   UNL     1     -44.624  61.212 -48.869  1.00  0.00     0.023 A 
HETATM   26  C   UNL     1     -44.723  62.389 -48.107  1.00  0.00    -0.061 A 
HETATM   27  C   UNL     1     -44.222  63.592 -48.618  1.00  0.00     0.009 A 
HETATM   28  C   UNL     1     -45.307  62.333 -46.725  1.00  0.00     0.048 C 
ENDBRANCH   2  18
TORSDOF 6
ENDMDL
