MODEL 1
REMARK VINA RESULT:      -8.4      0.000      0.000
REMARK  2 active torsions:
REMARK  status: ('A' for Active; 'I' for Inactive)
REMARK    1  A    between atoms: N_20  and  C_21 
REMARK    2  A    between atoms: C_24  and  O_25 
ROOT
HETATM    1  C   UNL     1     -43.008  55.757 -58.269  1.00  0.00     0.048 C 
HETATM    2  C   UNL     1     -42.828  57.031 -57.492  1.00  0.00    -0.061 A 
HETATM    3  C   UNL     1     -42.661  57.003 -56.097  1.00  0.00     0.019 A 
HETATM    4  C   UNL     1     -42.437  58.198 -55.427  1.00  0.00     0.016 A 
HETATM    5  C   UNL     1     -42.409  59.398 -56.147  1.00  0.00     0.044 A 
HETATM    6  N   UNL     1     -42.216  60.474 -55.295  1.00  0.00    -0.324 N 
HETATM    7  C   UNL     1     -42.097  60.055 -53.985  1.00  0.00     0.264 A 
HETATM    8  O   UNL     1     -41.962  60.769 -53.005  1.00  0.00    -0.270 OA
HETATM    9  C   UNL     1     -42.248  58.489 -53.963  1.00  0.00     0.250 A 
HETATM   10  N   UNL     1     -43.430  58.033 -53.127  1.00  0.00    -0.043 N 
HETATM   11  H   UNL     1     -43.613  57.050 -53.375  1.00  0.00     0.282 HD
HETATM   12  C   UNL     1     -42.966  58.132 -51.697  1.00  0.00     0.204 C 
HETATM   13  C   UNL     1     -44.168  57.554 -50.989  1.00  0.00     0.036 C 
HETATM   14  C   UNL     1     -45.343  58.196 -51.764  1.00  0.00     0.030 C 
HETATM   15  C   UNL     1     -44.777  58.679 -53.114  1.00  0.00     0.237 C 
HETATM   16  C   UNL     1     -41.555  57.591 -51.750  1.00  0.00     0.126 C 
HETATM   17  C   UNL     1     -41.048  57.918 -53.162  1.00  0.00     0.145 C 
HETATM   18  C   UNL     1     -40.560  56.596 -53.669  1.00  0.00     0.239 C 
HETATM   19  O   UNL     1     -39.901  56.528 -54.695  1.00  0.00    -0.272 OA
HETATM   20  N   UNL     1     -40.987  55.588 -52.830  1.00  0.00    -0.252 N 
HETATM   21  C   UNL     1     -41.511  56.100 -51.665  1.00  0.00     0.238 C 
HETATM   22  O   UNL     1     -41.969  55.528 -50.687  1.00  0.00    -0.272 OA
HETATM   23  C   UNL     1     -42.572  59.462 -57.512  1.00  0.00     0.031 A 
HETATM   24  C   UNL     1     -42.778  58.258 -58.187  1.00  0.00     0.009 A 
HETATM   25  H   UNL     1     -42.157  61.444 -55.583  1.00  0.00     0.169 HD
ENDROOT
BRANCH  20  26
HETATM   26  C   UNL     1     -40.915  54.186 -53.133  1.00  0.00     0.045 A 
HETATM   27  C   UNL     1     -40.132  53.307 -52.371  1.00  0.00     0.033 A 
HETATM   28  C   UNL     1     -39.985  51.958 -52.730  1.00  0.00     0.039 A 
HETATM   29  C   UNL     1     -40.618  51.444 -53.857  1.00  0.00     0.068 A 
HETATM   30  C   UNL     1     -41.426  52.286 -54.607  1.00  0.00     0.039 A 
HETATM   31  C   UNL     1     -41.572  53.635 -54.246  1.00  0.00     0.033 A 
BRANCH  29  32
HETATM   32  O   UNL     1     -40.369  50.126 -54.112  1.00  0.00    -0.356 OA
HETATM   33  C   UNL     1     -39.605  49.415 -53.144  1.00  0.00     0.210 C 
ENDBRANCH  29  32
ENDBRANCH  20  26
TORSDOF 2
ENDMDL
MODEL 2
REMARK VINA RESULT:      -8.4      2.193      4.612
REMARK  2 active torsions:
REMARK  status: ('A' for Active; 'I' for Inactive)
REMARK    1  A    between atoms: N_20  and  C_21 
REMARK    2  A    between atoms: C_24  and  O_25 
ROOT
HETATM    1  C   UNL     1     -40.245  58.455 -50.959  1.00  0.00     0.048 C 
HETATM    2  C   UNL     1     -41.386  59.176 -51.622  1.00  0.00    -0.061 A 
HETATM    3  C   UNL     1     -41.857  58.768 -52.882  1.00  0.00     0.019 A 
HETATM    4  C   UNL     1     -42.951  59.424 -53.428  1.00  0.00     0.016 A 
HETATM    5  C   UNL     1     -43.541  60.485 -52.731  1.00  0.00     0.044 A 
HETATM    6  N   UNL     1     -44.585  61.028 -53.461  1.00  0.00    -0.324 N 
HETATM    7  C   UNL     1     -44.753  60.364 -54.660  1.00  0.00     0.264 A 
HETATM    8  O   UNL     1     -45.560  60.636 -55.533  1.00  0.00    -0.270 OA
HETATM    9  C   UNL     1     -43.658  59.236 -54.744  1.00  0.00     0.250 A 
HETATM   10  N   UNL     1     -42.728  59.419 -55.930  1.00  0.00    -0.043 N 
HETATM   11  H   UNL     1     -41.909  58.817 -55.765  1.00  0.00     0.282 HD
HETATM   12  C   UNL     1     -43.506  58.925 -57.123  1.00  0.00     0.204 C 
HETATM   13  C   UNL     1     -42.450  59.051 -58.195  1.00  0.00     0.036 C 
HETATM   14  C   UNL     1     -41.795  60.409 -57.851  1.00  0.00     0.030 C 
HETATM   15  C   UNL     1     -42.159  60.721 -56.386  1.00  0.00     0.237 C 
HETATM   16  C   UNL     1     -44.179  57.673 -56.606  1.00  0.00     0.126 C 
HETATM   17  C   UNL     1     -44.383  57.913 -55.104  1.00  0.00     0.145 C 
HETATM   18  C   UNL     1     -43.771  56.700 -54.473  1.00  0.00     0.239 C 
HETATM   19  O   UNL     1     -43.938  56.464 -53.287  1.00  0.00    -0.272 OA
HETATM   20  N   UNL     1     -43.043  56.002 -55.415  1.00  0.00    -0.252 N 
HETATM   21  C   UNL     1     -43.291  56.473 -56.684  1.00  0.00     0.238 C 
HETATM   22  O   UNL     1     -42.853  56.105 -57.763  1.00  0.00    -0.272 OA
HETATM   23  C   UNL     1     -43.103  60.911 -51.498  1.00  0.00     0.031 A 
HETATM   24  C   UNL     1     -42.015  60.240 -50.940  1.00  0.00     0.009 A 
HETATM   25  H   UNL     1     -45.166  61.804 -53.162  1.00  0.00     0.169 HD
ENDROOT
BRANCH  20  26
HETATM   26  C   UNL     1     -42.130  54.935 -55.116  1.00  0.00     0.045 A 
HETATM   27  C   UNL     1     -42.582  53.676 -54.693  1.00  0.00     0.033 A 
HETATM   28  C   UNL     1     -41.684  52.668 -54.307  1.00  0.00     0.039 A 
HETATM   29  C   UNL     1     -40.310  52.883 -54.335  1.00  0.00     0.068 A 
HETATM   30  C   UNL     1     -39.839  54.108 -54.782  1.00  0.00     0.039 A 
HETATM   31  C   UNL     1     -40.737  55.115 -55.170  1.00  0.00     0.033 A 
BRANCH  29  32
HETATM   32  O   UNL     1     -39.550  51.833 -53.905  1.00  0.00    -0.356 OA
HETATM   33  C   UNL     1     -39.976  50.529 -54.287  1.00  0.00     0.210 C 
ENDBRANCH  29  32
ENDBRANCH  20  26
TORSDOF 2
ENDMDL
MODEL 3
REMARK VINA RESULT:      -8.4      2.495      5.876
REMARK  2 active torsions:
REMARK  status: ('A' for Active; 'I' for Inactive)
REMARK    1  A    between atoms: N_20  and  C_21 
REMARK    2  A    between atoms: C_24  and  O_25 
ROOT
HETATM    1  C   UNL     1     -46.027  61.081 -53.342  1.00  0.00     0.048 C 
HETATM    2  C   UNL     1     -44.895  60.591 -52.482  1.00  0.00    -0.061 A 
HETATM    3  C   UNL     1     -44.149  59.460 -52.855  1.00  0.00     0.019 A 
HETATM    4  C   UNL     1     -43.074  59.080 -52.063  1.00  0.00     0.016 A 
HETATM    5  C   UNL     1     -42.776  59.809 -50.906  1.00  0.00     0.044 A 
HETATM    6  N   UNL     1     -41.701  59.245 -50.238  1.00  0.00    -0.324 N 
HETATM    7  C   UNL     1     -41.226  58.135 -50.907  1.00  0.00     0.264 A 
HETATM    8  O   UNL     1     -40.317  57.405 -50.547  1.00  0.00    -0.270 OA
HETATM    9  C   UNL     1     -42.119  57.923 -52.186  1.00  0.00     0.250 A 
HETATM   10  N   UNL     1     -42.831  56.583 -52.179  1.00  0.00    -0.043 N 
HETATM   11  H   UNL     1     -43.575  56.634 -52.889  1.00  0.00     0.282 HD
HETATM   12  C   UNL     1     -41.787  55.577 -52.590  1.00  0.00     0.204 C 
HETATM   13  C   UNL     1     -42.635  54.329 -52.654  1.00  0.00     0.036 C 
HETATM   14  C   UNL     1     -43.524  54.474 -51.397  1.00  0.00     0.030 C 
HETATM   15  C   UNL     1     -43.483  55.959 -50.989  1.00  0.00     0.237 C 
HETATM   16  C   UNL     1     -41.053  56.275 -53.713  1.00  0.00     0.126 C 
HETATM   17  C   UNL     1     -41.163  57.774 -53.399  1.00  0.00     0.145 C 
HETATM   18  C   UNL     1     -41.707  58.354 -54.668  1.00  0.00     0.239 C 
HETATM   19  O   UNL     1     -41.729  59.563 -54.840  1.00  0.00    -0.272 OA
HETATM   20  N   UNL     1     -42.145  57.340 -55.494  1.00  0.00    -0.252 N 
HETATM   21  C   UNL     1     -41.736  56.110 -55.031  1.00  0.00     0.238 C 
HETATM   22  O   UNL     1     -41.913  54.994 -55.494  1.00  0.00    -0.272 OA
HETATM   23  C   UNL     1     -43.488  60.918 -50.511  1.00  0.00     0.031 A 
HETATM   24  C   UNL     1     -44.556  61.311 -51.317  1.00  0.00     0.009 A 
HETATM   25  H   UNL     1     -41.299  59.598 -49.377  1.00  0.00     0.169 HD
ENDROOT
BRANCH  20  26
HETATM   26  C   UNL     1     -42.940  57.533 -56.674  1.00  0.00     0.045 A 
HETATM   27  C   UNL     1     -44.307  57.839 -56.600  1.00  0.00     0.033 A 
HETATM   28  C   UNL     1     -45.101  57.929 -57.754  1.00  0.00     0.039 A 
HETATM   29  C   UNL     1     -44.556  57.721 -59.017  1.00  0.00     0.068 A 
HETATM   30  C   UNL     1     -43.200  57.451 -59.118  1.00  0.00     0.039 A 
HETATM   31  C   UNL     1     -42.406  57.363 -57.963  1.00  0.00     0.033 A 
BRANCH  29  32
HETATM   32  O   UNL     1     -45.442  57.807 -60.052  1.00  0.00    -0.356 OA
HETATM   33  C   UNL     1     -46.519  56.876 -60.059  1.00  0.00     0.210 C 
ENDBRANCH  29  32
ENDBRANCH  20  26
TORSDOF 2
ENDMDL
MODEL 4
REMARK VINA RESULT:      -8.4      2.503      6.273
REMARK  2 active torsions:
REMARK  status: ('A' for Active; 'I' for Inactive)
REMARK    1  A    between atoms: N_20  and  C_21 
REMARK    2  A    between atoms: C_24  and  O_25 
ROOT
HETATM    1  C   UNL     1     -39.922  54.301 -55.088  1.00  0.00     0.048 C 
HETATM    2  C   UNL     1     -40.828  54.515 -53.907  1.00  0.00    -0.061 A 
HETATM    3  C   UNL     1     -41.611  55.677 -53.804  1.00  0.00     0.019 A 
HETATM    4  C   UNL     1     -42.478  55.804 -52.727  1.00  0.00     0.016 A 
HETATM    5  C   UNL     1     -42.535  54.791 -51.762  1.00  0.00     0.044 A 
HETATM    6  N   UNL     1     -43.425  55.126 -50.755  1.00  0.00    -0.324 N 
HETATM    7  C   UNL     1     -44.008  56.355 -50.995  1.00  0.00     0.264 A 
HETATM    8  O   UNL     1     -44.798  56.937 -50.269  1.00  0.00    -0.270 OA
HETATM    9  C   UNL     1     -43.409  56.920 -52.336  1.00  0.00     0.250 A 
HETATM   10  N   UNL     1     -42.680  58.237 -52.136  1.00  0.00    -0.043 N 
HETATM   11  H   UNL     1     -42.110  58.395 -52.979  1.00  0.00     0.282 HD
HETATM   12  C   UNL     1     -43.765  59.278 -52.036  1.00  0.00     0.204 C 
HETATM   13  C   UNL     1     -42.921  60.528 -51.956  1.00  0.00     0.036 C 
HETATM   14  C   UNL     1     -41.784  60.094 -51.002  1.00  0.00     0.030 C 
HETATM   15  C   UNL     1     -41.771  58.553 -50.995  1.00  0.00     0.237 C 
HETATM   16  C   UNL     1     -44.741  58.869 -53.116  1.00  0.00     0.126 C 
HETATM   17  C   UNL     1     -44.602  57.345 -53.233  1.00  0.00     0.145 C 
HETATM   18  C   UNL     1     -44.361  57.131 -54.696  1.00  0.00     0.239 C 
HETATM   19  O   UNL     1     -44.405  56.010 -55.176  1.00  0.00    -0.272 OA
HETATM   20  N   UNL     1     -44.088  58.339 -55.305  1.00  0.00    -0.252 N 
HETATM   21  C   UNL     1     -44.357  59.392 -54.462  1.00  0.00     0.238 C 
HETATM   22  O   UNL     1     -44.258  60.596 -54.646  1.00  0.00    -0.272 OA
HETATM   23  C   UNL     1     -41.781  53.642 -51.832  1.00  0.00     0.031 A 
HETATM   24  C   UNL     1     -40.923  53.506 -52.924  1.00  0.00     0.009 A 
HETATM   25  H   UNL     1     -43.639  54.550 -49.949  1.00  0.00     0.169 HD
ENDROOT
BRANCH  20  26
HETATM   26  C   UNL     1     -43.574  58.484 -56.637  1.00  0.00     0.045 A 
HETATM   27  C   UNL     1     -44.385  58.290 -57.765  1.00  0.00     0.033 A 
HETATM   28  C   UNL     1     -43.855  58.335 -59.065  1.00  0.00     0.039 A 
HETATM   29  C   UNL     1     -42.502  58.580 -59.279  1.00  0.00     0.068 A 
HETATM   30  C   UNL     1     -41.687  58.809 -58.180  1.00  0.00     0.039 A 
HETATM   31  C   UNL     1     -42.219  58.764 -56.881  1.00  0.00     0.033 A 
BRANCH  29  32
HETATM   32  O   UNL     1     -42.110  58.566 -60.586  1.00  0.00    -0.356 OA
HETATM   33  C   UNL     1     -41.965  59.828 -61.230  1.00  0.00     0.210 C 
ENDBRANCH  29  32
ENDBRANCH  20  26
TORSDOF 2
ENDMDL
MODEL 5
REMARK VINA RESULT:      -8.2      1.967      4.336
REMARK  2 active torsions:
REMARK  status: ('A' for Active; 'I' for Inactive)
REMARK    1  A    between atoms: N_20  and  C_21 
REMARK    2  A    between atoms: C_24  and  O_25 
ROOT
HETATM    1  C   UNL     1     -39.427  58.609 -50.387  1.00  0.00     0.048 C 
HETATM    2  C   UNL     1     -40.699  59.082 -51.034  1.00  0.00    -0.061 A 
HETATM    3  C   UNL     1     -41.323  58.316 -52.033  1.00  0.00     0.019 A 
HETATM    4  C   UNL     1     -42.529  58.762 -52.560  1.00  0.00     0.016 A 
HETATM    5  C   UNL     1     -43.078  59.966 -52.105  1.00  0.00     0.044 A 
HETATM    6  N   UNL     1     -44.253  60.252 -52.781  1.00  0.00    -0.324 N 
HETATM    7  C   UNL     1     -44.551  59.265 -53.699  1.00  0.00     0.264 A 
HETATM    8  O   UNL     1     -45.496  59.255 -54.472  1.00  0.00    -0.270 OA
HETATM    9  C   UNL     1     -43.408  58.185 -53.637  1.00  0.00     0.250 A 
HETATM   10  N   UNL     1     -42.679  58.036 -54.959  1.00  0.00    -0.043 N 
HETATM   11  H   UNL     1     -41.805  57.526 -54.765  1.00  0.00     0.282 HD
HETATM   12  C   UNL     1     -43.590  57.201 -55.822  1.00  0.00     0.204 C 
HETATM   13  C   UNL     1     -42.715  57.034 -57.042  1.00  0.00     0.036 C 
HETATM   14  C   UNL     1     -42.109  58.447 -57.206  1.00  0.00     0.030 C 
HETATM   15  C   UNL     1     -42.272  59.163 -55.850  1.00  0.00     0.237 C 
HETATM   16  C   UNL     1     -44.092  56.138 -54.871  1.00  0.00     0.126 C 
HETATM   17  C   UNL     1     -44.088  56.799 -53.485  1.00  0.00     0.145 C 
HETATM   18  C   UNL     1     -43.309  55.835 -52.645  1.00  0.00     0.239 C 
HETATM   19  O   UNL     1     -43.282  55.949 -51.430  1.00  0.00    -0.272 OA
HETATM   20  N   UNL     1     -42.683  54.910 -53.456  1.00  0.00    -0.252 N 
HETATM   21  C   UNL     1     -43.147  54.988 -54.748  1.00  0.00     0.238 C 
HETATM   22  O   UNL     1     -42.850  54.331 -55.735  1.00  0.00    -0.272 OA
HETATM   23  C   UNL     1     -42.492  60.741 -51.130  1.00  0.00     0.031 A 
HETATM   24  C   UNL     1     -41.290  60.284 -50.589  1.00  0.00     0.009 A 
HETATM   25  H   UNL     1     -44.834  61.068 -52.624  1.00  0.00     0.169 HD
ENDROOT
BRANCH  20  26
HETATM   26  C   UNL     1     -41.666  53.995 -53.018  1.00  0.00     0.045 A 
HETATM   27  C   UNL     1     -41.146  53.009 -53.870  1.00  0.00     0.033 A 
HETATM   28  C   UNL     1     -40.226  52.055 -53.409  1.00  0.00     0.039 A 
HETATM   29  C   UNL     1     -39.792  52.057 -52.087  1.00  0.00     0.068 A 
HETATM   30  C   UNL     1     -40.265  53.043 -51.235  1.00  0.00     0.039 A 
HETATM   31  C   UNL     1     -41.186  53.998 -51.698  1.00  0.00     0.033 A 
BRANCH  29  32
HETATM   32  O   UNL     1     -38.921  51.058 -51.761  1.00  0.00    -0.356 OA
HETATM   33  C   UNL     1     -39.485  49.840 -51.285  1.00  0.00     0.210 C 
ENDBRANCH  29  32
ENDBRANCH  20  26
TORSDOF 2
ENDMDL
MODEL 6
REMARK VINA RESULT:      -8.1      2.076      4.489
REMARK  2 active torsions:
REMARK  status: ('A' for Active; 'I' for Inactive)
REMARK    1  A    between atoms: N_20  and  C_21 
REMARK    2  A    between atoms: C_24  and  O_25 
ROOT
HETATM    1  C   UNL     1     -40.401  58.840 -50.281  1.00  0.00     0.048 C 
HETATM    2  C   UNL     1     -41.505  59.478 -51.079  1.00  0.00    -0.061 A 
HETATM    3  C   UNL     1     -41.959  58.891 -52.272  1.00  0.00     0.019 A 
HETATM    4  C   UNL     1     -43.021  59.481 -52.944  1.00  0.00     0.016 A 
HETATM    5  C   UNL     1     -43.595  60.652 -52.435  1.00  0.00     0.044 A 
HETATM    6  N   UNL     1     -44.606  61.102 -53.269  1.00  0.00    -0.324 N 
HETATM    7  C   UNL     1     -44.765  60.263 -54.355  1.00  0.00     0.264 A 
HETATM    8  O   UNL     1     -45.544  60.416 -55.281  1.00  0.00    -0.270 OA
HETATM    9  C   UNL     1     -43.702  59.109 -54.233  1.00  0.00     0.250 A 
HETATM   10  N   UNL     1     -42.740  59.081 -55.407  1.00  0.00    -0.043 N 
HETATM   11  H   UNL     1     -41.943  58.491 -55.128  1.00  0.00     0.282 HD
HETATM   12  C   UNL     1     -43.505  58.427 -56.530  1.00  0.00     0.204 C 
HETATM   13  C   UNL     1     -42.421  58.358 -57.579  1.00  0.00     0.036 C 
HETATM   14  C   UNL     1     -41.735  59.736 -57.432  1.00  0.00     0.030 C 
HETATM   15  C   UNL     1     -42.123  60.282 -56.043  1.00  0.00     0.237 C 
HETATM   16  C   UNL     1     -44.225  57.288 -55.844  1.00  0.00     0.126 C 
HETATM   17  C   UNL     1     -44.457  57.764 -54.403  1.00  0.00     0.145 C 
HETATM   18  C   UNL     1     -43.895  56.649 -53.576  1.00  0.00     0.239 C 
HETATM   19  O   UNL     1     -44.096  56.605 -52.372  1.00  0.00    -0.272 OA
HETATM   20  N   UNL     1     -43.166  55.795 -54.378  1.00  0.00    -0.252 N 
HETATM   21  C   UNL     1     -43.371  56.069 -55.710  1.00  0.00     0.238 C 
HETATM   22  O   UNL     1     -42.919  55.526 -56.707  1.00  0.00    -0.272 OA
HETATM   23  C   UNL     1     -43.173  61.254 -51.272  1.00  0.00     0.031 A 
HETATM   24  C   UNL     1     -42.118  60.650 -50.587  1.00  0.00     0.009 A 
HETATM   25  H   UNL     1     -45.170  61.928 -53.110  1.00  0.00     0.169 HD
ENDROOT
BRANCH  20  26
HETATM   26  C   UNL     1     -42.292  54.765 -53.892  1.00  0.00     0.045 A 
HETATM   27  C   UNL     1     -41.534  54.932 -52.723  1.00  0.00     0.033 A 
HETATM   28  C   UNL     1     -40.608  53.963 -52.307  1.00  0.00     0.039 A 
HETATM   29  C   UNL     1     -40.412  52.797 -53.040  1.00  0.00     0.068 A 
HETATM   30  C   UNL     1     -41.175  52.593 -54.180  1.00  0.00     0.039 A 
HETATM   31  C   UNL     1     -42.103  53.563 -54.595  1.00  0.00     0.033 A 
BRANCH  29  32
HETATM   32  O   UNL     1     -39.461  51.953 -52.543  1.00  0.00    -0.356 OA
HETATM   33  C   UNL     1     -39.776  51.263 -51.338  1.00  0.00     0.210 C 
ENDBRANCH  29  32
ENDBRANCH  20  26
TORSDOF 2
ENDMDL
MODEL 7
REMARK VINA RESULT:      -7.6      2.681      3.617
REMARK  2 active torsions:
REMARK  status: ('A' for Active; 'I' for Inactive)
REMARK    1  A    between atoms: N_20  and  C_21 
REMARK    2  A    between atoms: C_24  and  O_25 
ROOT
HETATM    1  C   UNL     1     -43.410  54.040 -55.904  1.00  0.00     0.048 C 
HETATM    2  C   UNL     1     -43.147  55.414 -56.456  1.00  0.00    -0.061 A 
HETATM    3  C   UNL     1     -43.076  56.528 -55.603  1.00  0.00     0.019 A 
HETATM    4  C   UNL     1     -42.771  57.768 -56.149  1.00  0.00     0.016 A 
HETATM    5  C   UNL     1     -42.569  57.884 -57.529  1.00  0.00     0.044 A 
HETATM    6  N   UNL     1     -42.320  59.202 -57.876  1.00  0.00    -0.324 N 
HETATM    7  C   UNL     1     -42.332  60.020 -56.764  1.00  0.00     0.264 A 
HETATM    8  O   UNL     1     -42.186  61.231 -56.753  1.00  0.00    -0.270 OA
HETATM    9  C   UNL     1     -42.649  59.125 -55.509  1.00  0.00     0.250 A 
HETATM   10  N   UNL     1     -43.925  59.547 -54.804  1.00  0.00    -0.043 N 
HETATM   11  H   UNL     1     -44.194  58.773 -54.179  1.00  0.00     0.282 HD
HETATM   12  C   UNL     1     -43.547  60.762 -53.996  1.00  0.00     0.204 C 
HETATM   13  C   UNL     1     -44.848  61.008 -53.269  1.00  0.00     0.036 C 
HETATM   14  C   UNL     1     -45.895  60.764 -54.381  1.00  0.00     0.030 C 
HETATM   15  C   UNL     1     -45.193  59.946 -55.483  1.00  0.00     0.237 C 
HETATM   16  C   UNL     1     -42.201  60.390 -53.416  1.00  0.00     0.126 C 
HETATM   17  C   UNL     1     -41.571  59.431 -54.436  1.00  0.00     0.145 C 
HETATM   18  C   UNL     1     -41.193  58.243 -53.606  1.00  0.00     0.239 C 
HETATM   19  O   UNL     1     -40.480  57.365 -54.065  1.00  0.00    -0.272 OA
HETATM   20  N   UNL     1     -41.779  58.339 -52.361  1.00  0.00    -0.252 N 
HETATM   21  C   UNL     1     -42.321  59.588 -52.161  1.00  0.00     0.238 C 
HETATM   22  O   UNL     1     -42.900  60.052 -51.191  1.00  0.00    -0.272 OA
HETATM   23  C   UNL     1     -42.635  56.814 -58.393  1.00  0.00     0.031 A 
HETATM   24  C   UNL     1     -42.923  55.566 -57.841  1.00  0.00     0.009 A 
HETATM   25  H   UNL     1     -42.140  59.534 -58.817  1.00  0.00     0.169 HD
ENDROOT
BRANCH  20  26
HETATM   26  C   UNL     1     -41.835  57.274 -51.400  1.00  0.00     0.045 A 
HETATM   27  C   UNL     1     -40.866  57.135 -50.395  1.00  0.00     0.033 A 
HETATM   28  C   UNL     1     -40.869  56.037 -49.521  1.00  0.00     0.039 A 
HETATM   29  C   UNL     1     -41.841  55.046 -49.618  1.00  0.00     0.068 A 
HETATM   30  C   UNL     1     -42.830  55.180 -50.581  1.00  0.00     0.039 A 
HETATM   31  C   UNL     1     -42.827  56.279 -51.454  1.00  0.00     0.033 A 
BRANCH  29  32
HETATM   32  O   UNL     1     -41.713  54.019 -48.729  1.00  0.00    -0.356 OA
HETATM   33  C   UNL     1     -40.412  53.463 -48.568  1.00  0.00     0.210 C 
ENDBRANCH  29  32
ENDBRANCH  20  26
TORSDOF 2
ENDMDL
MODEL 8
REMARK VINA RESULT:      -7.2      2.494      5.005
REMARK  2 active torsions:
REMARK  status: ('A' for Active; 'I' for Inactive)
REMARK    1  A    between atoms: N_20  and  C_21 
REMARK    2  A    between atoms: C_24  and  O_25 
ROOT
HETATM    1  C   UNL     1     -42.260  61.030 -50.573  1.00  0.00     0.048 C 
HETATM    2  C   UNL     1     -43.221  61.084 -51.728  1.00  0.00    -0.061 A 
HETATM    3  C   UNL     1     -43.232  60.070 -52.701  1.00  0.00     0.019 A 
HETATM    4  C   UNL     1     -44.178  60.130 -53.715  1.00  0.00     0.016 A 
HETATM    5  C   UNL     1     -45.076  61.202 -53.761  1.00  0.00     0.044 A 
HETATM    6  N   UNL     1     -45.905  61.098 -54.866  1.00  0.00    -0.324 N 
HETATM    7  C   UNL     1     -45.617  59.964 -55.599  1.00  0.00     0.264 A 
HETATM    8  O   UNL     1     -46.145  59.621 -56.644  1.00  0.00    -0.270 OA
HETATM    9  C   UNL     1     -44.421  59.223 -54.892  1.00  0.00     0.250 A 
HETATM   10  N   UNL     1     -43.202  59.104 -55.789  1.00  0.00    -0.043 N 
HETATM   11  H   UNL     1     -42.406  58.858 -55.184  1.00  0.00     0.282 HD
HETATM   12  C   UNL     1     -43.513  57.968 -56.729  1.00  0.00     0.204 C 
HETATM   13  C   UNL     1     -42.203  57.879 -57.476  1.00  0.00     0.036 C 
HETATM   14  C   UNL     1     -41.854  59.369 -57.700  1.00  0.00     0.030 C 
HETATM   15  C   UNL     1     -42.682  60.180 -56.684  1.00  0.00     0.237 C 
HETATM   16  C   UNL     1     -44.155  56.936 -55.829  1.00  0.00     0.126 C 
HETATM   17  C   UNL     1     -44.836  57.739 -54.712  1.00  0.00     0.145 C 
HETATM   18  C   UNL     1     -44.304  57.113 -53.461  1.00  0.00     0.239 C 
HETATM   19  O   UNL     1     -44.795  57.377 -52.375  1.00  0.00    -0.272 OA
HETATM   20  N   UNL     1     -43.244  56.284 -53.768  1.00  0.00    -0.252 N 
HETATM   21  C   UNL     1     -43.147  56.085 -55.126  1.00  0.00     0.238 C 
HETATM   22  O   UNL     1     -42.359  55.410 -55.771  1.00  0.00    -0.272 OA
HETATM   23  C   UNL     1     -45.091  62.213 -52.826  1.00  0.00     0.031 A 
HETATM   24  C   UNL     1     -44.153  62.143 -51.797  1.00  0.00     0.009 A 
HETATM   25  H   UNL     1     -46.638  61.754 -55.110  1.00  0.00     0.169 HD
ENDROOT
BRANCH  20  26
HETATM   26  C   UNL     1     -42.344  55.716 -52.804  1.00  0.00     0.045 A 
HETATM   27  C   UNL     1     -42.258  54.330 -52.605  1.00  0.00     0.033 A 
HETATM   28  C   UNL     1     -41.451  53.785 -51.593  1.00  0.00     0.039 A 
HETATM   29  C   UNL     1     -40.702  54.604 -50.754  1.00  0.00     0.068 A 
HETATM   30  C   UNL     1     -40.745  55.976 -50.955  1.00  0.00     0.039 A 
HETATM   31  C   UNL     1     -41.552  56.520 -51.967  1.00  0.00     0.033 A 
BRANCH  29  32
HETATM   32  O   UNL     1     -39.986  53.950 -49.794  1.00  0.00    -0.356 OA
HETATM   33  C   UNL     1     -40.664  53.638 -48.582  1.00  0.00     0.210 C 
ENDBRANCH  29  32
ENDBRANCH  20  26
TORSDOF 2
ENDMDL
MODEL 9
REMARK VINA RESULT:      -7.2      2.669      5.290
REMARK  2 active torsions:
REMARK  status: ('A' for Active; 'I' for Inactive)
REMARK    1  A    between atoms: N_20  and  C_21 
REMARK    2  A    between atoms: C_24  and  O_25 
ROOT
HETATM    1  C   UNL     1     -41.751  60.188 -52.362  1.00  0.00     0.048 C 
HETATM    2  C   UNL     1     -42.762  60.582 -53.403  1.00  0.00    -0.061 A 
HETATM    3  C   UNL     1     -42.945  59.801 -54.557  1.00  0.00     0.019 A 
HETATM    4  C   UNL     1     -43.932  60.169 -55.462  1.00  0.00     0.016 A 
HETATM    5  C   UNL     1     -44.699  61.314 -55.220  1.00  0.00     0.044 A 
HETATM    6  N   UNL     1     -45.594  61.530 -56.255  1.00  0.00    -0.324 N 
HETATM    7  C   UNL     1     -45.481  60.550 -57.222  1.00  0.00     0.264 A 
HETATM    8  O   UNL     1     -46.103  60.491 -58.270  1.00  0.00    -0.270 OA
HETATM    9  C   UNL     1     -44.344  59.559 -56.775  1.00  0.00     0.250 A 
HETATM   10  N   UNL     1     -43.199  59.504 -57.770  1.00  0.00    -0.043 N 
HETATM   11  H   UNL     1     -42.405  59.056 -57.290  1.00  0.00     0.282 HD
HETATM   12  C   UNL     1     -43.691  58.628 -58.893  1.00  0.00     0.204 C 
HETATM   13  C   UNL     1     -42.444  58.562 -59.741  1.00  0.00     0.036 C 
HETATM   14  C   UNL     1     -41.935  60.022 -59.687  1.00  0.00     0.030 C 
HETATM   15  C   UNL     1     -42.606  60.684 -58.467  1.00  0.00     0.237 C 
HETATM   16  C   UNL     1     -44.399  57.503 -58.172  1.00  0.00     0.126 C 
HETATM   17  C   UNL     1     -44.920  58.121 -56.866  1.00  0.00     0.145 C 
HETATM   18  C   UNL     1     -44.396  57.194 -55.812  1.00  0.00     0.239 C 
HETATM   19  O   UNL     1     -44.793  57.275 -54.661  1.00  0.00    -0.272 OA
HETATM   20  N   UNL     1     -43.460  56.344 -56.362  1.00  0.00    -0.252 N 
HETATM   21  C   UNL     1     -43.462  56.424 -57.736  1.00  0.00     0.238 C 
HETATM   22  O   UNL     1     -42.795  55.821 -58.563  1.00  0.00    -0.272 OA
HETATM   23  C   UNL     1     -44.543  62.102 -54.102  1.00  0.00     0.031 A 
HETATM   24  C   UNL     1     -43.565  61.722 -53.184  1.00  0.00     0.009 A 
HETATM   25  H   UNL     1     -46.258  62.294 -56.304  1.00  0.00     0.169 HD
ENDROOT
BRANCH  20  26
HETATM   26  C   UNL     1     -42.581  55.496 -55.606  1.00  0.00     0.045 A 
HETATM   27  C   UNL     1     -42.924  54.172 -55.293  1.00  0.00     0.033 A 
HETATM   28  C   UNL     1     -42.108  53.380 -54.470  1.00  0.00     0.039 A 
HETATM   29  C   UNL     1     -40.924  53.882 -53.938  1.00  0.00     0.068 A 
HETATM   30  C   UNL     1     -40.547  55.176 -54.262  1.00  0.00     0.039 A 
HETATM   31  C   UNL     1     -41.364  55.968 -55.086  1.00  0.00     0.033 A 
BRANCH  29  32
HETATM   32  O   UNL     1     -40.240  53.020 -53.130  1.00  0.00    -0.356 OA
HETATM   33  C   UNL     1     -40.445  53.150 -51.728  1.00  0.00     0.210 C 
ENDBRANCH  29  32
ENDBRANCH  20  26
TORSDOF 2
ENDMDL
MODEL 10
REMARK VINA RESULT:      -6.9      3.122      6.916
REMARK  2 active torsions:
REMARK  status: ('A' for Active; 'I' for Inactive)
REMARK    1  A    between atoms: N_20  and  C_21 
REMARK    2  A    between atoms: C_24  and  O_25 
ROOT
HETATM    1  C   UNL     1     -43.524  55.252 -51.934  1.00  0.00     0.048 C 
HETATM    2  C   UNL     1     -43.148  55.568 -53.355  1.00  0.00    -0.061 A 
HETATM    3  C   UNL     1     -43.330  56.860 -53.875  1.00  0.00     0.019 A 
HETATM    4  C   UNL     1     -42.913  57.122 -55.174  1.00  0.00     0.016 A 
HETATM    5  C   UNL     1     -42.348  56.094 -55.938  1.00  0.00     0.044 A 
HETATM    6  N   UNL     1     -42.038  56.546 -57.210  1.00  0.00    -0.324 N 
HETATM    7  C   UNL     1     -42.365  57.880 -57.357  1.00  0.00     0.264 A 
HETATM    8  O   UNL     1     -42.251  58.547 -58.373  1.00  0.00    -0.270 OA
HETATM    9  C   UNL     1     -42.993  58.376 -56.002  1.00  0.00     0.250 A 
HETATM   10  N   UNL     1     -44.420  58.866 -56.170  1.00  0.00    -0.043 N 
HETATM   11  H   UNL     1     -44.833  58.917 -55.228  1.00  0.00     0.282 HD
HETATM   12  C   UNL     1     -44.297  60.247 -56.761  1.00  0.00     0.204 C 
HETATM   13  C   UNL     1     -45.750  60.659 -56.770  1.00  0.00     0.036 C 
HETATM   14  C   UNL     1     -46.453  59.366 -57.246  1.00  0.00     0.030 C 
HETATM   15  C   UNL     1     -45.464  58.207 -57.009  1.00  0.00     0.237 C 
HETATM   16  C   UNL     1     -43.150  60.857 -55.986  1.00  0.00     0.126 C 
HETATM   17  C   UNL     1     -42.251  59.676 -55.596  1.00  0.00     0.145 C 
HETATM   18  C   UNL     1     -42.089  59.839 -54.116  1.00  0.00     0.239 C 
HETATM   19  O   UNL     1     -41.262  59.182 -53.504  1.00  0.00    -0.272 OA
HETATM   20  N   UNL     1     -42.991  60.773 -53.648  1.00  0.00    -0.252 N 
HETATM   21  C   UNL     1     -43.590  61.449 -54.686  1.00  0.00     0.238 C 
HETATM   22  O   UNL     1     -44.418  62.346 -54.671  1.00  0.00    -0.272 OA
HETATM   23  C   UNL     1     -42.158  54.817 -55.460  1.00  0.00     0.031 A 
HETATM   24  C   UNL     1     -42.561  54.560 -54.150  1.00  0.00     0.009 A 
HETATM   25  H   UNL     1     -41.617  55.987 -57.943  1.00  0.00     0.169 HD
ENDROOT
BRANCH  20  26
HETATM   26  C   UNL     1     -43.285  61.002 -52.261  1.00  0.00     0.045 A 
HETATM   27  C   UNL     1     -44.026  60.082 -51.504  1.00  0.00     0.033 A 
HETATM   28  C   UNL     1     -44.396  60.356 -50.178  1.00  0.00     0.039 A 
HETATM   29  C   UNL     1     -44.035  61.552 -49.565  1.00  0.00     0.068 A 
HETATM   30  C   UNL     1     -43.273  62.461 -50.283  1.00  0.00     0.039 A 
HETATM   31  C   UNL     1     -42.903  62.186 -51.609  1.00  0.00     0.033 A 
BRANCH  29  32
HETATM   32  O   UNL     1     -44.483  61.706 -48.285  1.00  0.00    -0.356 OA
HETATM   33  C   UNL     1     -45.584  60.896 -47.884  1.00  0.00     0.210 C 
ENDBRANCH  29  32
ENDBRANCH  20  26
TORSDOF 2
ENDMDL
