MODEL 1
REMARK VINA RESULT:      -8.4      0.000      0.000
REMARK  6 active torsions:
REMARK  status: ('A' for Active; 'I' for Inactive)
REMARK    1  A    between atoms: C_3  and  C_4 
REMARK    2  A    between atoms: C_4  and  C_5 
REMARK       I    between atoms: C_5  and  N_6 
REMARK    3  A    between atoms: N_6  and  N_7 
REMARK       I    between atoms: N_7  and  C_8 
REMARK    4  A    between atoms: C_8  and  C_9 
REMARK    5  A    between atoms: C_13  and  C_14 
REMARK    6  A    between atoms: C_17  and  O_18 
ROOT
HETATM    1  N   UNL     1     -42.894  55.058 -56.698  1.00  0.00    -0.262 N 
HETATM    2  C   UNL     1     -43.007  56.222 -57.430  1.00  0.00     0.288 C 
HETATM    3  O   UNL     1     -42.243  57.172 -57.275  1.00  0.00    -0.264 OA
HETATM    4  H   UNL     1     -43.350  54.197 -56.994  1.00  0.00     0.190 HD
ENDROOT
BRANCH   2   5
HETATM    5  C   UNL     1     -44.091  56.235 -58.375  1.00  0.00     0.121 A 
HETATM    6  N   UNL     1     -44.441  55.135 -59.104  1.00  0.00    -0.272 N 
HETATM    7  H   UNL     1     -44.016  54.213 -59.063  1.00  0.00     0.189 HD
HETATM    8  N   UNL     1     -45.448  55.344 -59.965  1.00  0.00    -0.174 NA
HETATM    9  C   UNL     1     -45.774  56.638 -59.808  1.00  0.00     0.089 A 
HETATM   10  C   UNL     1     -44.954  57.224 -58.802  1.00  0.00     0.071 A 
BRANCH   9  11
HETATM   11  C   UNL     1     -46.816  57.282 -60.619  1.00  0.00    -0.005 A 
HETATM   12  C   UNL     1     -47.009  58.669 -60.562  1.00  0.00     0.016 A 
HETATM   13  C   UNL     1     -48.027  59.282 -61.302  1.00  0.00     0.037 A 
HETATM   14  C   UNL     1     -48.872  58.524 -62.113  1.00  0.00     0.068 A 
HETATM   15  C   UNL     1     -48.680  57.147 -62.192  1.00  0.00     0.037 A 
HETATM   16  C   UNL     1     -47.661  56.532 -61.451  1.00  0.00     0.016 A 
BRANCH  14  17
HETATM   17  O   UNL     1     -49.833  59.241 -62.771  1.00  0.00    -0.356 OA
HETATM   18  C   UNL     1     -51.181  58.826 -62.590  1.00  0.00     0.210 C 
ENDBRANCH  14  17
ENDBRANCH   9  11
ENDBRANCH   2   5
BRANCH   1  19
HETATM   19  N   UNL     1     -41.811  54.896 -55.827  1.00  0.00    -0.267 N 
HETATM   20  C   UNL     1     -42.084  54.443 -54.551  1.00  0.00     0.240 C 
HETATM   21  O   UNL     1     -43.236  54.233 -54.171  1.00  0.00    -0.272 OA
HETATM   22  H   UNL     1     -40.880  54.884 -56.241  1.00  0.00     0.190 HD
BRANCH  20  23
HETATM   23  C   UNL     1     -40.868  54.285 -53.658  1.00  0.00     0.143 C 
BRANCH  23  24
HETATM   24  C   UNL     1     -40.442  52.852 -53.382  1.00  0.00    -0.043 A 
HETATM   25  C   UNL     1     -40.008  52.463 -52.093  1.00  0.00    -0.055 A 
HETATM   26  C   UNL     1     -39.987  53.418 -50.929  1.00  0.00     0.049 C 
HETATM   27  C   UNL     1     -39.617  51.132 -51.865  1.00  0.00     0.007 A 
HETATM   28  C   UNL     1     -39.611  50.198 -52.898  1.00  0.00     0.001 A 
HETATM   29  C   UNL     1     -39.996  50.583 -54.174  1.00  0.00     0.001 A 
HETATM   30  C   UNL     1     -40.400  51.896 -54.415  1.00  0.00     0.008 A 
ENDBRANCH  23  24
ENDBRANCH  20  23
ENDBRANCH   1  19
TORSDOF 6
ENDMDL
MODEL 2
REMARK VINA RESULT:      -8.2      7.340     11.409
REMARK  6 active torsions:
REMARK  status: ('A' for Active; 'I' for Inactive)
REMARK    1  A    between atoms: C_3  and  C_4 
REMARK    2  A    between atoms: C_4  and  C_5 
REMARK       I    between atoms: C_5  and  N_6 
REMARK    3  A    between atoms: N_6  and  N_7 
REMARK       I    between atoms: N_7  and  C_8 
REMARK    4  A    between atoms: C_8  and  C_9 
REMARK    5  A    between atoms: C_13  and  C_14 
REMARK    6  A    between atoms: C_17  and  O_18 
ROOT
HETATM    1  N   UNL     1     -43.618  59.068 -50.616  1.00  0.00    -0.262 N 
HETATM    2  C   UNL     1     -42.589  58.821 -51.500  1.00  0.00     0.288 C 
HETATM    3  O   UNL     1     -41.839  59.709 -51.900  1.00  0.00    -0.264 OA
HETATM    4  H   UNL     1     -44.067  58.315 -50.098  1.00  0.00     0.190 HD
ENDROOT
BRANCH   2   5
HETATM    5  C   UNL     1     -42.472  57.450 -51.919  1.00  0.00     0.121 A 
HETATM    6  N   UNL     1     -43.560  56.669 -52.181  1.00  0.00    -0.272 N 
HETATM    7  H   UNL     1     -44.537  56.944 -52.132  1.00  0.00     0.189 HD
HETATM    8  N   UNL     1     -43.261  55.406 -52.519  1.00  0.00    -0.174 NA
HETATM    9  C   UNL     1     -41.920  55.343 -52.472  1.00  0.00     0.089 A 
HETATM   10  C   UNL     1     -41.389  56.616 -52.117  1.00  0.00     0.071 A 
BRANCH   9  11
HETATM   11  C   UNL     1     -41.189  54.096 -52.732  1.00  0.00    -0.005 A 
HETATM   12  C   UNL     1     -41.196  53.517 -54.007  1.00  0.00     0.016 A 
HETATM   13  C   UNL     1     -40.534  52.307 -54.249  1.00  0.00     0.037 A 
HETATM   14  C   UNL     1     -39.852  51.652 -53.224  1.00  0.00     0.068 A 
HETATM   15  C   UNL     1     -39.822  52.226 -51.956  1.00  0.00     0.037 A 
HETATM   16  C   UNL     1     -40.485  53.438 -51.712  1.00  0.00     0.016 A 
BRANCH  14  17
HETATM   17  O   UNL     1     -39.260  50.474 -53.588  1.00  0.00    -0.356 OA
HETATM   18  C   UNL     1     -39.831  49.782 -54.691  1.00  0.00     0.210 C 
ENDBRANCH  14  17
ENDBRANCH   9  11
ENDBRANCH   2   5
BRANCH   1  19
HETATM   19  N   UNL     1     -43.757  60.345 -50.060  1.00  0.00    -0.267 N 
HETATM   20  C   UNL     1     -45.020  60.726 -49.651  1.00  0.00     0.240 C 
HETATM   21  O   UNL     1     -45.999  59.996 -49.807  1.00  0.00    -0.272 OA
HETATM   22  H   UNL     1     -42.903  60.820 -49.769  1.00  0.00     0.190 HD
BRANCH  20  23
HETATM   23  C   UNL     1     -45.102  62.119 -49.055  1.00  0.00     0.143 C 
BRANCH  23  24
HETATM   24  C   UNL     1     -45.046  62.184 -47.537  1.00  0.00    -0.043 A 
HETATM   25  C   UNL     1     -45.167  63.422 -46.862  1.00  0.00    -0.055 A 
HETATM   26  C   UNL     1     -45.398  64.717 -47.593  1.00  0.00     0.049 C 
HETATM   27  C   UNL     1     -45.109  63.454 -45.458  1.00  0.00     0.007 A 
HETATM   28  C   UNL     1     -44.894  62.293 -44.721  1.00  0.00     0.001 A 
HETATM   29  C   UNL     1     -44.734  61.081 -45.378  1.00  0.00     0.001 A 
HETATM   30  C   UNL     1     -44.802  61.028 -46.770  1.00  0.00     0.008 A 
ENDBRANCH  23  24
ENDBRANCH  20  23
ENDBRANCH   1  19
TORSDOF 6
ENDMDL
MODEL 3
REMARK VINA RESULT:      -8.1      4.074     10.862
REMARK  6 active torsions:
REMARK  status: ('A' for Active; 'I' for Inactive)
REMARK    1  A    between atoms: C_3  and  C_4 
REMARK    2  A    between atoms: C_4  and  C_5 
REMARK       I    between atoms: C_5  and  N_6 
REMARK    3  A    between atoms: N_6  and  N_7 
REMARK       I    between atoms: N_7  and  C_8 
REMARK    4  A    between atoms: C_8  and  C_9 
REMARK    5  A    between atoms: C_13  and  C_14 
REMARK    6  A    between atoms: C_17  and  O_18 
ROOT
HETATM    1  N   UNL     1     -42.180  57.506 -57.534  1.00  0.00    -0.262 N 
HETATM    2  C   UNL     1     -42.952  56.363 -57.509  1.00  0.00     0.288 C 
HETATM    3  O   UNL     1     -43.747  56.087 -58.405  1.00  0.00    -0.264 OA
HETATM    4  H   UNL     1     -41.359  57.606 -56.940  1.00  0.00     0.190 HD
ENDROOT
BRANCH   2   5
HETATM    5  C   UNL     1     -42.758  55.532 -56.351  1.00  0.00     0.121 A 
HETATM    6  N   UNL     1     -43.724  55.363 -55.401  1.00  0.00    -0.272 N 
HETATM    7  H   UNL     1     -44.657  55.766 -55.398  1.00  0.00     0.189 HD
HETATM    8  N   UNL     1     -43.353  54.586 -54.373  1.00  0.00    -0.174 NA
HETATM    9  C   UNL     1     -42.086  54.233 -54.645  1.00  0.00     0.089 A 
HETATM   10  C   UNL     1     -41.686  54.794 -55.892  1.00  0.00     0.071 A 
BRANCH   9  11
HETATM   11  C   UNL     1     -41.291  53.411 -53.724  1.00  0.00    -0.005 A 
HETATM   12  C   UNL     1     -40.552  52.320 -54.197  1.00  0.00     0.016 A 
HETATM   13  C   UNL     1     -39.825  51.510 -53.316  1.00  0.00     0.037 A 
HETATM   14  C   UNL     1     -39.821  51.773 -51.947  1.00  0.00     0.068 A 
HETATM   15  C   UNL     1     -40.538  52.865 -51.465  1.00  0.00     0.037 A 
HETATM   16  C   UNL     1     -41.267  53.677 -52.346  1.00  0.00     0.016 A 
BRANCH  14  17
HETATM   17  O   UNL     1     -39.084  50.900 -51.195  1.00  0.00    -0.356 OA
HETATM   18  C   UNL     1     -39.666  49.629 -50.933  1.00  0.00     0.210 C 
ENDBRANCH  14  17
ENDBRANCH   9  11
ENDBRANCH   2   5
BRANCH   1  19
HETATM   19  N   UNL     1     -42.209  58.331 -58.664  1.00  0.00    -0.267 N 
HETATM   20  C   UNL     1     -42.900  59.523 -58.562  1.00  0.00     0.240 C 
HETATM   21  O   UNL     1     -43.508  59.835 -57.537  1.00  0.00    -0.272 OA
HETATM   22  H   UNL     1     -41.535  58.133 -59.401  1.00  0.00     0.190 HD
BRANCH  20  23
HETATM   23  C   UNL     1     -42.891  60.373 -59.819  1.00  0.00     0.143 C 
BRANCH  23  24
HETATM   24  C   UNL     1     -41.732  61.349 -59.938  1.00  0.00    -0.043 A 
HETATM   25  C   UNL     1     -41.343  61.858 -61.200  1.00  0.00    -0.055 A 
HETATM   26  C   UNL     1     -42.071  61.504 -62.469  1.00  0.00     0.049 C 
HETATM   27  C   UNL     1     -40.265  62.757 -61.283  1.00  0.00     0.007 A 
HETATM   28  C   UNL     1     -39.547  63.124 -60.148  1.00  0.00     0.001 A 
HETATM   29  C   UNL     1     -39.897  62.598 -58.912  1.00  0.00     0.001 A 
HETATM   30  C   UNL     1     -40.972  61.715 -58.809  1.00  0.00     0.008 A 
ENDBRANCH  23  24
ENDBRANCH  20  23
ENDBRANCH   1  19
TORSDOF 6
ENDMDL
MODEL 4
REMARK VINA RESULT:      -8.0     16.787     17.559
REMARK  6 active torsions:
REMARK  status: ('A' for Active; 'I' for Inactive)
REMARK    1  A    between atoms: C_3  and  C_4 
REMARK    2  A    between atoms: C_4  and  C_5 
REMARK       I    between atoms: C_5  and  N_6 
REMARK    3  A    between atoms: N_6  and  N_7 
REMARK       I    between atoms: N_7  and  C_8 
REMARK    4  A    between atoms: C_8  and  C_9 
REMARK    5  A    between atoms: C_13  and  C_14 
REMARK    6  A    between atoms: C_17  and  O_18 
ROOT
HETATM    1  N   UNL     1     -35.938  42.240 -55.389  1.00  0.00    -0.262 N 
HETATM    2  C   UNL     1     -35.190  41.682 -56.405  1.00  0.00     0.288 C 
HETATM    3  O   UNL     1     -33.976  41.507 -56.308  1.00  0.00    -0.264 OA
HETATM    4  H   UNL     1     -36.952  42.152 -55.366  1.00  0.00     0.190 HD
ENDROOT
BRANCH   2   5
HETATM    5  C   UNL     1     -35.938  41.332 -57.582  1.00  0.00     0.121 A 
HETATM    6  N   UNL     1     -36.401  42.268 -58.461  1.00  0.00    -0.272 N 
HETATM    7  H   UNL     1     -36.270  43.275 -58.408  1.00  0.00     0.189 HD
HETATM    8  N   UNL     1     -37.114  41.762 -59.478  1.00  0.00    -0.174 NA
HETATM    9  C   UNL     1     -37.133  40.437 -59.261  1.00  0.00     0.089 A 
HETATM   10  C   UNL     1     -36.387  40.128 -58.088  1.00  0.00     0.071 A 
BRANCH   9  11
HETATM   11  C   UNL     1     -37.867  39.514 -60.137  1.00  0.00    -0.005 A 
HETATM   12  C   UNL     1     -37.507  39.371 -61.484  1.00  0.00     0.016 A 
HETATM   13  C   UNL     1     -38.230  38.524 -62.332  1.00  0.00     0.037 A 
HETATM   14  C   UNL     1     -39.324  37.802 -61.855  1.00  0.00     0.068 A 
HETATM   15  C   UNL     1     -39.681  37.922 -60.514  1.00  0.00     0.037 A 
HETATM   16  C   UNL     1     -38.959  38.771 -59.663  1.00  0.00     0.016 A 
BRANCH  14  17
HETATM   17  O   UNL     1     -39.951  37.023 -62.787  1.00  0.00    -0.356 OA
HETATM   18  C   UNL     1     -40.971  37.643 -63.561  1.00  0.00     0.210 C 
ENDBRANCH  14  17
ENDBRANCH   9  11
ENDBRANCH   2   5
BRANCH   1  19
HETATM   19  N   UNL     1     -35.330  42.519 -54.160  1.00  0.00    -0.267 N 
HETATM   20  C   UNL     1     -35.642  41.694 -53.096  1.00  0.00     0.240 C 
HETATM   21  O   UNL     1     -36.456  40.777 -53.204  1.00  0.00    -0.272 OA
HETATM   22  H   UNL     1     -34.526  43.144 -54.171  1.00  0.00     0.190 HD
BRANCH  20  23
HETATM   23  C   UNL     1     -34.947  42.047 -51.794  1.00  0.00     0.143 C 
BRANCH  23  24
HETATM   24  C   UNL     1     -34.023  40.977 -51.236  1.00  0.00    -0.043 A 
HETATM   25  C   UNL     1     -34.503  40.016 -50.315  1.00  0.00    -0.055 A 
HETATM   26  C   UNL     1     -35.943  39.971 -49.877  1.00  0.00     0.049 C 
HETATM   27  C   UNL     1     -33.626  39.039 -49.811  1.00  0.00     0.007 A 
HETATM   28  C   UNL     1     -32.281  39.027 -50.173  1.00  0.00     0.001 A 
HETATM   29  C   UNL     1     -31.794  39.991 -51.044  1.00  0.00     0.001 A 
HETATM   30  C   UNL     1     -32.653  40.959 -51.564  1.00  0.00     0.008 A 
ENDBRANCH  23  24
ENDBRANCH  20  23
ENDBRANCH   1  19
TORSDOF 6
ENDMDL
MODEL 5
REMARK VINA RESULT:      -7.7     16.011     21.190
REMARK  6 active torsions:
REMARK  status: ('A' for Active; 'I' for Inactive)
REMARK    1  A    between atoms: C_3  and  C_4 
REMARK    2  A    between atoms: C_4  and  C_5 
REMARK       I    between atoms: C_5  and  N_6 
REMARK    3  A    between atoms: N_6  and  N_7 
REMARK       I    between atoms: N_7  and  C_8 
REMARK    4  A    between atoms: C_8  and  C_9 
REMARK    5  A    between atoms: C_13  and  C_14 
REMARK    6  A    between atoms: C_17  and  O_18 
ROOT
HETATM    1  N   UNL     1     -35.671  40.620 -53.960  1.00  0.00    -0.262 N 
HETATM    2  C   UNL     1     -35.389  41.516 -52.951  1.00  0.00     0.288 C 
HETATM    3  O   UNL     1     -35.944  42.610 -52.870  1.00  0.00    -0.264 OA
HETATM    4  H   UNL     1     -35.411  39.638 -53.888  1.00  0.00     0.190 HD
ENDROOT
BRANCH   2   5
HETATM    5  C   UNL     1     -34.393  41.073 -52.013  1.00  0.00     0.121 A 
HETATM    6  N   UNL     1     -33.058  41.097 -52.297  1.00  0.00    -0.272 N 
HETATM    7  H   UNL     1     -32.620  41.427 -53.153  1.00  0.00     0.189 HD
HETATM    8  N   UNL     1     -32.279  40.607 -51.321  1.00  0.00    -0.174 NA
HETATM    9  C   UNL     1     -33.133  40.235 -50.353  1.00  0.00     0.089 A 
HETATM   10  C   UNL     1     -34.469  40.531 -50.746  1.00  0.00     0.071 A 
BRANCH   9  11
HETATM   11  C   UNL     1     -32.673  39.594 -49.113  1.00  0.00    -0.005 A 
HETATM   12  C   UNL     1     -33.404  38.546 -48.538  1.00  0.00     0.016 A 
HETATM   13  C   UNL     1     -32.992  37.961 -47.335  1.00  0.00     0.037 A 
HETATM   14  C   UNL     1     -31.843  38.408 -46.683  1.00  0.00     0.068 A 
HETATM   15  C   UNL     1     -31.098  39.437 -47.253  1.00  0.00     0.037 A 
HETATM   16  C   UNL     1     -31.510  40.025 -48.458  1.00  0.00     0.016 A 
BRANCH  14  17
HETATM   17  O   UNL     1     -31.558  37.762 -45.512  1.00  0.00    -0.356 OA
HETATM   18  C   UNL     1     -30.992  38.545 -44.468  1.00  0.00     0.210 C 
ENDBRANCH  14  17
ENDBRANCH   9  11
ENDBRANCH   2   5
BRANCH   1  19
HETATM   19  N   UNL     1     -36.701  40.903 -54.865  1.00  0.00    -0.267 N 
HETATM   20  C   UNL     1     -36.343  41.438 -56.087  1.00  0.00     0.240 C 
HETATM   21  O   UNL     1     -35.172  41.702 -56.362  1.00  0.00    -0.272 OA
HETATM   22  H   UNL     1     -37.611  40.486 -54.678  1.00  0.00     0.190 HD
BRANCH  20  23
HETATM   23  C   UNL     1     -37.504  41.719 -57.023  1.00  0.00     0.143 C 
BRANCH  23  24
HETATM   24  C   UNL     1     -37.690  40.718 -58.152  1.00  0.00    -0.043 A 
HETATM   25  C   UNL     1     -37.575  41.123 -59.502  1.00  0.00    -0.055 A 
HETATM   26  C   UNL     1     -37.223  42.534 -59.892  1.00  0.00     0.049 C 
HETATM   27  C   UNL     1     -37.755  40.178 -60.528  1.00  0.00     0.007 A 
HETATM   28  C   UNL     1     -38.085  38.857 -60.236  1.00  0.00     0.001 A 
HETATM   29  C   UNL     1     -38.240  38.462 -58.915  1.00  0.00     0.001 A 
HETATM   30  C   UNL     1     -38.052  39.383 -57.884  1.00  0.00     0.008 A 
ENDBRANCH  23  24
ENDBRANCH  20  23
ENDBRANCH   1  19
TORSDOF 6
ENDMDL
MODEL 6
REMARK VINA RESULT:      -7.5     16.234     19.101
REMARK  6 active torsions:
REMARK  status: ('A' for Active; 'I' for Inactive)
REMARK    1  A    between atoms: C_3  and  C_4 
REMARK    2  A    between atoms: C_4  and  C_5 
REMARK       I    between atoms: C_5  and  N_6 
REMARK    3  A    between atoms: N_6  and  N_7 
REMARK       I    between atoms: N_7  and  C_8 
REMARK    4  A    between atoms: C_8  and  C_9 
REMARK    5  A    between atoms: C_13  and  C_14 
REMARK    6  A    between atoms: C_17  and  O_18 
ROOT
HETATM    1  N   UNL     1     -34.043  39.643 -50.276  1.00  0.00    -0.262 N 
HETATM    2  C   UNL     1     -35.318  40.126 -50.491  1.00  0.00     0.288 C 
HETATM    3  O   UNL     1     -36.220  39.987 -49.669  1.00  0.00    -0.264 OA
HETATM    4  H   UNL     1     -33.251  39.971 -50.825  1.00  0.00     0.190 HD
ENDROOT
BRANCH   2   5
HETATM    5  C   UNL     1     -35.504  40.793 -51.752  1.00  0.00     0.121 A 
HETATM    6  N   UNL     1     -35.375  42.145 -51.891  1.00  0.00    -0.272 N 
HETATM    7  H   UNL     1     -35.128  42.814 -51.167  1.00  0.00     0.189 HD
HETATM    8  N   UNL     1     -35.625  42.596 -53.129  1.00  0.00    -0.174 NA
HETATM    9  C   UNL     1     -35.942  41.500 -53.839  1.00  0.00     0.089 A 
HETATM   10  C   UNL     1     -35.857  40.346 -53.009  1.00  0.00     0.071 A 
BRANCH   9  11
HETATM   11  C   UNL     1     -36.338  41.574 -55.252  1.00  0.00    -0.005 A 
HETATM   12  C   UNL     1     -35.483  42.147 -56.203  1.00  0.00     0.016 A 
HETATM   13  C   UNL     1     -35.873  42.256 -57.543  1.00  0.00     0.037 A 
HETATM   14  C   UNL     1     -37.122  41.796 -57.960  1.00  0.00     0.068 A 
HETATM   15  C   UNL     1     -37.974  41.209 -57.028  1.00  0.00     0.037 A 
HETATM   16  C   UNL     1     -37.585  41.100 -55.685  1.00  0.00     0.016 A 
BRANCH  14  17
HETATM   17  O   UNL     1     -37.386  41.975 -59.290  1.00  0.00    -0.356 OA
HETATM   18  C   UNL     1     -37.310  40.823 -60.120  1.00  0.00     0.210 C 
ENDBRANCH  14  17
ENDBRANCH   9  11
ENDBRANCH   2   5
BRANCH   1  19
HETATM   19  N   UNL     1     -33.723  39.072 -49.040  1.00  0.00    -0.267 N 
HETATM   20  C   UNL     1     -32.412  38.689 -48.837  1.00  0.00     0.240 C 
HETATM   21  O   UNL     1     -31.561  38.799 -49.721  1.00  0.00    -0.272 OA
HETATM   22  H   UNL     1     -34.398  39.190 -48.286  1.00  0.00     0.190 HD
BRANCH  20  23
HETATM   23  C   UNL     1     -32.129  38.081 -47.476  1.00  0.00     0.143 C 
BRANCH  23  24
HETATM   24  C   UNL     1     -31.362  38.969 -46.511  1.00  0.00    -0.043 A 
HETATM   25  C   UNL     1     -31.501  38.807 -45.112  1.00  0.00    -0.055 A 
HETATM   26  C   UNL     1     -32.367  37.732 -44.510  1.00  0.00     0.049 C 
HETATM   27  C   UNL     1     -30.782  39.644 -44.241  1.00  0.00     0.007 A 
HETATM   28  C   UNL     1     -29.965  40.659 -44.732  1.00  0.00     0.001 A 
HETATM   29  C   UNL     1     -29.855  40.851 -46.102  1.00  0.00     0.001 A 
HETATM   30  C   UNL     1     -30.551  40.021 -46.981  1.00  0.00     0.008 A 
ENDBRANCH  23  24
ENDBRANCH  20  23
ENDBRANCH   1  19
TORSDOF 6
ENDMDL
MODEL 7
REMARK VINA RESULT:      -7.5      6.993      7.729
REMARK  6 active torsions:
REMARK  status: ('A' for Active; 'I' for Inactive)
REMARK    1  A    between atoms: C_3  and  C_4 
REMARK    2  A    between atoms: C_4  and  C_5 
REMARK       I    between atoms: C_5  and  N_6 
REMARK    3  A    between atoms: N_6  and  N_7 
REMARK       I    between atoms: N_7  and  C_8 
REMARK    4  A    between atoms: C_8  and  C_9 
REMARK    5  A    between atoms: C_13  and  C_14 
REMARK    6  A    between atoms: C_17  and  O_18 
ROOT
HETATM    1  N   UNL     1     -41.442  56.833 -50.114  1.00  0.00    -0.262 N 
HETATM    2  C   UNL     1     -41.584  57.610 -51.245  1.00  0.00     0.288 C 
HETATM    3  O   UNL     1     -40.996  57.357 -52.295  1.00  0.00    -0.264 OA
HETATM    4  H   UNL     1     -42.105  56.889 -49.344  1.00  0.00     0.190 HD
ENDROOT
BRANCH   2   5
HETATM    5  C   UNL     1     -42.462  58.739 -51.093  1.00  0.00     0.121 A 
HETATM    6  N   UNL     1     -42.228  59.732 -50.186  1.00  0.00    -0.272 N 
HETATM    7  H   UNL     1     -41.439  59.806 -49.548  1.00  0.00     0.189 HD
HETATM    8  N   UNL     1     -43.173  60.683 -50.155  1.00  0.00    -0.174 NA
HETATM    9  C   UNL     1     -44.077  60.301 -51.073  1.00  0.00     0.089 A 
HETATM   10  C   UNL     1     -43.652  59.093 -51.697  1.00  0.00     0.071 A 
BRANCH   9  11
HETATM   11  C   UNL     1     -45.311  61.060 -51.314  1.00  0.00    -0.005 A 
HETATM   12  C   UNL     1     -46.046  60.873 -52.492  1.00  0.00     0.016 A 
HETATM   13  C   UNL     1     -47.200  61.623 -52.744  1.00  0.00     0.037 A 
HETATM   14  C   UNL     1     -47.644  62.575 -51.826  1.00  0.00     0.068 A 
HETATM   15  C   UNL     1     -46.933  62.759 -50.643  1.00  0.00     0.037 A 
HETATM   16  C   UNL     1     -45.776  62.008 -50.390  1.00  0.00     0.016 A 
BRANCH  14  17
HETATM   17  O   UNL     1     -48.775  63.249 -52.198  1.00  0.00    -0.356 OA
HETATM   18  C   UNL     1     -49.802  62.487 -52.819  1.00  0.00     0.210 C 
ENDBRANCH  14  17
ENDBRANCH   9  11
ENDBRANCH   2   5
BRANCH   1  19
HETATM   19  N   UNL     1     -40.697  55.650 -50.181  1.00  0.00    -0.267 N 
HETATM   20  C   UNL     1     -41.396  54.466 -50.309  1.00  0.00     0.240 C 
HETATM   21  O   UNL     1     -42.627  54.437 -50.318  1.00  0.00    -0.272 OA
HETATM   22  H   UNL     1     -39.700  55.740 -50.374  1.00  0.00     0.190 HD
BRANCH  20  23
HETATM   23  C   UNL     1     -40.530  53.221 -50.380  1.00  0.00     0.143 C 
BRANCH  23  24
HETATM   24  C   UNL     1     -40.330  52.643 -51.772  1.00  0.00    -0.043 A 
HETATM   25  C   UNL     1     -39.902  51.306 -51.944  1.00  0.00    -0.055 A 
HETATM   26  C   UNL     1     -39.669  50.380 -50.780  1.00  0.00     0.049 C 
HETATM   27  C   UNL     1     -39.722  50.797 -53.243  1.00  0.00     0.007 A 
HETATM   28  C   UNL     1     -39.918  51.601 -54.362  1.00  0.00     0.001 A 
HETATM   29  C   UNL     1     -40.299  52.926 -54.200  1.00  0.00     0.001 A 
HETATM   30  C   UNL     1     -40.495  53.443 -52.920  1.00  0.00     0.008 A 
ENDBRANCH  23  24
ENDBRANCH  20  23
ENDBRANCH   1  19
TORSDOF 6
ENDMDL
MODEL 8
REMARK VINA RESULT:      -7.5      7.761     11.995
REMARK  6 active torsions:
REMARK  status: ('A' for Active; 'I' for Inactive)
REMARK    1  A    between atoms: C_3  and  C_4 
REMARK    2  A    between atoms: C_4  and  C_5 
REMARK       I    between atoms: C_5  and  N_6 
REMARK    3  A    between atoms: N_6  and  N_7 
REMARK       I    between atoms: N_7  and  C_8 
REMARK    4  A    between atoms: C_8  and  C_9 
REMARK    5  A    between atoms: C_13  and  C_14 
REMARK    6  A    between atoms: C_17  and  O_18 
ROOT
HETATM    1  N   UNL     1     -42.490  59.548 -50.201  1.00  0.00    -0.262 N 
HETATM    2  C   UNL     1     -42.383  58.863 -51.394  1.00  0.00     0.288 C 
HETATM    3  O   UNL     1     -42.671  59.376 -52.474  1.00  0.00    -0.264 OA
HETATM    4  H   UNL     1     -42.022  59.222 -49.357  1.00  0.00     0.190 HD
ENDROOT
BRANCH   2   5
HETATM    5  C   UNL     1     -41.922  57.507 -51.270  1.00  0.00     0.121 A 
HETATM    6  N   UNL     1     -41.535  56.971 -50.075  1.00  0.00    -0.272 N 
HETATM    7  H   UNL     1     -41.538  57.430 -49.169  1.00  0.00     0.189 HD
HETATM    8  N   UNL     1     -41.095  55.707 -50.157  1.00  0.00    -0.174 NA
HETATM    9  C   UNL     1     -41.185  55.393 -51.460  1.00  0.00     0.089 A 
HETATM   10  C   UNL     1     -41.720  56.495 -52.187  1.00  0.00     0.071 A 
BRANCH   9  11
HETATM   11  C   UNL     1     -40.745  54.091 -51.980  1.00  0.00    -0.005 A 
HETATM   12  C   UNL     1     -40.197  53.129 -51.123  1.00  0.00     0.016 A 
HETATM   13  C   UNL     1     -39.739  51.903 -51.621  1.00  0.00     0.037 A 
HETATM   14  C   UNL     1     -39.819  51.614 -52.983  1.00  0.00     0.068 A 
HETATM   15  C   UNL     1     -40.377  52.556 -53.844  1.00  0.00     0.037 A 
HETATM   16  C   UNL     1     -40.836  53.784 -53.346  1.00  0.00     0.016 A 
BRANCH  14  17
HETATM   17  O   UNL     1     -39.325  50.390 -53.342  1.00  0.00    -0.356 OA
HETATM   18  C   UNL     1     -39.778  49.852 -54.577  1.00  0.00     0.210 C 
ENDBRANCH  14  17
ENDBRANCH   9  11
ENDBRANCH   2   5
BRANCH   1  19
HETATM   19  N   UNL     1     -42.826  60.907 -50.215  1.00  0.00    -0.267 N 
HETATM   20  C   UNL     1     -44.055  61.262 -49.693  1.00  0.00     0.240 C 
HETATM   21  O   UNL     1     -44.848  60.420 -49.271  1.00  0.00    -0.272 OA
HETATM   22  H   UNL     1     -42.071  61.570 -50.380  1.00  0.00     0.190 HD
BRANCH  20  23
HETATM   23  C   UNL     1     -44.357  62.748 -49.734  1.00  0.00     0.143 C 
BRANCH  23  24
HETATM   24  C   UNL     1     -45.510  63.205 -48.855  1.00  0.00    -0.043 A 
HETATM   25  C   UNL     1     -46.812  63.349 -49.387  1.00  0.00    -0.055 A 
HETATM   26  C   UNL     1     -47.136  63.021 -50.821  1.00  0.00     0.049 C 
HETATM   27  C   UNL     1     -47.860  63.777 -48.553  1.00  0.00     0.007 A 
HETATM   28  C   UNL     1     -47.629  64.099 -47.218  1.00  0.00     0.001 A 
HETATM   29  C   UNL     1     -46.346  63.999 -46.699  1.00  0.00     0.001 A 
HETATM   30  C   UNL     1     -45.297  63.564 -47.509  1.00  0.00     0.008 A 
ENDBRANCH  23  24
ENDBRANCH  20  23
ENDBRANCH   1  19
TORSDOF 6
ENDMDL
MODEL 9
REMARK VINA RESULT:      -7.5      7.168     11.272
REMARK  6 active torsions:
REMARK  status: ('A' for Active; 'I' for Inactive)
REMARK    1  A    between atoms: C_3  and  C_4 
REMARK    2  A    between atoms: C_4  and  C_5 
REMARK       I    between atoms: C_5  and  N_6 
REMARK    3  A    between atoms: N_6  and  N_7 
REMARK       I    between atoms: N_7  and  C_8 
REMARK    4  A    between atoms: C_8  and  C_9 
REMARK    5  A    between atoms: C_13  and  C_14 
REMARK    6  A    between atoms: C_17  and  O_18 
ROOT
HETATM    1  N   UNL     1     -42.334  58.895 -50.893  1.00  0.00    -0.262 N 
HETATM    2  C   UNL     1     -41.717  58.895 -52.127  1.00  0.00     0.288 C 
HETATM    3  O   UNL     1     -41.366  59.933 -52.686  1.00  0.00    -0.264 OA
HETATM    4  H   UNL     1     -42.391  58.049 -50.328  1.00  0.00     0.190 HD
ENDROOT
BRANCH   2   5
HETATM    5  C   UNL     1     -41.528  57.592 -52.706  1.00  0.00     0.121 A 
HETATM    6  N   UNL     1     -41.987  57.271 -53.951  1.00  0.00    -0.272 N 
HETATM    7  H   UNL     1     -42.479  57.880 -54.599  1.00  0.00     0.189 HD
HETATM    8  N   UNL     1     -41.756  55.999 -54.310  1.00  0.00    -0.174 NA
HETATM    9  C   UNL     1     -41.127  55.451 -53.257  1.00  0.00     0.089 A 
HETATM   10  C   UNL     1     -40.948  56.430 -52.238  1.00  0.00     0.071 A 
BRANCH   9  11
HETATM   11  C   UNL     1     -40.741  54.034 -53.231  1.00  0.00    -0.005 A 
HETATM   12  C   UNL     1     -40.365  53.419 -52.030  1.00  0.00     0.016 A 
HETATM   13  C   UNL     1     -39.957  52.080 -52.008  1.00  0.00     0.037 A 
HETATM   14  C   UNL     1     -39.916  51.329 -53.182  1.00  0.00     0.068 A 
HETATM   15  C   UNL     1     -40.303  51.923 -54.380  1.00  0.00     0.037 A 
HETATM   16  C   UNL     1     -40.712  53.265 -54.404  1.00  0.00     0.016 A 
BRANCH  14  17
HETATM   17  O   UNL     1     -39.487  50.040 -53.026  1.00  0.00    -0.356 OA
HETATM   18  C   UNL     1     -39.522  49.506 -51.708  1.00  0.00     0.210 C 
ENDBRANCH  14  17
ENDBRANCH   9  11
ENDBRANCH   2   5
BRANCH   1  19
HETATM   19  N   UNL     1     -42.470  60.098 -50.192  1.00  0.00    -0.267 N 
HETATM   20  C   UNL     1     -43.705  60.716 -50.227  1.00  0.00     0.240 C 
HETATM   21  O   UNL     1     -44.641  60.260 -50.884  1.00  0.00    -0.272 OA
HETATM   22  H   UNL     1     -41.747  60.322 -49.511  1.00  0.00     0.190 HD
BRANCH  20  23
HETATM   23  C   UNL     1     -43.788  62.014 -49.444  1.00  0.00     0.143 C 
BRANCH  23  24
HETATM   24  C   UNL     1     -45.180  62.403 -48.971  1.00  0.00    -0.043 A 
HETATM   25  C   UNL     1     -45.657  61.983 -47.707  1.00  0.00    -0.055 A 
HETATM   26  C   UNL     1     -44.813  61.179 -46.755  1.00  0.00     0.049 C 
HETATM   27  C   UNL     1     -46.950  62.354 -47.296  1.00  0.00     0.007 A 
HETATM   28  C   UNL     1     -47.784  63.095 -48.130  1.00  0.00     0.001 A 
HETATM   29  C   UNL     1     -47.337  63.475 -49.387  1.00  0.00     0.001 A 
HETATM   30  C   UNL     1     -46.052  63.127 -49.806  1.00  0.00     0.008 A 
ENDBRANCH  23  24
ENDBRANCH  20  23
ENDBRANCH   1  19
TORSDOF 6
ENDMDL
MODEL 10
REMARK VINA RESULT:      -7.4      2.147     10.956
REMARK  6 active torsions:
REMARK  status: ('A' for Active; 'I' for Inactive)
REMARK    1  A    between atoms: C_3  and  C_4 
REMARK    2  A    between atoms: C_4  and  C_5 
REMARK       I    between atoms: C_5  and  N_6 
REMARK    3  A    between atoms: N_6  and  N_7 
REMARK       I    between atoms: N_7  and  C_8 
REMARK    4  A    between atoms: C_8  and  C_9 
REMARK    5  A    between atoms: C_13  and  C_14 
REMARK    6  A    between atoms: C_17  and  O_18 
ROOT
HETATM    1  N   UNL     1     -43.888  56.875 -57.414  1.00  0.00    -0.262 N 
HETATM    2  C   UNL     1     -42.806  57.307 -56.676  1.00  0.00     0.288 C 
HETATM    3  O   UNL     1     -42.205  58.347 -56.937  1.00  0.00    -0.264 OA
HETATM    4  H   UNL     1     -44.528  56.169 -57.056  1.00  0.00     0.190 HD
ENDROOT
BRANCH   2   5
HETATM    5  C   UNL     1     -42.434  56.441 -55.590  1.00  0.00     0.121 A 
HETATM    6  N   UNL     1     -42.684  56.754 -54.285  1.00  0.00    -0.272 N 
HETATM    7  H   UNL     1     -43.153  57.585 -53.934  1.00  0.00     0.189 HD
HETATM    8  N   UNL     1     -42.231  55.849 -53.406  1.00  0.00    -0.174 NA
HETATM    9  C   UNL     1     -41.648  54.899 -54.157  1.00  0.00     0.089 A 
HETATM   10  C   UNL     1     -41.774  55.229 -55.536  1.00  0.00     0.071 A 
BRANCH   9  11
HETATM   11  C   UNL     1     -40.974  53.739 -53.560  1.00  0.00    -0.005 A 
HETATM   12  C   UNL     1     -40.566  52.662 -54.358  1.00  0.00     0.016 A 
HETATM   13  C   UNL     1     -39.960  51.536 -53.788  1.00  0.00     0.037 A 
HETATM   14  C   UNL     1     -39.749  51.462 -52.411  1.00  0.00     0.068 A 
HETATM   15  C   UNL     1     -40.133  52.533 -51.608  1.00  0.00     0.037 A 
HETATM   16  C   UNL     1     -40.741  53.661 -52.178  1.00  0.00     0.016 A 
BRANCH  14  17
HETATM   17  O   UNL     1     -39.162  50.305 -51.980  1.00  0.00    -0.356 OA
HETATM   18  C   UNL     1     -39.590  49.797 -50.723  1.00  0.00     0.210 C 
ENDBRANCH  14  17
ENDBRANCH   9  11
ENDBRANCH   2   5
BRANCH   1  19
HETATM   19  N   UNL     1     -44.401  57.694 -58.427  1.00  0.00    -0.267 N 
HETATM   20  C   UNL     1     -45.639  58.267 -58.214  1.00  0.00     0.240 C 
HETATM   21  O   UNL     1     -46.294  58.037 -57.197  1.00  0.00    -0.272 OA
HETATM   22  H   UNL     1     -43.748  58.013 -59.141  1.00  0.00     0.190 HD
BRANCH  20  23
HETATM   23  C   UNL     1     -46.137  59.146 -59.347  1.00  0.00     0.143 C 
BRANCH  23  24
HETATM   24  C   UNL     1     -46.994  58.446 -60.388  1.00  0.00    -0.043 A 
HETATM   25  C   UNL     1     -47.892  59.180 -61.197  1.00  0.00    -0.055 A 
HETATM   26  C   UNL     1     -48.016  60.678 -61.106  1.00  0.00     0.049 C 
HETATM   27  C   UNL     1     -48.676  58.507 -62.151  1.00  0.00     0.007 A 
HETATM   28  C   UNL     1     -48.613  57.123 -62.285  1.00  0.00     0.001 A 
HETATM   29  C   UNL     1     -47.763  56.391 -61.467  1.00  0.00     0.001 A 
HETATM   30  C   UNL     1     -46.969  57.044 -60.524  1.00  0.00     0.008 A 
ENDBRANCH  23  24
ENDBRANCH  20  23
ENDBRANCH   1  19
TORSDOF 6
ENDMDL
