MODEL 1
REMARK VINA RESULT:      -9.0      0.000      0.000
REMARK  6 active torsions:
REMARK  status: ('A' for Active; 'I' for Inactive)
REMARK    1  A    between atoms: O_2  and  C_3 
REMARK    2  A    between atoms: C_6  and  C_7 
REMARK    3  A    between atoms: C_7  and  N_8 
REMARK       I    between atoms: N_8  and  C_9 
REMARK    4  A    between atoms: C_9  and  C_10 
REMARK    5  A    between atoms: C_10  and  O_11 
REMARK    6  A    between atoms: N_12  and  C_13 
ROOT
HETATM    1  C   UNL     1     -43.785  56.592 -54.270  1.00  0.00     0.256 C 
HETATM    2  N   UNL     1     -43.776  57.201 -52.925  1.00  0.00    -0.254 N 
HETATM    3  C   UNL     1     -44.601  58.284 -52.648  1.00  0.00     0.330 C 
HETATM    4  O   UNL     1     -44.873  58.712 -51.525  1.00  0.00    -0.246 OA
HETATM    5  N   UNL     1     -45.121  58.971 -53.703  1.00  0.00    -0.308 N 
HETATM    6  C   UNL     1     -44.889  58.698 -55.040  1.00  0.00     0.048 A 
HETATM    7  C   UNL     1     -44.187  57.549 -55.378  1.00  0.00     0.034 A 
HETATM    8  C   UNL     1     -45.365  59.577 -56.014  1.00  0.00     0.030 A 
HETATM    9  C   UNL     1     -45.119  59.315 -57.360  1.00  0.00     0.002 A 
HETATM   10  C   UNL     1     -44.416  58.170 -57.724  1.00  0.00     0.001 A 
HETATM   11  C   UNL     1     -43.964  57.284 -56.742  1.00  0.00     0.015 A 
HETATM   12  H   UNL     1     -45.682  59.769 -53.439  1.00  0.00     0.170 HD
ENDROOT
BRANCH   1  13
HETATM   13  C   UNL     1     -42.360  55.981 -54.610  1.00  0.00     0.279 C 
HETATM   14  N   UNL     1     -42.247  54.607 -54.591  1.00  0.00    -0.352 N 
HETATM   15  H   UNL     1     -43.069  54.052 -54.380  1.00  0.00     0.162 HD
HETATM   16  O   UNL     1     -41.406  56.732 -54.840  1.00  0.00    -0.268 OA
BRANCH  14  17
HETATM   17  C   UNL     1     -41.072  53.929 -55.090  1.00  0.00     0.161 C 
BRANCH  17  18
HETATM   18  C   UNL     1     -40.486  52.949 -54.108  1.00  0.00    -0.040 A 
HETATM   19  C   UNL     1     -40.358  53.280 -52.753  1.00  0.00     0.011 A 
HETATM   20  C   UNL     1     -39.901  52.335 -51.832  1.00  0.00     0.037 A 
HETATM   21  C   UNL     1     -39.565  51.043 -52.243  1.00  0.00     0.068 A 
HETATM   22  C   UNL     1     -39.655  50.714 -53.592  1.00  0.00     0.037 A 
HETATM   23  C   UNL     1     -40.116  51.659 -54.515  1.00  0.00     0.011 A 
BRANCH  21  24
HETATM   24  O   UNL     1     -39.165  50.203 -51.239  1.00  0.00    -0.356 OA
HETATM   25  C   UNL     1     -40.063  50.056 -50.144  1.00  0.00     0.210 C 
ENDBRANCH  21  24
ENDBRANCH  17  18
ENDBRANCH  14  17
ENDBRANCH   1  13
BRANCH   1  26
HETATM   26  O   UNL     1     -44.778  55.563 -54.278  1.00  0.00    -0.359 OA
HETATM   27  H   UNL     1     -45.504  55.917 -54.825  1.00  0.00     0.213 HD
ENDBRANCH   1  26
BRANCH   2  28
HETATM   28  C   UNL     1     -43.106  56.536 -51.830  1.00  0.00     0.043 A 
HETATM   29  C   UNL     1     -43.579  55.339 -51.269  1.00  0.00     0.031 A 
HETATM   30  C   UNL     1     -42.869  54.678 -50.258  1.00  0.00     0.026 A 
HETATM   31  C   UNL     1     -41.675  55.211 -49.784  1.00  0.00     0.034 A 
HETATM   32 CL   UNL     1     -40.798  54.394 -48.552  1.00  0.00    -0.084 Cl
HETATM   33  C   UNL     1     -41.191  56.401 -50.309  1.00  0.00     0.026 A 
HETATM   34  C   UNL     1     -41.901  57.055 -51.322  1.00  0.00     0.031 A 
ENDBRANCH   2  28
TORSDOF 6
ENDMDL
MODEL 2
REMARK VINA RESULT:      -8.4      2.627      3.659
REMARK  6 active torsions:
REMARK  status: ('A' for Active; 'I' for Inactive)
REMARK    1  A    between atoms: O_2  and  C_3 
REMARK    2  A    between atoms: C_6  and  C_7 
REMARK    3  A    between atoms: C_7  and  N_8 
REMARK       I    between atoms: N_8  and  C_9 
REMARK    4  A    between atoms: C_9  and  C_10 
REMARK    5  A    between atoms: C_10  and  O_11 
REMARK    6  A    between atoms: N_12  and  C_13 
ROOT
HETATM    1  C   UNL     1     -42.972  57.149 -55.957  1.00  0.00     0.256 C 
HETATM    2  N   UNL     1     -42.283  58.372 -55.500  1.00  0.00    -0.254 N 
HETATM    3  C   UNL     1     -42.134  59.449 -56.363  1.00  0.00     0.330 C 
HETATM    4  O   UNL     1     -41.816  60.594 -56.037  1.00  0.00    -0.246 OA
HETATM    5  N   UNL     1     -42.307  59.223 -57.695  1.00  0.00    -0.308 N 
HETATM    6  C   UNL     1     -42.602  58.002 -58.276  1.00  0.00     0.048 A 
HETATM    7  C   UNL     1     -42.896  56.921 -57.456  1.00  0.00     0.034 A 
HETATM    8  C   UNL     1     -42.602  57.885 -59.668  1.00  0.00     0.030 A 
HETATM    9  C   UNL     1     -42.881  56.654 -60.257  1.00  0.00     0.002 A 
HETATM   10  C   UNL     1     -43.177  55.556 -59.455  1.00  0.00     0.001 A 
HETATM   11  C   UNL     1     -43.199  55.689 -58.064  1.00  0.00     0.015 A 
HETATM   12  H   UNL     1     -42.150  60.036 -58.275  1.00  0.00     0.170 HD
ENDROOT
BRANCH   1  13
HETATM   13  C   UNL     1     -42.389  55.873 -55.214  1.00  0.00     0.279 C 
HETATM   14  N   UNL     1     -43.186  55.292 -54.250  1.00  0.00    -0.352 N 
HETATM   15  H   UNL     1     -44.103  55.686 -54.071  1.00  0.00     0.162 HD
HETATM   16  O   UNL     1     -41.253  55.468 -55.482  1.00  0.00    -0.268 OA
BRANCH  14  17
HETATM   17  C   UNL     1     -42.865  54.012 -53.662  1.00  0.00     0.161 C 
BRANCH  17  18
HETATM   18  C   UNL     1     -41.913  54.110 -52.498  1.00  0.00    -0.040 A 
HETATM   19  C   UNL     1     -42.094  55.080 -51.504  1.00  0.00     0.011 A 
HETATM   20  C   UNL     1     -41.264  55.108 -50.381  1.00  0.00     0.037 A 
HETATM   21  C   UNL     1     -40.242  54.169 -50.226  1.00  0.00     0.068 A 
HETATM   22  C   UNL     1     -40.032  53.222 -51.225  1.00  0.00     0.037 A 
HETATM   23  C   UNL     1     -40.865  53.192 -52.350  1.00  0.00     0.011 A 
BRANCH  21  24
HETATM   24  O   UNL     1     -39.524  54.281 -49.067  1.00  0.00    -0.356 OA
HETATM   25  C   UNL     1     -40.206  53.931 -47.867  1.00  0.00     0.210 C 
ENDBRANCH  21  24
ENDBRANCH  17  18
ENDBRANCH  14  17
ENDBRANCH   1  13
BRANCH   1  26
HETATM   26  O   UNL     1     -44.365  57.296 -55.665  1.00  0.00    -0.359 OA
HETATM   27  H   UNL     1     -44.709  57.879 -56.368  1.00  0.00     0.213 HD
ENDBRANCH   1  26
BRANCH   2  28
HETATM   28  C   UNL     1     -41.977  58.553 -54.098  1.00  0.00     0.043 A 
HETATM   29  C   UNL     1     -40.672  58.452 -53.590  1.00  0.00     0.031 A 
HETATM   30  C   UNL     1     -40.394  58.704 -52.240  1.00  0.00     0.026 A 
HETATM   31  C   UNL     1     -41.422  59.054 -51.372  1.00  0.00     0.034 A 
HETATM   32 CL   UNL     1     -41.080  59.376 -49.719  1.00  0.00    -0.084 Cl
HETATM   33  C   UNL     1     -42.725  59.148 -51.843  1.00  0.00     0.026 A 
HETATM   34  C   UNL     1     -42.997  58.899 -53.193  1.00  0.00     0.031 A 
ENDBRANCH   2  28
TORSDOF 6
ENDMDL
MODEL 3
REMARK VINA RESULT:      -8.3      2.881      7.152
REMARK  6 active torsions:
REMARK  status: ('A' for Active; 'I' for Inactive)
REMARK    1  A    between atoms: O_2  and  C_3 
REMARK    2  A    between atoms: C_6  and  C_7 
REMARK    3  A    between atoms: C_7  and  N_8 
REMARK       I    between atoms: N_8  and  C_9 
REMARK    4  A    between atoms: C_9  and  C_10 
REMARK    5  A    between atoms: C_10  and  O_11 
REMARK    6  A    between atoms: N_12  and  C_13 
ROOT
HETATM    1  C   UNL     1     -41.326  54.994 -53.398  1.00  0.00     0.256 C 
HETATM    2  N   UNL     1     -41.779  55.624 -52.143  1.00  0.00    -0.254 N 
HETATM    3  C   UNL     1     -41.216  55.241 -50.932  1.00  0.00     0.330 C 
HETATM    4  O   UNL     1     -41.316  55.854 -49.867  1.00  0.00    -0.246 OA
HETATM    5  N   UNL     1     -40.532  54.065 -50.894  1.00  0.00    -0.308 N 
HETATM    6  C   UNL     1     -40.357  53.196 -51.958  1.00  0.00     0.048 A 
HETATM    7  C   UNL     1     -40.777  53.589 -53.221  1.00  0.00     0.034 A 
HETATM    8  C   UNL     1     -39.762  51.952 -51.739  1.00  0.00     0.030 A 
HETATM    9  C   UNL     1     -39.600  51.068 -52.803  1.00  0.00     0.002 A 
HETATM   10  C   UNL     1     -40.015  51.439 -54.078  1.00  0.00     0.001 A 
HETATM   11  C   UNL     1     -40.587  52.696 -54.292  1.00  0.00     0.015 A 
HETATM   12  H   UNL     1     -40.177  53.823 -49.979  1.00  0.00     0.170 HD
ENDROOT
BRANCH   1  13
HETATM   13  C   UNL     1     -42.509  54.953 -54.456  1.00  0.00     0.279 C 
HETATM   14  N   UNL     1     -42.314  55.631 -55.641  1.00  0.00    -0.352 N 
HETATM   15  H   UNL     1     -41.431  56.106 -55.792  1.00  0.00     0.162 HD
HETATM   16  O   UNL     1     -43.561  54.364 -54.183  1.00  0.00    -0.268 OA
BRANCH  14  17
HETATM   17  C   UNL     1     -43.217  55.491 -56.760  1.00  0.00     0.161 C 
BRANCH  17  18
HETATM   18  C   UNL     1     -42.889  56.406 -57.911  1.00  0.00    -0.040 A 
HETATM   19  C   UNL     1     -42.444  57.714 -57.683  1.00  0.00     0.011 A 
HETATM   20  C   UNL     1     -42.053  58.526 -58.750  1.00  0.00     0.037 A 
HETATM   21  C   UNL     1     -42.095  58.049 -60.062  1.00  0.00     0.068 A 
HETATM   22  C   UNL     1     -42.569  56.762 -60.302  1.00  0.00     0.037 A 
HETATM   23  C   UNL     1     -42.958  55.947 -59.233  1.00  0.00     0.011 A 
BRANCH  21  24
HETATM   24  O   UNL     1     -41.652  58.929 -61.012  1.00  0.00    -0.356 OA
HETATM   25  C   UNL     1     -42.083  60.279 -60.871  1.00  0.00     0.210 C 
ENDBRANCH  21  24
ENDBRANCH  17  18
ENDBRANCH  14  17
ENDBRANCH   1  13
BRANCH   1  26
HETATM   26  O   UNL     1     -40.235  55.766 -53.908  1.00  0.00    -0.359 OA
HETATM   27  H   UNL     1     -40.250  55.616 -54.872  1.00  0.00     0.213 HD
ENDBRANCH   1  26
BRANCH   2  28
HETATM   28  C   UNL     1     -42.620  56.800 -52.181  1.00  0.00     0.043 A 
HETATM   29  C   UNL     1     -42.188  58.021 -52.721  1.00  0.00     0.031 A 
HETATM   30  C   UNL     1     -43.049  59.122 -52.812  1.00  0.00     0.026 A 
HETATM   31  C   UNL     1     -44.358  59.021 -52.354  1.00  0.00     0.034 A 
HETATM   32 CL   UNL     1     -45.418  60.369 -52.477  1.00  0.00    -0.084 Cl
HETATM   33  C   UNL     1     -44.809  57.830 -51.802  1.00  0.00     0.026 A 
HETATM   34  C   UNL     1     -43.947  56.731 -51.718  1.00  0.00     0.031 A 
ENDBRANCH   2  28
TORSDOF 6
ENDMDL
MODEL 4
REMARK VINA RESULT:      -8.0      2.816      7.447
REMARK  6 active torsions:
REMARK  status: ('A' for Active; 'I' for Inactive)
REMARK    1  A    between atoms: O_2  and  C_3 
REMARK    2  A    between atoms: C_6  and  C_7 
REMARK    3  A    between atoms: C_7  and  N_8 
REMARK       I    between atoms: N_8  and  C_9 
REMARK    4  A    between atoms: C_9  and  C_10 
REMARK    5  A    between atoms: C_10  and  O_11 
REMARK    6  A    between atoms: N_12  and  C_13 
ROOT
HETATM    1  C   UNL     1     -41.226  54.979 -54.090  1.00  0.00     0.256 C 
HETATM    2  N   UNL     1     -41.787  55.826 -53.018  1.00  0.00    -0.254 N 
HETATM    3  C   UNL     1     -41.356  55.662 -51.707  1.00  0.00     0.330 C 
HETATM    4  O   UNL     1     -41.547  56.455 -50.784  1.00  0.00    -0.246 OA
HETATM    5  N   UNL     1     -40.707  54.507 -51.393  1.00  0.00    -0.308 N 
HETATM    6  C   UNL     1     -40.447  53.462 -52.262  1.00  0.00     0.048 A 
HETATM    7  C   UNL     1     -40.731  53.626 -53.612  1.00  0.00     0.034 A 
HETATM    8  C   UNL     1     -39.906  52.274 -51.767  1.00  0.00     0.030 A 
HETATM    9  C   UNL     1     -39.660  51.213 -52.637  1.00  0.00     0.002 A 
HETATM   10  C   UNL     1     -39.938  51.353 -53.993  1.00  0.00     0.001 A 
HETATM   11  C   UNL     1     -40.457  52.555 -54.482  1.00  0.00     0.015 A 
HETATM   12  H   UNL     1     -40.451  54.431 -50.418  1.00  0.00     0.170 HD
ENDROOT
BRANCH   1  13
HETATM   13  C   UNL     1     -42.299  54.756 -55.238  1.00  0.00     0.279 C 
HETATM   14  N   UNL     1     -42.126  55.472 -56.404  1.00  0.00    -0.352 N 
HETATM   15  H   UNL     1     -41.324  56.088 -56.485  1.00  0.00     0.162 HD
HETATM   16  O   UNL     1     -43.257  53.999 -55.049  1.00  0.00    -0.268 OA
BRANCH  14  17
HETATM   17  C   UNL     1     -42.902  55.199 -57.592  1.00  0.00     0.161 C 
BRANCH  17  18
HETATM   18  C   UNL     1     -43.455  56.440 -58.243  1.00  0.00    -0.040 A 
HETATM   19  C   UNL     1     -43.909  57.514 -57.469  1.00  0.00     0.011 A 
HETATM   20  C   UNL     1     -44.334  58.698 -58.078  1.00  0.00     0.037 A 
HETATM   21  C   UNL     1     -44.310  58.832 -59.468  1.00  0.00     0.068 A 
HETATM   22  C   UNL     1     -43.893  57.758 -60.248  1.00  0.00     0.037 A 
HETATM   23  C   UNL     1     -43.465  56.573 -59.638  1.00  0.00     0.011 A 
BRANCH  21  24
HETATM   24  O   UNL     1     -44.717  60.052 -59.938  1.00  0.00    -0.356 OA
HETATM   25  C   UNL     1     -44.654  61.135 -59.017  1.00  0.00     0.210 C 
ENDBRANCH  21  24
ENDBRANCH  17  18
ENDBRANCH  14  17
ENDBRANCH   1  13
BRANCH   1  26
HETATM   26  O   UNL     1     -40.073  55.642 -54.614  1.00  0.00    -0.359 OA
HETATM   27  H   UNL     1     -40.419  56.445 -55.047  1.00  0.00     0.213 HD
ENDBRANCH   1  26
BRANCH   2  28
HETATM   28  C   UNL     1     -42.593  56.980 -53.349  1.00  0.00     0.043 A 
HETATM   29  C   UNL     1     -42.041  58.164 -53.864  1.00  0.00     0.031 A 
HETATM   30  C   UNL     1     -42.854  59.240 -54.245  1.00  0.00     0.026 A 
HETATM   31  C   UNL     1     -44.234  59.151 -54.108  1.00  0.00     0.034 A 
HETATM   32 CL   UNL     1     -45.232  60.466 -54.587  1.00  0.00    -0.084 Cl
HETATM   33  C   UNL     1     -44.807  57.998 -53.588  1.00  0.00     0.026 A 
HETATM   34  C   UNL     1     -43.992  56.924 -53.214  1.00  0.00     0.031 A 
ENDBRANCH   2  28
TORSDOF 6
ENDMDL
MODEL 5
REMARK VINA RESULT:      -7.9     15.718     18.530
REMARK  6 active torsions:
REMARK  status: ('A' for Active; 'I' for Inactive)
REMARK    1  A    between atoms: O_2  and  C_3 
REMARK    2  A    between atoms: C_6  and  C_7 
REMARK    3  A    between atoms: C_7  and  N_8 
REMARK       I    between atoms: N_8  and  C_9 
REMARK    4  A    between atoms: C_9  and  C_10 
REMARK    5  A    between atoms: C_10  and  O_11 
REMARK    6  A    between atoms: N_12  and  C_13 
ROOT
HETATM    1  C   UNL     1     -33.653  40.278 -54.008  1.00  0.00     0.256 C 
HETATM    2  N   UNL     1     -34.907  41.049 -54.120  1.00  0.00    -0.254 N 
HETATM    3  C   UNL     1     -35.350  41.812 -53.048  1.00  0.00     0.330 C 
HETATM    4  O   UNL     1     -36.220  42.683 -53.097  1.00  0.00    -0.246 OA
HETATM    5  N   UNL     1     -34.819  41.552 -51.822  1.00  0.00    -0.308 N 
HETATM    6  C   UNL     1     -33.880  40.576 -51.537  1.00  0.00     0.048 A 
HETATM    7  C   UNL     1     -33.300  39.876 -52.587  1.00  0.00     0.034 A 
HETATM    8  C   UNL     1     -33.536  40.318 -50.208  1.00  0.00     0.030 A 
HETATM    9  C   UNL     1     -32.604  39.325 -49.916  1.00  0.00     0.002 A 
HETATM   10  C   UNL     1     -32.011  38.609 -50.952  1.00  0.00     0.001 A 
HETATM   11  C   UNL     1     -32.344  38.890 -52.279  1.00  0.00     0.015 A 
HETATM   12  H   UNL     1     -35.208  42.114 -51.076  1.00  0.00     0.170 HD
ENDROOT
BRANCH   1  13
HETATM   13  C   UNL     1     -33.723  38.972 -54.908  1.00  0.00     0.279 C 
HETATM   14  N   UNL     1     -34.857  38.195 -54.795  1.00  0.00    -0.352 N 
HETATM   15  H   UNL     1     -35.594  38.493 -54.166  1.00  0.00     0.162 HD
HETATM   16  O   UNL     1     -32.771  38.673 -55.636  1.00  0.00    -0.268 OA
BRANCH  14  17
HETATM   17  C   UNL     1     -35.135  37.111 -55.709  1.00  0.00     0.161 C 
BRANCH  17  18
HETATM   18  C   UNL     1     -35.886  37.544 -56.941  1.00  0.00    -0.040 A 
HETATM   19  C   UNL     1     -35.211  38.107 -58.031  1.00  0.00     0.011 A 
HETATM   20  C   UNL     1     -35.899  38.421 -59.206  1.00  0.00     0.037 A 
HETATM   21  C   UNL     1     -37.269  38.177 -59.316  1.00  0.00     0.068 A 
HETATM   22  C   UNL     1     -37.956  37.650 -58.226  1.00  0.00     0.037 A 
HETATM   23  C   UNL     1     -37.267  37.332 -57.050  1.00  0.00     0.011 A 
BRANCH  21  24
HETATM   24  O   UNL     1     -37.818  38.495 -60.529  1.00  0.00    -0.356 OA
HETATM   25  C   UNL     1     -36.916  38.969 -61.524  1.00  0.00     0.210 C 
ENDBRANCH  21  24
ENDBRANCH  17  18
ENDBRANCH  14  17
ENDBRANCH   1  13
BRANCH   1  26
HETATM   26  O   UNL     1     -32.581  41.119 -54.442  1.00  0.00    -0.359 OA
HETATM   27  H   UNL     1     -32.985  41.731 -55.084  1.00  0.00     0.213 HD
ENDBRANCH   1  26
BRANCH   2  28
HETATM   28  C   UNL     1     -35.547  41.212 -55.407  1.00  0.00     0.043 A 
HETATM   29  C   UNL     1     -36.879  40.837 -55.641  1.00  0.00     0.031 A 
HETATM   30  C   UNL     1     -37.496  41.074 -56.876  1.00  0.00     0.026 A 
HETATM   31  C   UNL     1     -36.785  41.685 -57.903  1.00  0.00     0.034 A 
HETATM   32 CL   UNL     1     -37.545  41.987 -59.414  1.00  0.00    -0.084 Cl
HETATM   33  C   UNL     1     -35.461  42.053 -57.705  1.00  0.00     0.026 A 
HETATM   34  C   UNL     1     -34.851  41.819 -56.468  1.00  0.00     0.031 A 
ENDBRANCH   2  28
TORSDOF 6
ENDMDL
MODEL 6
REMARK VINA RESULT:      -7.9      2.138      3.029
REMARK  6 active torsions:
REMARK  status: ('A' for Active; 'I' for Inactive)
REMARK    1  A    between atoms: O_2  and  C_3 
REMARK    2  A    between atoms: C_6  and  C_7 
REMARK    3  A    between atoms: C_7  and  N_8 
REMARK       I    between atoms: N_8  and  C_9 
REMARK    4  A    between atoms: C_9  and  C_10 
REMARK    5  A    between atoms: C_10  and  O_11 
REMARK    6  A    between atoms: N_12  and  C_13 
ROOT
HETATM    1  C   UNL     1     -44.183  57.740 -56.259  1.00  0.00     0.256 C 
HETATM    2  N   UNL     1     -43.602  58.835 -55.457  1.00  0.00    -0.254 N 
HETATM    3  C   UNL     1     -43.823  60.156 -55.824  1.00  0.00     0.330 C 
HETATM    4  O   UNL     1     -43.616  61.143 -55.115  1.00  0.00    -0.246 OA
HETATM    5  N   UNL     1     -44.260  60.398 -57.090  1.00  0.00    -0.308 N 
HETATM    6  C   UNL     1     -44.492  59.441 -58.063  1.00  0.00     0.048 A 
HETATM    7  C   UNL     1     -44.421  58.099 -57.715  1.00  0.00     0.034 A 
HETATM    8  C   UNL     1     -44.794  59.844 -59.366  1.00  0.00     0.030 A 
HETATM    9  C   UNL     1     -45.011  58.884 -60.352  1.00  0.00     0.002 A 
HETATM   10  C   UNL     1     -44.943  57.532 -60.027  1.00  0.00     0.001 A 
HETATM   11  C   UNL     1     -44.663  57.140 -58.715  1.00  0.00     0.015 A 
HETATM   12  H   UNL     1     -44.368  61.379 -57.309  1.00  0.00     0.170 HD
ENDROOT
BRANCH   1  13
HETATM   13  C   UNL     1     -43.257  56.452 -56.192  1.00  0.00     0.279 C 
HETATM   14  N   UNL     1     -43.720  55.386 -55.449  1.00  0.00    -0.352 N 
HETATM   15  H   UNL     1     -44.624  55.461 -54.998  1.00  0.00     0.162 HD
HETATM   16  O   UNL     1     -42.159  56.452 -56.760  1.00  0.00    -0.268 OA
BRANCH  14  17
HETATM   17  C   UNL     1     -43.078  54.092 -55.487  1.00  0.00     0.161 C 
BRANCH  17  18
HETATM   18  C   UNL     1     -42.237  53.805 -54.271  1.00  0.00    -0.040 A 
HETATM   19  C   UNL     1     -41.119  52.966 -54.355  1.00  0.00     0.011 A 
HETATM   20  C   UNL     1     -40.290  52.778 -53.246  1.00  0.00     0.037 A 
HETATM   21  C   UNL     1     -40.558  53.423 -52.037  1.00  0.00     0.068 A 
HETATM   22  C   UNL     1     -41.687  54.232 -51.934  1.00  0.00     0.037 A 
HETATM   23  C   UNL     1     -42.516  54.423 -53.045  1.00  0.00     0.011 A 
BRANCH  21  24
HETATM   24  O   UNL     1     -39.651  53.184 -51.040  1.00  0.00    -0.356 OA
HETATM   25  C   UNL     1     -39.720  54.042 -49.906  1.00  0.00     0.210 C 
ENDBRANCH  21  24
ENDBRANCH  17  18
ENDBRANCH  14  17
ENDBRANCH   1  13
BRANCH   1  26
HETATM   26  O   UNL     1     -45.477  57.445 -55.725  1.00  0.00    -0.359 OA
HETATM   27  H   UNL     1     -45.729  58.242 -55.222  1.00  0.00     0.213 HD
ENDBRANCH   1  26
BRANCH   2  28
HETATM   28  C   UNL     1     -43.012  58.557 -54.166  1.00  0.00     0.043 A 
HETATM   29  C   UNL     1     -43.784  58.259 -53.032  1.00  0.00     0.031 A 
HETATM   30  C   UNL     1     -43.184  57.923 -51.811  1.00  0.00     0.026 A 
HETATM   31  C   UNL     1     -41.799  57.887 -51.703  1.00  0.00     0.034 A 
HETATM   32 CL   UNL     1     -41.063  57.462 -50.209  1.00  0.00    -0.084 Cl
HETATM   33  C   UNL     1     -41.010  58.191 -52.804  1.00  0.00     0.026 A 
HETATM   34  C   UNL     1     -41.613  58.523 -54.023  1.00  0.00     0.031 A 
ENDBRANCH   2  28
TORSDOF 6
ENDMDL
MODEL 7
REMARK VINA RESULT:      -7.8      2.470      7.278
REMARK  6 active torsions:
REMARK  status: ('A' for Active; 'I' for Inactive)
REMARK    1  A    between atoms: O_2  and  C_3 
REMARK    2  A    between atoms: C_6  and  C_7 
REMARK    3  A    between atoms: C_7  and  N_8 
REMARK       I    between atoms: N_8  and  C_9 
REMARK    4  A    between atoms: C_9  and  C_10 
REMARK    5  A    between atoms: C_10  and  O_11 
REMARK    6  A    between atoms: N_12  and  C_13 
ROOT
HETATM    1  C   UNL     1     -41.408  55.251 -53.075  1.00  0.00     0.256 C 
HETATM    2  N   UNL     1     -41.810  55.669 -51.718  1.00  0.00    -0.254 N 
HETATM    3  C   UNL     1     -41.200  55.099 -50.607  1.00  0.00     0.330 C 
HETATM    4  O   UNL     1     -41.257  55.532 -49.455  1.00  0.00    -0.246 OA
HETATM    5  N   UNL     1     -40.516  53.936 -50.787  1.00  0.00    -0.308 N 
HETATM    6  C   UNL     1     -40.384  53.251 -51.982  1.00  0.00     0.048 A 
HETATM    7  C   UNL     1     -40.855  53.839 -53.148  1.00  0.00     0.034 A 
HETATM    8  C   UNL     1     -39.783  51.990 -51.990  1.00  0.00     0.030 A 
HETATM    9  C   UNL     1     -39.664  51.290 -53.188  1.00  0.00     0.002 A 
HETATM   10  C   UNL     1     -40.129  51.859 -54.370  1.00  0.00     0.001 A 
HETATM   11  C   UNL     1     -40.709  53.130 -54.355  1.00  0.00     0.015 A 
HETATM   12  H   UNL     1     -40.126  53.551 -49.937  1.00  0.00     0.170 HD
ENDROOT
BRANCH   1  13
HETATM   13  C   UNL     1     -42.633  55.374 -54.078  1.00  0.00     0.279 C 
HETATM   14  N   UNL     1     -42.559  56.361 -55.039  1.00  0.00    -0.352 N 
HETATM   15  H   UNL     1     -41.732  56.946 -55.075  1.00  0.00     0.162 HD
HETATM   16  O   UNL     1     -43.611  54.630 -53.951  1.00  0.00    -0.268 OA
BRANCH  14  17
HETATM   17  C   UNL     1     -43.499  56.434 -56.134  1.00  0.00     0.161 C 
BRANCH  17  18
HETATM   18  C   UNL     1     -44.311  57.703 -56.141  1.00  0.00    -0.040 A 
HETATM   19  C   UNL     1     -44.514  58.430 -54.961  1.00  0.00     0.011 A 
HETATM   20  C   UNL     1     -45.188  59.654 -54.990  1.00  0.00     0.037 A 
HETATM   21  C   UNL     1     -45.670  60.174 -56.194  1.00  0.00     0.068 A 
HETATM   22  C   UNL     1     -45.503  59.442 -57.366  1.00  0.00     0.037 A 
HETATM   23  C   UNL     1     -44.825  58.218 -57.338  1.00  0.00     0.011 A 
BRANCH  21  24
HETATM   24  O   UNL     1     -46.280  61.395 -56.093  1.00  0.00    -0.356 OA
HETATM   25  C   UNL     1     -46.415  61.925 -54.778  1.00  0.00     0.210 C 
ENDBRANCH  21  24
ENDBRANCH  17  18
ENDBRANCH  14  17
ENDBRANCH   1  13
BRANCH   1  26
HETATM   26  O   UNL     1     -40.339  56.101 -53.497  1.00  0.00    -0.359 OA
HETATM   27  H   UNL     1     -40.300  55.996 -54.466  1.00  0.00     0.213 HD
ENDBRANCH   1  26
BRANCH   2  28
HETATM   28  C   UNL     1     -42.652  56.830 -51.533  1.00  0.00     0.043 A 
HETATM   29  C   UNL     1     -42.177  58.141 -51.697  1.00  0.00     0.031 A 
HETATM   30  C   UNL     1     -43.032  59.245 -51.583  1.00  0.00     0.026 A 
HETATM   31  C   UNL     1     -44.379  59.055 -51.295  1.00  0.00     0.034 A 
HETATM   32 CL   UNL     1     -45.431  60.408 -51.168  1.00  0.00    -0.084 Cl
HETATM   33  C   UNL     1     -44.874  57.771 -51.114  1.00  0.00     0.026 A 
HETATM   34  C   UNL     1     -44.017  56.671 -51.233  1.00  0.00     0.031 A 
ENDBRANCH   2  28
TORSDOF 6
ENDMDL
MODEL 8
REMARK VINA RESULT:      -7.7      3.311      6.723
REMARK  6 active torsions:
REMARK  status: ('A' for Active; 'I' for Inactive)
REMARK    1  A    between atoms: O_2  and  C_3 
REMARK    2  A    between atoms: C_6  and  C_7 
REMARK    3  A    between atoms: C_7  and  N_8 
REMARK       I    between atoms: N_8  and  C_9 
REMARK    4  A    between atoms: C_9  and  C_10 
REMARK    5  A    between atoms: C_10  and  O_11 
REMARK    6  A    between atoms: N_12  and  C_13 
ROOT
HETATM    1  C   UNL     1     -41.909  57.402 -52.821  1.00  0.00     0.256 C 
HETATM    2  N   UNL     1     -43.213  57.678 -52.184  1.00  0.00    -0.254 N 
HETATM    3  C   UNL     1     -43.865  56.677 -51.476  1.00  0.00     0.330 C 
HETATM    4  O   UNL     1     -44.808  56.843 -50.701  1.00  0.00    -0.246 OA
HETATM    5  N   UNL     1     -43.469  55.391 -51.685  1.00  0.00    -0.308 N 
HETATM    6  C   UNL     1     -42.477  54.983 -52.559  1.00  0.00     0.048 A 
HETATM    7  C   UNL     1     -41.699  55.945 -53.190  1.00  0.00     0.034 A 
HETATM    8  C   UNL     1     -42.278  53.619 -52.785  1.00  0.00     0.030 A 
HETATM    9  C   UNL     1     -41.292  53.204 -53.678  1.00  0.00     0.002 A 
HETATM   10  C   UNL     1     -40.501  54.150 -54.323  1.00  0.00     0.001 A 
HETATM   11  C   UNL     1     -40.692  55.511 -54.072  1.00  0.00     0.015 A 
HETATM   12  H   UNL     1     -44.004  54.706 -51.170  1.00  0.00     0.170 HD
ENDROOT
BRANCH   1  13
HETATM   13  C   UNL     1     -41.730  58.293 -54.122  1.00  0.00     0.279 C 
HETATM   14  N   UNL     1     -42.444  57.918 -55.241  1.00  0.00    -0.352 N 
HETATM   15  H   UNL     1     -43.057  57.112 -55.182  1.00  0.00     0.162 HD
HETATM   16  O   UNL     1     -40.947  59.249 -54.113  1.00  0.00    -0.268 OA
BRANCH  14  17
HETATM   17  C   UNL     1     -42.534  58.762 -56.410  1.00  0.00     0.161 C 
BRANCH  17  18
HETATM   18  C   UNL     1     -42.821  58.000 -57.678  1.00  0.00    -0.040 A 
HETATM   19  C   UNL     1     -43.048  56.619 -57.648  1.00  0.00     0.011 A 
HETATM   20  C   UNL     1     -43.405  55.934 -58.812  1.00  0.00     0.037 A 
HETATM   21  C   UNL     1     -43.546  56.613 -60.024  1.00  0.00     0.068 A 
HETATM   22  C   UNL     1     -43.288  57.980 -60.071  1.00  0.00     0.037 A 
HETATM   23  C   UNL     1     -42.933  58.667 -58.905  1.00  0.00     0.011 A 
BRANCH  21  24
HETATM   24  O   UNL     1     -43.934  55.835 -61.081  1.00  0.00    -0.356 OA
HETATM   25  C   UNL     1     -44.987  54.910 -60.829  1.00  0.00     0.210 C 
ENDBRANCH  21  24
ENDBRANCH  17  18
ENDBRANCH  14  17
ENDBRANCH   1  13
BRANCH   1  26
HETATM   26  O   UNL     1     -40.885  57.705 -51.870  1.00  0.00    -0.359 OA
HETATM   27  H   UNL     1     -40.374  58.432 -52.274  1.00  0.00     0.213 HD
ENDBRANCH   1  26
BRANCH   2  28
HETATM   28  C   UNL     1     -43.699  59.037 -52.082  1.00  0.00     0.043 A 
HETATM   29  C   UNL     1     -43.151  59.971 -51.189  1.00  0.00     0.031 A 
HETATM   30  C   UNL     1     -43.593  61.300 -51.163  1.00  0.00     0.026 A 
HETATM   31  C   UNL     1     -44.600  61.714 -52.027  1.00  0.00     0.034 A 
HETATM   32 CL   UNL     1     -45.135  63.348 -52.004  1.00  0.00    -0.084 Cl
HETATM   33  C   UNL     1     -45.172  60.809 -52.911  1.00  0.00     0.026 A 
HETATM   34  C   UNL     1     -44.723  59.484 -52.937  1.00  0.00     0.031 A 
ENDBRANCH   2  28
TORSDOF 6
ENDMDL
MODEL 9
REMARK VINA RESULT:      -7.6      2.075      4.217
REMARK  6 active torsions:
REMARK  status: ('A' for Active; 'I' for Inactive)
REMARK    1  A    between atoms: O_2  and  C_3 
REMARK    2  A    between atoms: C_6  and  C_7 
REMARK    3  A    between atoms: C_7  and  N_8 
REMARK       I    between atoms: N_8  and  C_9 
REMARK    4  A    between atoms: C_9  and  C_10 
REMARK    5  A    between atoms: C_10  and  O_11 
REMARK    6  A    between atoms: N_12  and  C_13 
ROOT
HETATM    1  C   UNL     1     -43.259  57.625 -55.449  1.00  0.00     0.256 C 
HETATM    2  N   UNL     1     -43.094  56.349 -56.172  1.00  0.00    -0.254 N 
HETATM    3  C   UNL     1     -43.463  56.255 -57.508  1.00  0.00     0.330 C 
HETATM    4  O   UNL     1     -43.146  55.348 -58.279  1.00  0.00    -0.246 OA
HETATM    5  N   UNL     1     -44.284  57.219 -58.008  1.00  0.00    -0.308 N 
HETATM    6  C   UNL     1     -44.805  58.287 -57.297  1.00  0.00     0.048 A 
HETATM    7  C   UNL     1     -44.364  58.508 -56.000  1.00  0.00     0.034 A 
HETATM    8  C   UNL     1     -45.756  59.115 -57.898  1.00  0.00     0.030 A 
HETATM    9  C   UNL     1     -46.296  60.180 -57.180  1.00  0.00     0.002 A 
HETATM   10  C   UNL     1     -45.871  60.420 -55.878  1.00  0.00     0.001 A 
HETATM   11  C   UNL     1     -44.901  59.601 -55.294  1.00  0.00     0.015 A 
HETATM   12  H   UNL     1     -44.546  57.078 -58.974  1.00  0.00     0.170 HD
ENDROOT
BRANCH   1  13
HETATM   13  C   UNL     1     -43.535  57.357 -53.909  1.00  0.00     0.279 C 
HETATM   14  N   UNL     1     -42.467  57.497 -53.048  1.00  0.00    -0.352 N 
HETATM   15  H   UNL     1     -41.568  57.777 -53.425  1.00  0.00     0.162 HD
HETATM   16  O   UNL     1     -44.658  57.003 -53.536  1.00  0.00    -0.268 OA
BRANCH  14  17
HETATM   17  C   UNL     1     -42.636  57.493 -51.613  1.00  0.00     0.161 C 
BRANCH  17  18
HETATM   18  C   UNL     1     -42.143  56.231 -50.956  1.00  0.00    -0.040 A 
HETATM   19  C   UNL     1     -42.427  54.976 -51.510  1.00  0.00     0.011 A 
HETATM   20  C   UNL     1     -41.890  53.815 -50.949  1.00  0.00     0.037 A 
HETATM   21  C   UNL     1     -41.058  53.883 -49.829  1.00  0.00     0.068 A 
HETATM   22  C   UNL     1     -40.798  55.122 -49.250  1.00  0.00     0.037 A 
HETATM   23  C   UNL     1     -41.333  56.286 -49.813  1.00  0.00     0.011 A 
BRANCH  21  24
HETATM   24  O   UNL     1     -40.568  52.680 -49.399  1.00  0.00    -0.356 OA
HETATM   25  C   UNL     1     -40.258  51.727 -50.410  1.00  0.00     0.210 C 
ENDBRANCH  21  24
ENDBRANCH  17  18
ENDBRANCH  14  17
ENDBRANCH   1  13
BRANCH   1  26
HETATM   26  O   UNL     1     -42.054  58.379 -55.610  1.00  0.00    -0.359 OA
HETATM   27  H   UNL     1     -41.341  57.780 -55.320  1.00  0.00     0.213 HD
ENDBRANCH   1  26
BRANCH   2  28
HETATM   28  C   UNL     1     -42.332  55.271 -55.581  1.00  0.00     0.043 A 
HETATM   29  C   UNL     1     -42.930  54.086 -55.122  1.00  0.00     0.031 A 
HETATM   30  C   UNL     1     -42.160  53.029 -54.620  1.00  0.00     0.026 A 
HETATM   31  C   UNL     1     -40.776  53.144 -54.562  1.00  0.00     0.034 A 
HETATM   32 CL   UNL     1     -39.830  51.842 -53.958  1.00  0.00    -0.084 Cl
HETATM   33  C   UNL     1     -40.157  54.309 -54.995  1.00  0.00     0.026 A 
HETATM   34  C   UNL     1     -40.931  55.361 -55.499  1.00  0.00     0.031 A 
ENDBRANCH   2  28
TORSDOF 6
ENDMDL
MODEL 10
REMARK VINA RESULT:      -7.5      2.841      7.737
REMARK  6 active torsions:
REMARK  status: ('A' for Active; 'I' for Inactive)
REMARK    1  A    between atoms: O_2  and  C_3 
REMARK    2  A    between atoms: C_6  and  C_7 
REMARK    3  A    between atoms: C_7  and  N_8 
REMARK       I    between atoms: N_8  and  C_9 
REMARK    4  A    between atoms: C_9  and  C_10 
REMARK    5  A    between atoms: C_10  and  O_11 
REMARK    6  A    between atoms: N_12  and  C_13 
ROOT
HETATM    1  C   UNL     1     -42.615  54.835 -52.642  1.00  0.00     0.256 C 
HETATM    2  N   UNL     1     -42.480  55.359 -54.016  1.00  0.00    -0.254 N 
HETATM    3  C   UNL     1     -41.868  54.588 -54.996  1.00  0.00     0.330 C 
HETATM    4  O   UNL     1     -41.919  54.794 -56.209  1.00  0.00    -0.246 OA
HETATM    5  N   UNL     1     -41.103  53.537 -54.590  1.00  0.00    -0.308 N 
HETATM    6  C   UNL     1     -40.862  53.172 -53.277  1.00  0.00     0.048 A 
HETATM    7  C   UNL     1     -41.554  53.819 -52.262  1.00  0.00     0.034 A 
HETATM    8  C   UNL     1     -39.935  52.164 -53.002  1.00  0.00     0.030 A 
HETATM    9  C   UNL     1     -39.676  51.805 -51.681  1.00  0.00     0.002 A 
HETATM   10  C   UNL     1     -40.356  52.441 -50.647  1.00  0.00     0.001 A 
HETATM   11  C   UNL     1     -41.299  53.432 -50.933  1.00  0.00     0.015 A 
HETATM   12  H   UNL     1     -40.655  53.037 -55.345  1.00  0.00     0.170 HD
ENDROOT
BRANCH   1  13
HETATM   13  C   UNL     1     -42.588  56.024 -51.591  1.00  0.00     0.279 C 
HETATM   14  N   UNL     1     -41.663  57.025 -51.803  1.00  0.00    -0.352 N 
HETATM   15  H   UNL     1     -41.060  56.970 -52.616  1.00  0.00     0.162 HD
HETATM   16  O   UNL     1     -43.347  56.004 -50.617  1.00  0.00    -0.268 OA
BRANCH  14  17
HETATM   17  C   UNL     1     -41.683  58.258 -51.048  1.00  0.00     0.161 C 
BRANCH  17  18
HETATM   18  C   UNL     1     -42.620  59.291 -51.616  1.00  0.00    -0.040 A 
HETATM   19  C   UNL     1     -43.998  59.219 -51.376  1.00  0.00     0.011 A 
HETATM   20  C   UNL     1     -44.850  60.231 -51.826  1.00  0.00     0.037 A 
HETATM   21  C   UNL     1     -44.345  61.332 -52.521  1.00  0.00     0.068 A 
HETATM   22  C   UNL     1     -42.982  61.395 -52.795  1.00  0.00     0.037 A 
HETATM   23  C   UNL     1     -42.127  60.384 -52.341  1.00  0.00     0.011 A 
BRANCH  21  24
HETATM   24  O   UNL     1     -45.277  62.269 -52.875  1.00  0.00    -0.356 OA
HETATM   25  C   UNL     1     -46.640  61.871 -52.777  1.00  0.00     0.210 C 
ENDBRANCH  21  24
ENDBRANCH  17  18
ENDBRANCH  14  17
ENDBRANCH   1  13
BRANCH   1  26
HETATM   26  O   UNL     1     -43.859  54.134 -52.562  1.00  0.00    -0.359 OA
HETATM   27  H   UNL     1     -44.495  54.789 -52.217  1.00  0.00     0.213 HD
ENDBRANCH   1  26
BRANCH   2  28
HETATM   28  C   UNL     1     -43.188  56.557 -54.411  1.00  0.00     0.043 A 
HETATM   29  C   UNL     1     -42.537  57.676 -54.954  1.00  0.00     0.031 A 
HETATM   30  C   UNL     1     -43.256  58.794 -55.395  1.00  0.00     0.026 A 
HETATM   31  C   UNL     1     -44.643  58.814 -55.292  1.00  0.00     0.034 A 
HETATM   32 CL   UNL     1     -45.526  60.180 -55.845  1.00  0.00    -0.084 Cl
HETATM   33  C   UNL     1     -45.313  57.728 -54.746  1.00  0.00     0.026 A 
HETATM   34  C   UNL     1     -44.590  56.611 -54.311  1.00  0.00     0.031 A 
ENDBRANCH   2  28
TORSDOF 6
ENDMDL
