MODEL 1
REMARK VINA RESULT:      -8.1      0.000      0.000
REMARK  7 active torsions:
REMARK  status: ('A' for Active; 'I' for Inactive)
REMARK    1  A    between atoms: C_4  and  C_5 
REMARK    2  A    between atoms: C_9  and  C_10 
REMARK    3  A    between atoms: C_10  and  C_11 
REMARK    4  A    between atoms: C_11  and  C_12 
REMARK    5  A    between atoms: C_12  and  O_13 
REMARK    6  A    between atoms: C_18  and  C_19 
REMARK       I    between atoms: C_19  and  N_20 
REMARK    7  A    between atoms: N_20  and  C_21 
ROOT
HETATM    1  C   UNL     1     -41.597  57.458 -54.609  1.00  0.00     0.202 A 
HETATM    2  N   UNL     1     -42.624  58.393 -55.085  1.00  0.00    -0.083 N 
HETATM    3  C   UNL     1     -43.696  58.026 -55.844  1.00  0.00     0.726 A 
HETATM    4  N   UNL     1     -44.380  59.087 -56.186  1.00  0.00    -0.046 NA
HETATM    5  C   UNL     1     -43.645  60.112 -55.646  1.00  0.00     0.166 A 
HETATM    6  N   UNL     1     -42.547  59.740 -54.968  1.00  0.00    -0.140 NA
HETATM    7  N   UNL     1     -43.871  56.731 -56.146  1.00  0.00    -0.192 N 
HETATM    8  C   UNL     1     -42.980  55.725 -55.786  1.00  0.00     0.037 A 
HETATM    9  C   UNL     1     -43.331  54.354 -56.317  1.00  0.00     0.070 C 
HETATM   10  C   UNL     1     -41.874  56.014 -55.043  1.00  0.00     0.062 A 
HETATM   11  H   UNL     1     -44.665  56.472 -56.726  1.00  0.00     0.184 HD
ENDROOT
BRANCH  10  12
HETATM   12  C   UNL     1     -40.939  54.908 -54.613  1.00  0.00     0.256 C 
HETATM   13  N   UNL     1     -41.474  53.940 -53.783  1.00  0.00    -0.323 N 
HETATM   14  H   UNL     1     -42.476  53.831 -53.776  1.00  0.00     0.169 HD
HETATM   15  O   UNL     1     -39.805  54.853 -55.083  1.00  0.00    -0.267 OA
BRANCH  13  16
HETATM   16  C   UNL     1     -40.778  52.769 -53.390  1.00  0.00     0.041 A 
HETATM   17  C   UNL     1     -40.123  52.603 -52.159  1.00  0.00    -0.035 A 
HETATM   18  C   UNL     1     -40.165  53.605 -51.038  1.00  0.00     0.050 C 
HETATM   19  C   UNL     1     -39.408  51.411 -51.929  1.00  0.00     0.009 A 
HETATM   20  C   UNL     1     -39.388  50.386 -52.876  1.00  0.00     0.001 A 
HETATM   21  C   UNL     1     -40.094  50.531 -54.063  1.00  0.00     0.002 A 
HETATM   22  C   UNL     1     -40.795  51.710 -54.314  1.00  0.00     0.030 A 
ENDBRANCH  13  16
ENDBRANCH  10  12
BRANCH   1  23
HETATM   23  C   UNL     1     -41.361  57.659 -53.111  1.00  0.00    -0.028 A 
HETATM   24  C   UNL     1     -40.282  58.406 -52.607  1.00  0.00     0.016 A 
HETATM   25  C   UNL     1     -40.147  58.640 -51.231  1.00  0.00    -0.061 A 
HETATM   26  C   UNL     1     -39.048  59.522 -50.714  1.00  0.00     0.048 C 
HETATM   27  C   UNL     1     -41.090  58.105 -50.348  1.00  0.00     0.007 A 
HETATM   28  C   UNL     1     -42.142  57.328 -50.827  1.00  0.00     0.001 A 
HETATM   29  C   UNL     1     -42.277  57.107 -52.196  1.00  0.00     0.010 A 
ENDBRANCH   1  23
BRANCH   5  30
HETATM   30  C   UNL     1     -44.061  61.533 -55.762  1.00  0.00     0.085 C 
BRANCH  30  31
HETATM   31  C   UNL     1     -43.022  62.404 -56.466  1.00  0.00     0.034 C 
BRANCH  31  32
HETATM   32  C   UNL     1     -42.359  61.744 -57.672  1.00  0.00     0.164 C 
BRANCH  32  33
HETATM   33  O   UNL     1     -41.032  61.339 -57.369  1.00  0.00    -0.401 OA
HETATM   34  H   UNL     1     -41.055  60.959 -56.469  1.00  0.00     0.209 HD
ENDBRANCH  32  33
ENDBRANCH  31  32
ENDBRANCH  30  31
ENDBRANCH   5  30
TORSDOF 7
ENDMDL
MODEL 2
REMARK VINA RESULT:      -8.0      2.908      4.540
REMARK  7 active torsions:
REMARK  status: ('A' for Active; 'I' for Inactive)
REMARK    1  A    between atoms: C_4  and  C_5 
REMARK    2  A    between atoms: C_9  and  C_10 
REMARK    3  A    between atoms: C_10  and  C_11 
REMARK    4  A    between atoms: C_11  and  C_12 
REMARK    5  A    between atoms: C_12  and  O_13 
REMARK    6  A    between atoms: C_18  and  C_19 
REMARK       I    between atoms: C_19  and  N_20 
REMARK    7  A    between atoms: N_20  and  C_21 
ROOT
HETATM    1  C   UNL     1     -43.851  56.631 -53.050  1.00  0.00     0.202 A 
HETATM    2  N   UNL     1     -44.095  58.055 -52.786  1.00  0.00    -0.083 N 
HETATM    3  C   UNL     1     -43.530  58.747 -51.755  1.00  0.00     0.726 A 
HETATM    4  N   UNL     1     -44.006  59.964 -51.726  1.00  0.00    -0.046 NA
HETATM    5  C   UNL     1     -44.920  59.960 -52.749  1.00  0.00     0.166 A 
HETATM    6  N   UNL     1     -45.023  58.805 -53.426  1.00  0.00    -0.140 NA
HETATM    7  N   UNL     1     -42.657  58.122 -50.950  1.00  0.00    -0.192 N 
HETATM    8  C   UNL     1     -42.333  56.774 -51.056  1.00  0.00     0.037 A 
HETATM    9  C   UNL     1     -41.401  56.264 -49.980  1.00  0.00     0.070 C 
HETATM   10  C   UNL     1     -42.871  56.009 -52.049  1.00  0.00     0.062 A 
HETATM   11  H   UNL     1     -42.255  58.644 -50.176  1.00  0.00     0.184 HD
ENDROOT
BRANCH  10  12
HETATM   12  C   UNL     1     -42.475  54.559 -52.188  1.00  0.00     0.256 C 
HETATM   13  N   UNL     1     -41.243  54.311 -52.765  1.00  0.00    -0.323 N 
HETATM   14  H   UNL     1     -40.564  55.056 -52.757  1.00  0.00     0.169 HD
HETATM   15  O   UNL     1     -43.190  53.683 -51.705  1.00  0.00    -0.267 OA
BRANCH  13  16
HETATM   16  C   UNL     1     -40.661  53.021 -52.855  1.00  0.00     0.041 A 
HETATM   17  C   UNL     1     -40.004  52.364 -51.802  1.00  0.00    -0.035 A 
HETATM   18  C   UNL     1     -39.926  52.892 -50.396  1.00  0.00     0.050 C 
HETATM   19  C   UNL     1     -39.408  51.112 -52.053  1.00  0.00     0.009 A 
HETATM   20  C   UNL     1     -39.508  50.503 -53.304  1.00  0.00     0.001 A 
HETATM   21  C   UNL     1     -40.217  51.128 -54.321  1.00  0.00     0.002 A 
HETATM   22  C   UNL     1     -40.801  52.374 -54.095  1.00  0.00     0.030 A 
ENDBRANCH  13  16
ENDBRANCH  10  12
BRANCH   1  23
HETATM   23  C   UNL     1     -43.500  56.426 -54.525  1.00  0.00    -0.028 A 
HETATM   24  C   UNL     1     -43.063  57.475 -55.353  1.00  0.00     0.016 A 
HETATM   25  C   UNL     1     -42.669  57.233 -56.676  1.00  0.00    -0.061 A 
HETATM   26  C   UNL     1     -42.111  58.343 -57.519  1.00  0.00     0.048 C 
HETATM   27  C   UNL     1     -42.731  55.931 -57.184  1.00  0.00     0.007 A 
HETATM   28  C   UNL     1     -43.201  54.888 -56.390  1.00  0.00     0.001 A 
HETATM   29  C   UNL     1     -43.581  55.132 -55.073  1.00  0.00     0.010 A 
ENDBRANCH   1  23
BRANCH   5  30
HETATM   30  C   UNL     1     -45.707  61.165 -53.114  1.00  0.00     0.085 C 
BRANCH  30  31
HETATM   31  C   UNL     1     -46.929  61.373 -52.219  1.00  0.00     0.034 C 
BRANCH  31  32
HETATM   32  C   UNL     1     -46.644  62.143 -50.933  1.00  0.00     0.164 C 
BRANCH  32  33
HETATM   33  O   UNL     1     -46.292  61.263 -49.876  1.00  0.00    -0.401 OA
HETATM   34  H   UNL     1     -46.620  60.378 -50.129  1.00  0.00     0.209 HD
ENDBRANCH  32  33
ENDBRANCH  31  32
ENDBRANCH  30  31
ENDBRANCH   5  30
TORSDOF 7
ENDMDL
MODEL 3
REMARK VINA RESULT:      -8.0      2.812      6.444
REMARK  7 active torsions:
REMARK  status: ('A' for Active; 'I' for Inactive)
REMARK    1  A    between atoms: C_4  and  C_5 
REMARK    2  A    between atoms: C_9  and  C_10 
REMARK    3  A    between atoms: C_10  and  C_11 
REMARK    4  A    between atoms: C_11  and  C_12 
REMARK    5  A    between atoms: C_12  and  O_13 
REMARK    6  A    between atoms: C_18  and  C_19 
REMARK       I    between atoms: C_19  and  N_20 
REMARK    7  A    between atoms: N_20  and  C_21 
ROOT
HETATM    1  C   UNL     1     -42.426  58.368 -55.053  1.00  0.00     0.202 A 
HETATM    2  N   UNL     1     -42.484  59.087 -53.774  1.00  0.00    -0.083 N 
HETATM    3  C   UNL     1     -43.356  60.102 -53.509  1.00  0.00     0.726 A 
HETATM    4  N   UNL     1     -43.107  60.602 -52.327  1.00  0.00    -0.046 NA
HETATM    5  C   UNL     1     -42.014  59.882 -51.914  1.00  0.00     0.166 A 
HETATM    6  N   UNL     1     -41.583  58.945 -52.773  1.00  0.00    -0.140 NA
HETATM    7  N   UNL     1     -44.259  60.447 -54.439  1.00  0.00    -0.192 N 
HETATM    8  C   UNL     1     -44.324  59.876 -55.705  1.00  0.00     0.037 A 
HETATM    9  C   UNL     1     -45.359  60.489 -56.621  1.00  0.00     0.070 C 
HETATM   10  C   UNL     1     -43.473  58.868 -56.055  1.00  0.00     0.062 A 
HETATM   11  H   UNL     1     -44.893  61.215 -54.235  1.00  0.00     0.184 HD
ENDROOT
BRANCH  10  12
HETATM   12  C   UNL     1     -43.584  58.219 -57.413  1.00  0.00     0.256 C 
HETATM   13  N   UNL     1     -44.498  57.187 -57.527  1.00  0.00    -0.323 N 
HETATM   14  H   UNL     1     -45.240  57.141 -56.847  1.00  0.00     0.169 HD
HETATM   15  O   UNL     1     -42.956  58.681 -58.362  1.00  0.00    -0.267 OA
BRANCH  13  16
HETATM   16  C   UNL     1     -44.821  56.555 -58.755  1.00  0.00     0.041 A 
HETATM   17  C   UNL     1     -45.904  56.910 -59.577  1.00  0.00    -0.035 A 
HETATM   18  C   UNL     1     -46.804  58.088 -59.325  1.00  0.00     0.050 C 
HETATM   19  C   UNL     1     -46.150  56.148 -60.736  1.00  0.00     0.009 A 
HETATM   20  C   UNL     1     -45.312  55.093 -61.099  1.00  0.00     0.001 A 
HETATM   21  C   UNL     1     -44.206  54.791 -60.316  1.00  0.00     0.002 A 
HETATM   22  C   UNL     1     -43.954  55.525 -59.157  1.00  0.00     0.030 A 
ENDBRANCH  13  16
ENDBRANCH  10  12
BRANCH   1  23
HETATM   23  C   UNL     1     -42.427  56.858 -54.803  1.00  0.00    -0.028 A 
HETATM   24  C   UNL     1     -41.331  56.036 -55.120  1.00  0.00     0.016 A 
HETATM   25  C   UNL     1     -41.335  54.672 -54.798  1.00  0.00    -0.061 A 
HETATM   26  C   UNL     1     -40.121  53.827 -55.051  1.00  0.00     0.048 C 
HETATM   27  C   UNL     1     -42.456  54.119 -54.170  1.00  0.00     0.007 A 
HETATM   28  C   UNL     1     -43.567  54.910 -53.887  1.00  0.00     0.001 A 
HETATM   29  C   UNL     1     -43.553  56.267 -54.199  1.00  0.00     0.010 A 
ENDBRANCH   1  23
BRANCH   5  30
HETATM   30  C   UNL     1     -41.382  60.092 -50.587  1.00  0.00     0.085 C 
BRANCH  30  31
HETATM   31  C   UNL     1     -40.280  59.077 -50.284  1.00  0.00     0.034 C 
BRANCH  31  32
HETATM   32  C   UNL     1     -38.865  59.586 -50.544  1.00  0.00     0.164 C 
BRANCH  32  33
HETATM   33  O   UNL     1     -38.545  59.528 -51.927  1.00  0.00    -0.401 OA
HETATM   34  H   UNL     1     -37.870  60.216 -52.085  1.00  0.00     0.209 HD
ENDBRANCH  32  33
ENDBRANCH  31  32
ENDBRANCH  30  31
ENDBRANCH   5  30
TORSDOF 7
ENDMDL
MODEL 4
REMARK VINA RESULT:      -7.8      1.824      2.142
REMARK  7 active torsions:
REMARK  status: ('A' for Active; 'I' for Inactive)
REMARK    1  A    between atoms: C_4  and  C_5 
REMARK    2  A    between atoms: C_9  and  C_10 
REMARK    3  A    between atoms: C_10  and  C_11 
REMARK    4  A    between atoms: C_11  and  C_12 
REMARK    5  A    between atoms: C_12  and  O_13 
REMARK    6  A    between atoms: C_18  and  C_19 
REMARK       I    between atoms: C_19  and  N_20 
REMARK    7  A    between atoms: N_20  and  C_21 
ROOT
HETATM    1  C   UNL     1     -41.915  57.849 -55.378  1.00  0.00     0.202 A 
HETATM    2  N   UNL     1     -42.166  58.924 -56.347  1.00  0.00    -0.083 N 
HETATM    3  C   UNL     1     -42.700  58.723 -57.587  1.00  0.00     0.726 A 
HETATM    4  N   UNL     1     -42.717  59.850 -58.249  1.00  0.00    -0.046 NA
HETATM    5  C   UNL     1     -42.122  60.727 -57.376  1.00  0.00     0.166 A 
HETATM    6  N   UNL     1     -41.753  60.204 -56.196  1.00  0.00    -0.140 NA
HETATM    7  N   UNL     1     -43.073  57.486 -57.945  1.00  0.00    -0.192 N 
HETATM    8  C   UNL     1     -42.887  56.360 -57.150  1.00  0.00     0.037 A 
HETATM    9  C   UNL     1     -43.296  55.056 -57.798  1.00  0.00     0.070 C 
HETATM   10  C   UNL     1     -42.342  56.474 -55.905  1.00  0.00     0.062 A 
HETATM   11  H   UNL     1     -43.455  57.347 -58.877  1.00  0.00     0.184 HD
ENDROOT
BRANCH  10  12
HETATM   12  C   UNL     1     -42.192  55.254 -55.028  1.00  0.00     0.256 C 
HETATM   13  N   UNL     1     -40.899  54.888 -54.701  1.00  0.00    -0.323 N 
HETATM   14  H   UNL     1     -40.181  55.592 -54.771  1.00  0.00     0.169 HD
HETATM   15  O   UNL     1     -43.192  54.710 -54.566  1.00  0.00    -0.267 OA
BRANCH  13  16
HETATM   16  C   UNL     1     -40.582  53.851 -53.788  1.00  0.00     0.041 A 
HETATM   17  C   UNL     1     -40.650  53.967 -52.390  1.00  0.00    -0.035 A 
HETATM   18  C   UNL     1     -41.179  55.176 -51.668  1.00  0.00     0.050 C 
HETATM   19  C   UNL     1     -40.236  52.876 -51.600  1.00  0.00     0.009 A 
HETATM   20  C   UNL     1     -39.816  51.680 -52.183  1.00  0.00     0.001 A 
HETATM   21  C   UNL     1     -39.815  51.550 -53.566  1.00  0.00     0.002 A 
HETATM   22  C   UNL     1     -40.208  52.625 -54.364  1.00  0.00     0.030 A 
ENDBRANCH  13  16
ENDBRANCH  10  12
BRANCH   1  23
HETATM   23  C   UNL     1     -42.488  58.235 -54.012  1.00  0.00    -0.028 A 
HETATM   24  C   UNL     1     -41.674  58.593 -52.923  1.00  0.00     0.016 A 
HETATM   25  C   UNL     1     -42.236  59.023 -51.714  1.00  0.00    -0.061 A 
HETATM   26  C   UNL     1     -41.358  59.497 -50.592  1.00  0.00     0.048 C 
HETATM   27  C   UNL     1     -43.628  59.076 -51.584  1.00  0.00     0.007 A 
HETATM   28  C   UNL     1     -44.449  58.684 -52.639  1.00  0.00     0.001 A 
HETATM   29  C   UNL     1     -43.885  58.268 -53.842  1.00  0.00     0.010 A 
ENDBRANCH   1  23
BRANCH   5  30
HETATM   30  C   UNL     1     -41.943  62.165 -57.697  1.00  0.00     0.085 C 
BRANCH  30  31
HETATM   31  C   UNL     1     -40.668  62.446 -58.491  1.00  0.00     0.034 C 
BRANCH  31  32
HETATM   32  C   UNL     1     -40.885  62.620 -59.991  1.00  0.00     0.164 C 
BRANCH  32  33
HETATM   33  O   UNL     1     -41.337  61.413 -60.587  1.00  0.00    -0.401 OA
HETATM   34  H   UNL     1     -41.968  61.668 -61.289  1.00  0.00     0.209 HD
ENDBRANCH  32  33
ENDBRANCH  31  32
ENDBRANCH  30  31
ENDBRANCH   5  30
TORSDOF 7
ENDMDL
MODEL 5
REMARK VINA RESULT:      -7.6      2.521      4.487
REMARK  7 active torsions:
REMARK  status: ('A' for Active; 'I' for Inactive)
REMARK    1  A    between atoms: C_4  and  C_5 
REMARK    2  A    between atoms: C_9  and  C_10 
REMARK    3  A    between atoms: C_10  and  C_11 
REMARK    4  A    between atoms: C_11  and  C_12 
REMARK    5  A    between atoms: C_12  and  O_13 
REMARK    6  A    between atoms: C_18  and  C_19 
REMARK       I    between atoms: C_19  and  N_20 
REMARK    7  A    between atoms: N_20  and  C_21 
ROOT
HETATM    1  C   UNL     1     -43.596  57.372 -53.022  1.00  0.00     0.202 A 
HETATM    2  N   UNL     1     -43.820  58.724 -52.494  1.00  0.00    -0.083 N 
HETATM    3  C   UNL     1     -43.321  59.171 -51.306  1.00  0.00     0.726 A 
HETATM    4  N   UNL     1     -43.764  60.377 -51.065  1.00  0.00    -0.046 NA
HETATM    5  C   UNL     1     -44.592  60.617 -52.133  1.00  0.00     0.166 A 
HETATM    6  N   UNL     1     -44.672  59.626 -53.036  1.00  0.00    -0.140 NA
HETATM    7  N   UNL     1     -42.534  58.361 -50.582  1.00  0.00    -0.192 N 
HETATM    8  C   UNL     1     -42.241  57.048 -50.934  1.00  0.00     0.037 A 
HETATM    9  C   UNL     1     -41.413  56.293 -49.918  1.00  0.00     0.070 C 
HETATM   10  C   UNL     1     -42.718  56.520 -52.098  1.00  0.00     0.062 A 
HETATM   11  H   UNL     1     -42.182  58.699 -49.690  1.00  0.00     0.184 HD
ENDROOT
BRANCH  10  12
HETATM   12  C   UNL     1     -42.352  55.111 -52.498  1.00  0.00     0.256 C 
HETATM   13  N   UNL     1     -41.004  54.846 -52.649  1.00  0.00    -0.323 N 
HETATM   14  H   UNL     1     -40.351  55.461 -52.190  1.00  0.00     0.169 HD
HETATM   15  O   UNL     1     -43.228  54.253 -52.571  1.00  0.00    -0.267 OA
BRANCH  13  16
HETATM   16  C   UNL     1     -40.479  53.552 -52.895  1.00  0.00     0.041 A 
HETATM   17  C   UNL     1     -40.268  53.002 -54.170  1.00  0.00    -0.035 A 
HETATM   18  C   UNL     1     -40.463  53.756 -55.457  1.00  0.00     0.050 C 
HETATM   19  C   UNL     1     -39.807  51.674 -54.266  1.00  0.00     0.009 A 
HETATM   20  C   UNL     1     -39.511  50.928 -53.126  1.00  0.00     0.001 A 
HETATM   21  C   UNL     1     -39.659  51.501 -51.869  1.00  0.00     0.002 A 
HETATM   22  C   UNL     1     -40.128  52.809 -51.754  1.00  0.00     0.030 A 
ENDBRANCH  13  16
ENDBRANCH  10  12
BRANCH   1  23
HETATM   23  C   UNL     1     -43.132  57.450 -54.478  1.00  0.00    -0.028 A 
HETATM   24  C   UNL     1     -43.338  56.406 -55.397  1.00  0.00     0.016 A 
HETATM   25  C   UNL     1     -42.976  56.548 -56.743  1.00  0.00    -0.061 A 
HETATM   26  C   UNL     1     -43.291  55.465 -57.734  1.00  0.00     0.048 C 
HETATM   27  C   UNL     1     -42.384  57.740 -57.172  1.00  0.00     0.007 A 
HETATM   28  C   UNL     1     -42.134  58.768 -56.267  1.00  0.00     0.001 A 
HETATM   29  C   UNL     1     -42.506  58.626 -54.933  1.00  0.00     0.010 A 
ENDBRANCH   1  23
BRANCH   5  30
HETATM   30  C   UNL     1     -45.313  61.904 -52.303  1.00  0.00     0.085 C 
BRANCH  30  31
HETATM   31  C   UNL     1     -46.683  61.738 -52.960  1.00  0.00     0.034 C 
BRANCH  31  32
HETATM   32  C   UNL     1     -46.719  62.103 -54.441  1.00  0.00     0.164 C 
BRANCH  32  33
HETATM   33  O   UNL     1     -46.441  60.972 -55.254  1.00  0.00    -0.401 OA
HETATM   34  H   UNL     1     -47.255  60.787 -55.763  1.00  0.00     0.209 HD
ENDBRANCH  32  33
ENDBRANCH  31  32
ENDBRANCH  30  31
ENDBRANCH   5  30
TORSDOF 7
ENDMDL
MODEL 6
REMARK VINA RESULT:      -7.6      1.849      2.515
REMARK  7 active torsions:
REMARK  status: ('A' for Active; 'I' for Inactive)
REMARK    1  A    between atoms: C_4  and  C_5 
REMARK    2  A    between atoms: C_9  and  C_10 
REMARK    3  A    between atoms: C_10  and  C_11 
REMARK    4  A    between atoms: C_11  and  C_12 
REMARK    5  A    between atoms: C_12  and  O_13 
REMARK    6  A    between atoms: C_18  and  C_19 
REMARK       I    between atoms: C_19  and  N_20 
REMARK    7  A    between atoms: N_20  and  C_21 
ROOT
HETATM    1  C   UNL     1     -41.953  57.884 -54.693  1.00  0.00     0.202 A 
HETATM    2  N   UNL     1     -42.148  58.767 -55.851  1.00  0.00    -0.083 N 
HETATM    3  C   UNL     1     -42.604  58.343 -57.065  1.00  0.00     0.726 A 
HETATM    4  N   UNL     1     -42.584  59.335 -57.916  1.00  0.00    -0.046 NA
HETATM    5  C   UNL     1     -42.047  60.360 -57.178  1.00  0.00     0.166 A 
HETATM    6  N   UNL     1     -41.749  60.060 -55.904  1.00  0.00    -0.140 NA
HETATM    7  N   UNL     1     -42.949  57.056 -57.220  1.00  0.00    -0.192 N 
HETATM    8  C   UNL     1     -42.809  56.091 -56.228  1.00  0.00     0.037 A 
HETATM    9  C   UNL     1     -43.171  54.688 -56.659  1.00  0.00     0.070 C 
HETATM   10  C   UNL     1     -42.342  56.431 -54.993  1.00  0.00     0.062 A 
HETATM   11  H   UNL     1     -43.272  56.749 -58.134  1.00  0.00     0.184 HD
ENDROOT
BRANCH  10  12
HETATM   12  C   UNL     1     -42.241  55.388 -53.906  1.00  0.00     0.256 C 
HETATM   13  N   UNL     1     -40.970  54.935 -53.606  1.00  0.00    -0.323 N 
HETATM   14  H   UNL     1     -40.191  55.521 -53.862  1.00  0.00     0.169 HD
HETATM   15  O   UNL     1     -43.246  55.065 -53.278  1.00  0.00    -0.267 OA
BRANCH  13  16
HETATM   16  C   UNL     1     -40.682  54.056 -52.531  1.00  0.00     0.041 A 
HETATM   17  C   UNL     1     -40.257  52.724 -52.678  1.00  0.00    -0.035 A 
HETATM   18  C   UNL     1     -39.940  52.081 -54.000  1.00  0.00     0.050 C 
HETATM   19  C   UNL     1     -40.076  51.941 -51.521  1.00  0.00     0.009 A 
HETATM   20  C   UNL     1     -40.259  52.481 -50.247  1.00  0.00     0.001 A 
HETATM   21  C   UNL     1     -40.613  53.816 -50.108  1.00  0.00     0.002 A 
HETATM   22  C   UNL     1     -40.811  54.603 -51.243  1.00  0.00     0.030 A 
ENDBRANCH  13  16
ENDBRANCH  10  12
BRANCH   1  23
HETATM   23  C   UNL     1     -42.610  58.496 -53.454  1.00  0.00    -0.028 A 
HETATM   24  C   UNL     1     -41.866  58.987 -52.366  1.00  0.00     0.016 A 
HETATM   25  C   UNL     1     -42.499  59.618 -51.287  1.00  0.00    -0.061 A 
HETATM   26  C   UNL     1     -41.688  60.226 -50.179  1.00  0.00     0.048 C 
HETATM   27  C   UNL     1     -43.892  59.743 -51.285  1.00  0.00     0.007 A 
HETATM   28  C   UNL     1     -44.647  59.225 -52.334  1.00  0.00     0.001 A 
HETATM   29  C   UNL     1     -44.012  58.608 -53.410  1.00  0.00     0.010 A 
ENDBRANCH   1  23
BRANCH   5  30
HETATM   30  C   UNL     1     -41.854  61.722 -57.737  1.00  0.00     0.085 C 
BRANCH  30  31
HETATM   31  C   UNL     1     -40.587  61.846 -58.584  1.00  0.00     0.034 C 
BRANCH  31  32
HETATM   32  C   UNL     1     -40.082  63.275 -58.756  1.00  0.00     0.164 C 
BRANCH  32  33
HETATM   33  O   UNL     1     -40.387  64.068 -57.618  1.00  0.00    -0.401 OA
HETATM   34  H   UNL     1     -41.362  64.133 -57.577  1.00  0.00     0.209 HD
ENDBRANCH  32  33
ENDBRANCH  31  32
ENDBRANCH  30  31
ENDBRANCH   5  30
TORSDOF 7
ENDMDL
MODEL 7
REMARK VINA RESULT:      -7.5      2.244      3.015
REMARK  7 active torsions:
REMARK  status: ('A' for Active; 'I' for Inactive)
REMARK    1  A    between atoms: C_4  and  C_5 
REMARK    2  A    between atoms: C_9  and  C_10 
REMARK    3  A    between atoms: C_10  and  C_11 
REMARK    4  A    between atoms: C_11  and  C_12 
REMARK    5  A    between atoms: C_12  and  O_13 
REMARK    6  A    between atoms: C_18  and  C_19 
REMARK       I    between atoms: C_19  and  N_20 
REMARK    7  A    between atoms: N_20  and  C_21 
ROOT
HETATM    1  C   UNL     1     -42.017  58.152 -54.600  1.00  0.00     0.202 A 
HETATM    2  N   UNL     1     -42.062  58.803 -55.915  1.00  0.00    -0.083 N 
HETATM    3  C   UNL     1     -42.300  58.143 -57.085  1.00  0.00     0.726 A 
HETATM    4  N   UNL     1     -42.187  58.971 -58.091  1.00  0.00    -0.046 NA
HETATM    5  C   UNL     1     -41.820  60.144 -57.482  1.00  0.00     0.166 A 
HETATM    6  N   UNL     1     -41.717  60.092 -56.144  1.00  0.00    -0.140 NA
HETATM    7  N   UNL     1     -42.560  56.828 -57.052  1.00  0.00    -0.192 N 
HETATM    8  C   UNL     1     -42.538  56.063 -55.890  1.00  0.00     0.037 A 
HETATM    9  C   UNL     1     -42.767  54.584 -56.105  1.00  0.00     0.070 C 
HETATM   10  C   UNL     1     -42.289  56.646 -54.682  1.00  0.00     0.062 A 
HETATM   11  H   UNL     1     -42.720  56.344 -57.931  1.00  0.00     0.184 HD
ENDROOT
BRANCH  10  12
HETATM   12  C   UNL     1     -42.318  55.817 -53.420  1.00  0.00     0.256 C 
HETATM   13  N   UNL     1     -41.092  55.486 -52.874  1.00  0.00    -0.323 N 
HETATM   14  H   UNL     1     -40.298  56.054 -53.127  1.00  0.00     0.169 HD
HETATM   15  O   UNL     1     -43.394  55.563 -52.884  1.00  0.00    -0.267 OA
BRANCH  13  16
HETATM   16  C   UNL     1     -40.937  54.826 -51.629  1.00  0.00     0.041 A 
HETATM   17  C   UNL     1     -40.938  55.466 -50.378  1.00  0.00    -0.035 A 
HETATM   18  C   UNL     1     -41.217  56.930 -50.180  1.00  0.00     0.050 C 
HETATM   19  C   UNL     1     -40.702  54.694 -49.224  1.00  0.00     0.009 A 
HETATM   20  C   UNL     1     -40.523  53.313 -49.303  1.00  0.00     0.001 A 
HETATM   21  C   UNL     1     -40.590  52.678 -50.536  1.00  0.00     0.002 A 
HETATM   22  C   UNL     1     -40.808  53.428 -51.691  1.00  0.00     0.030 A 
ENDBRANCH  13  16
ENDBRANCH  10  12
BRANCH   1  23
HETATM   23  C   UNL     1     -42.889  58.923 -53.606  1.00  0.00    -0.028 A 
HETATM   24  C   UNL     1     -42.358  59.573 -52.478  1.00  0.00     0.016 A 
HETATM   25  C   UNL     1     -43.176  60.341 -51.637  1.00  0.00    -0.061 A 
HETATM   26  C   UNL     1     -42.582  61.111 -50.494  1.00  0.00     0.048 C 
HETATM   27  C   UNL     1     -44.543  60.442 -51.915  1.00  0.00     0.007 A 
HETATM   28  C   UNL     1     -45.092  59.770 -53.004  1.00  0.00     0.001 A 
HETATM   29  C   UNL     1     -44.273  59.017 -53.842  1.00  0.00     0.010 A 
ENDBRANCH   1  23
BRANCH   5  30
HETATM   30  C   UNL     1     -41.599  61.398 -58.245  1.00  0.00     0.085 C 
BRANCH  30  31
HETATM   31  C   UNL     1     -42.821  61.823 -59.061  1.00  0.00     0.034 C 
BRANCH  31  32
HETATM   32  C   UNL     1     -42.704  61.551 -60.558  1.00  0.00     0.164 C 
BRANCH  32  33
HETATM   33  O   UNL     1     -41.686  60.599 -60.828  1.00  0.00    -0.401 OA
HETATM   34  H   UNL     1     -42.135  59.742 -60.966  1.00  0.00     0.209 HD
ENDBRANCH  32  33
ENDBRANCH  31  32
ENDBRANCH  30  31
ENDBRANCH   5  30
TORSDOF 7
ENDMDL
MODEL 8
REMARK VINA RESULT:      -7.2      2.228      7.475
REMARK  7 active torsions:
REMARK  status: ('A' for Active; 'I' for Inactive)
REMARK    1  A    between atoms: C_4  and  C_5 
REMARK    2  A    between atoms: C_9  and  C_10 
REMARK    3  A    between atoms: C_10  and  C_11 
REMARK    4  A    between atoms: C_11  and  C_12 
REMARK    5  A    between atoms: C_12  and  O_13 
REMARK    6  A    between atoms: C_18  and  C_19 
REMARK       I    between atoms: C_19  and  N_20 
REMARK    7  A    between atoms: N_20  and  C_21 
ROOT
HETATM    1  C   UNL     1     -42.450  55.215 -53.476  1.00  0.00     0.202 A 
HETATM    2  N   UNL     1     -41.458  54.212 -53.884  1.00  0.00    -0.083 N 
HETATM    3  C   UNL     1     -41.051  54.022 -55.172  1.00  0.00     0.726 A 
HETATM    4  N   UNL     1     -40.234  53.003 -55.233  1.00  0.00    -0.046 NA
HETATM    5  C   UNL     1     -40.208  52.554 -53.936  1.00  0.00     0.166 A 
HETATM    6  N   UNL     1     -40.955  53.256 -53.068  1.00  0.00    -0.140 NA
HETATM    7  N   UNL     1     -41.535  54.822 -56.135  1.00  0.00    -0.192 N 
HETATM    8  C   UNL     1     -42.492  55.806 -55.916  1.00  0.00     0.037 A 
HETATM    9  C   UNL     1     -42.960  56.519 -57.164  1.00  0.00     0.070 C 
HETATM   10  C   UNL     1     -42.964  56.045 -54.658  1.00  0.00     0.062 A 
HETATM   11  H   UNL     1     -41.236  54.660 -57.093  1.00  0.00     0.184 HD
ENDROOT
BRANCH  10  12
HETATM   12  C   UNL     1     -43.965  57.150 -54.421  1.00  0.00     0.256 C 
HETATM   13  N   UNL     1     -43.467  58.440 -54.417  1.00  0.00    -0.323 N 
HETATM   14  H   UNL     1     -42.584  58.603 -54.876  1.00  0.00     0.169 HD
HETATM   15  O   UNL     1     -45.162  56.882 -54.347  1.00  0.00    -0.267 OA
BRANCH  13  16
HETATM   16  C   UNL     1     -44.281  59.598 -54.337  1.00  0.00     0.041 A 
HETATM   17  C   UNL     1     -44.651  60.235 -53.141  1.00  0.00    -0.035 A 
HETATM   18  C   UNL     1     -44.141  59.842 -51.782  1.00  0.00     0.050 C 
HETATM   19  C   UNL     1     -45.526  61.338 -53.206  1.00  0.00     0.009 A 
HETATM   20  C   UNL     1     -45.979  61.830 -54.430  1.00  0.00     0.001 A 
HETATM   21  C   UNL     1     -45.555  61.236 -55.611  1.00  0.00     0.002 A 
HETATM   22  C   UNL     1     -44.701  60.134 -55.566  1.00  0.00     0.030 A 
ENDBRANCH  13  16
ENDBRANCH  10  12
BRANCH   1  23
HETATM   23  C   UNL     1     -41.918  56.023 -52.290  1.00  0.00    -0.028 A 
HETATM   24  C   UNL     1     -41.177  57.206 -52.451  1.00  0.00     0.016 A 
HETATM   25  C   UNL     1     -40.780  57.964 -51.341  1.00  0.00    -0.061 A 
HETATM   26  C   UNL     1     -40.075  59.277 -51.528  1.00  0.00     0.048 C 
HETATM   27  C   UNL     1     -41.110  57.524 -50.055  1.00  0.00     0.007 A 
HETATM   28  C   UNL     1     -41.808  56.332 -49.877  1.00  0.00     0.001 A 
HETATM   29  C   UNL     1     -42.209  55.588 -50.983  1.00  0.00     0.010 A 
ENDBRANCH   1  23
BRANCH   5  30
HETATM   30  C   UNL     1     -39.374  51.402 -53.513  1.00  0.00     0.085 C 
BRANCH  30  31
HETATM   31  C   UNL     1     -39.383  51.182 -52.000  1.00  0.00     0.034 C 
BRANCH  31  32
HETATM   32  C   UNL     1     -39.513  49.723 -51.576  1.00  0.00     0.164 C 
BRANCH  32  33
HETATM   33  O   UNL     1     -39.371  48.851 -52.688  1.00  0.00    -0.401 OA
HETATM   34  H   UNL     1     -40.225  48.865 -53.164  1.00  0.00     0.209 HD
ENDBRANCH  32  33
ENDBRANCH  31  32
ENDBRANCH  30  31
ENDBRANCH   5  30
TORSDOF 7
ENDMDL
MODEL 9
REMARK VINA RESULT:      -7.0      3.034      4.585
REMARK  7 active torsions:
REMARK  status: ('A' for Active; 'I' for Inactive)
REMARK    1  A    between atoms: C_4  and  C_5 
REMARK    2  A    between atoms: C_9  and  C_10 
REMARK    3  A    between atoms: C_10  and  C_11 
REMARK    4  A    between atoms: C_11  and  C_12 
REMARK    5  A    between atoms: C_12  and  O_13 
REMARK    6  A    between atoms: C_18  and  C_19 
REMARK       I    between atoms: C_19  and  N_20 
REMARK    7  A    between atoms: N_20  and  C_21 
ROOT
HETATM    1  C   UNL     1     -42.148  59.076 -57.579  1.00  0.00     0.202 A 
HETATM    2  N   UNL     1     -42.083  59.843 -58.829  1.00  0.00    -0.083 N 
HETATM    3  C   UNL     1     -42.250  59.297 -60.068  1.00  0.00     0.726 A 
HETATM    4  N   UNL     1     -42.047  60.208 -60.984  1.00  0.00    -0.046 NA
HETATM    5  C   UNL     1     -41.699  61.312 -60.246  1.00  0.00     0.166 A 
HETATM    6  N   UNL     1     -41.695  61.138 -58.914  1.00  0.00    -0.140 NA
HETATM    7  N   UNL     1     -42.539  57.992 -60.173  1.00  0.00    -0.192 N 
HETATM    8  C   UNL     1     -42.618  57.126 -59.088  1.00  0.00     0.037 A 
HETATM    9  C   UNL     1     -42.862  55.679 -59.453  1.00  0.00     0.070 C 
HETATM   10  C   UNL     1     -42.445  57.591 -57.817  1.00  0.00     0.062 A 
HETATM   11  H   UNL     1     -42.645  57.593 -61.103  1.00  0.00     0.184 HD
ENDROOT
BRANCH  10  12
HETATM   12  C   UNL     1     -42.583  56.654 -56.641  1.00  0.00     0.256 C 
HETATM   13  N   UNL     1     -41.406  56.184 -56.089  1.00  0.00    -0.323 N 
HETATM   14  H   UNL     1     -40.565  56.713 -56.259  1.00  0.00     0.169 HD
HETATM   15  O   UNL     1     -43.695  56.431 -56.168  1.00  0.00    -0.267 OA
BRANCH  13  16
HETATM   16  C   UNL     1     -41.349  55.403 -54.907  1.00  0.00     0.041 A 
HETATM   17  C   UNL     1     -41.314  55.924 -53.603  1.00  0.00    -0.035 A 
HETATM   18  C   UNL     1     -41.447  57.386 -53.275  1.00  0.00     0.050 C 
HETATM   19  C   UNL     1     -41.184  55.031 -52.522  1.00  0.00     0.009 A 
HETATM   20  C   UNL     1     -41.145  53.651 -52.724  1.00  0.00     0.001 A 
HETATM   21  C   UNL     1     -41.248  53.140 -54.011  1.00  0.00     0.002 A 
HETATM   22  C   UNL     1     -41.361  54.010 -55.096  1.00  0.00     0.030 A 
ENDBRANCH  13  16
ENDBRANCH  10  12
BRANCH   1  23
HETATM   23  C   UNL     1     -43.073  59.778 -56.582  1.00  0.00    -0.028 A 
HETATM   24  C   UNL     1     -42.615  60.292 -55.356  1.00  0.00     0.016 A 
HETATM   25  C   UNL     1     -43.474  61.004 -54.508  1.00  0.00    -0.061 A 
HETATM   26  C   UNL     1     -42.951  61.633 -53.249  1.00  0.00     0.048 C 
HETATM   27  C   UNL     1     -44.810  61.187 -54.880  1.00  0.00     0.007 A 
HETATM   28  C   UNL     1     -45.289  60.649 -56.071  1.00  0.00     0.001 A 
HETATM   29  C   UNL     1     -44.429  59.951 -56.915  1.00  0.00     0.010 A 
ENDBRANCH   1  23
BRANCH   5  30
HETATM   30  C   UNL     1     -41.398  62.622 -60.874  1.00  0.00     0.085 C 
BRANCH  30  31
HETATM   31  C   UNL     1     -39.951  63.068 -60.660  1.00  0.00     0.034 C 
BRANCH  31  32
HETATM   32  C   UNL     1     -39.138  63.207 -61.943  1.00  0.00     0.164 C 
BRANCH  32  33
HETATM   33  O   UNL     1     -39.685  62.413 -62.986  1.00  0.00    -0.401 OA
HETATM   34  H   UNL     1     -40.656  62.517 -62.935  1.00  0.00     0.209 HD
ENDBRANCH  32  33
ENDBRANCH  31  32
ENDBRANCH  30  31
ENDBRANCH   5  30
TORSDOF 7
ENDMDL
MODEL 10
REMARK VINA RESULT:      -6.9      2.506      3.344
REMARK  7 active torsions:
REMARK  status: ('A' for Active; 'I' for Inactive)
REMARK    1  A    between atoms: C_4  and  C_5 
REMARK    2  A    between atoms: C_9  and  C_10 
REMARK    3  A    between atoms: C_10  and  C_11 
REMARK    4  A    between atoms: C_11  and  C_12 
REMARK    5  A    between atoms: C_12  and  O_13 
REMARK    6  A    between atoms: C_18  and  C_19 
REMARK       I    between atoms: C_19  and  N_20 
REMARK    7  A    between atoms: N_20  and  C_21 
ROOT
HETATM    1  C   UNL     1     -42.383  58.018 -55.341  1.00  0.00     0.202 A 
HETATM    2  N   UNL     1     -43.280  58.387 -56.444  1.00  0.00    -0.083 N 
HETATM    3  C   UNL     1     -43.944  57.484 -57.221  1.00  0.00     0.726 A 
HETATM    4  N   UNL     1     -44.588  58.108 -58.172  1.00  0.00    -0.046 NA
HETATM    5  C   UNL     1     -44.240  59.419 -57.968  1.00  0.00     0.166 A 
HETATM    6  N   UNL     1     -43.426  59.645 -56.924  1.00  0.00    -0.140 NA
HETATM    7  N   UNL     1     -43.827  56.176 -56.947  1.00  0.00    -0.192 N 
HETATM    8  C   UNL     1     -43.006  55.664 -55.949  1.00  0.00     0.037 A 
HETATM    9  C   UNL     1     -42.958  54.154 -55.885  1.00  0.00     0.070 C 
HETATM   10  C   UNL     1     -42.293  56.501 -55.141  1.00  0.00     0.062 A 
HETATM   11  H   UNL     1     -44.315  55.512 -57.543  1.00  0.00     0.184 HD
ENDROOT
BRANCH  10  12
HETATM   12  C   UNL     1     -41.444  55.939 -54.026  1.00  0.00     0.256 C 
HETATM   13  N   UNL     1     -42.093  55.672 -52.835  1.00  0.00    -0.323 N 
HETATM   14  H   UNL     1     -43.093  55.550 -52.863  1.00  0.00     0.169 HD
HETATM   15  O   UNL     1     -40.269  55.651 -54.242  1.00  0.00    -0.267 OA
BRANCH  13  16
HETATM   16  C   UNL     1     -41.479  55.026 -51.732  1.00  0.00     0.041 A 
HETATM   17  C   UNL     1     -40.974  55.685 -50.598  1.00  0.00    -0.035 A 
HETATM   18  C   UNL     1     -41.117  57.160 -50.346  1.00  0.00     0.050 C 
HETATM   19  C   UNL     1     -40.323  54.922 -49.609  1.00  0.00     0.009 A 
HETATM   20  C   UNL     1     -40.223  53.535 -49.714  1.00  0.00     0.001 A 
HETATM   21  C   UNL     1     -40.784  52.884 -50.805  1.00  0.00     0.002 A 
HETATM   22  C   UNL     1     -41.419  53.624 -51.803  1.00  0.00     0.030 A 
ENDBRANCH  13  16
ENDBRANCH  10  12
BRANCH   1  23
HETATM   23  C   UNL     1     -42.738  58.824 -54.089  1.00  0.00    -0.028 A 
HETATM   24  C   UNL     1     -43.976  58.700 -53.433  1.00  0.00     0.016 A 
HETATM   25  C   UNL     1     -44.232  59.391 -52.241  1.00  0.00    -0.061 A 
HETATM   26  C   UNL     1     -45.518  59.175 -51.498  1.00  0.00     0.048 C 
HETATM   27  C   UNL     1     -43.248  60.231 -51.709  1.00  0.00     0.007 A 
HETATM   28  C   UNL     1     -42.033  60.397 -52.368  1.00  0.00     0.001 A 
HETATM   29  C   UNL     1     -41.779  59.700 -53.546  1.00  0.00     0.010 A 
ENDBRANCH   1  23
BRANCH   5  30
HETATM   30  C   UNL     1     -44.767  60.520 -58.814  1.00  0.00     0.085 C 
BRANCH  30  31
HETATM   31  C   UNL     1     -44.453  60.334 -60.298  1.00  0.00     0.034 C 
BRANCH  31  32
HETATM   32  C   UNL     1     -45.668  60.426 -61.216  1.00  0.00     0.164 C 
BRANCH  32  33
HETATM   33  O   UNL     1     -45.286  60.352 -62.582  1.00  0.00    -0.401 OA
HETATM   34  H   UNL     1     -44.828  61.191 -62.789  1.00  0.00     0.209 HD
ENDBRANCH  32  33
ENDBRANCH  31  32
ENDBRANCH  30  31
ENDBRANCH   5  30
TORSDOF 7
ENDMDL
