MODEL 1
REMARK VINA RESULT:      -8.2      0.000      0.000
REMARK  9 active torsions:
REMARK  status: ('A' for Active; 'I' for Inactive)
REMARK    1  A    between atoms: C_5  and  N_6 
REMARK       I    between atoms: N_6  and  C_7 
REMARK    2  A    between atoms: C_7  and  C_8 
REMARK    3  A    between atoms: C_8  and  S_9 
REMARK    4  A    between atoms: S_9  and  C_10 
REMARK    5  A    between atoms: C_11  and  C_12 
REMARK       I    between atoms: C_12  and  N_13 
REMARK    6  A    between atoms: N_13  and  C_14 
REMARK    7  A    between atoms: C_14  and  C_15 
REMARK    8  A    between atoms: C_15  and  N_16 
REMARK    9  A    between atoms: C_15  and  C_22 
ROOT
HETATM    1  C   UNL     1     -44.633  58.032 -51.874  1.00  0.00     0.016 A 
HETATM    2  C   UNL     1     -44.675  58.307 -53.250  1.00  0.00     0.048 A 
HETATM    3  C   UNL     1     -45.269  59.485 -53.734  1.00  0.00     0.018 A 
HETATM    4  C   UNL     1     -45.831  60.399 -52.848  1.00  0.00     0.001 A 
HETATM    5  C   UNL     1     -45.835  60.121 -51.484  1.00  0.00     0.001 A 
HETATM    6  C   UNL     1     -45.262  58.939 -51.008  1.00  0.00     0.019 A 
ENDROOT
BRANCH   2   7
HETATM    7  C   UNL     1     -44.169  57.379 -54.282  1.00  0.00     0.253 C 
HETATM    8  N   UNL     1     -43.051  57.798 -54.983  1.00  0.00    -0.354 N 
HETATM    9  H   UNL     1     -42.734  58.738 -54.770  1.00  0.00     0.162 HD
HETATM   10  O   UNL     1     -44.789  56.359 -54.552  1.00  0.00    -0.268 OA
BRANCH   8  11
HETATM   11  C   UNL     1     -42.843  57.311 -56.349  1.00  0.00     0.161 C 
BRANCH  11  12
HETATM   12  C   UNL     1     -43.796  57.907 -57.423  1.00  0.00     0.245 C 
BRANCH  12  13
HETATM   13  N   UNL     1     -43.333  59.184 -58.139  1.00  0.00    -0.061 N 
HETATM   14  H   UNL     1     -43.505  58.988 -59.134  1.00  0.00     0.280 HD
HETATM   15  C   UNL     1     -41.887  59.625 -58.059  1.00  0.00     0.236 C 
HETATM   16  C   UNL     1     -41.886  60.886 -57.210  1.00  0.00     0.029 C 
HETATM   17  C   UNL     1     -43.306  61.050 -56.701  1.00  0.00     0.029 C 
HETATM   18  C   UNL     1     -44.138  60.408 -57.784  1.00  0.00     0.236 C 
ENDBRANCH  12  13
BRANCH  12  19
HETATM   19  C   UNL     1     -44.148  56.841 -58.442  1.00  0.00     0.015 A 
HETATM   20  S   UNL     1     -45.515  57.034 -59.466  1.00  0.00    -0.104 SA
HETATM   21  C   UNL     1     -45.215  55.552 -60.257  1.00  0.00     0.050 A 
HETATM   22  C   UNL     1     -44.098  54.919 -59.763  1.00  0.00     0.008 A 
HETATM   23  C   UNL     1     -43.482  55.659 -58.711  1.00  0.00     0.017 A 
ENDBRANCH  12  19
ENDBRANCH  11  12
ENDBRANCH   8  11
ENDBRANCH   2   7
BRANCH   1  24
HETATM   24  S   UNL     1     -43.914  56.538 -51.202  1.00  0.00    -0.120 SA
BRANCH  24  25
HETATM   25  C   UNL     1     -42.131  56.955 -51.191  1.00  0.00     0.182 C 
BRANCH  25  26
HETATM   26  C   UNL     1     -41.339  56.078 -52.146  1.00  0.00     0.231 C 
HETATM   27  N   UNL     1     -41.156  54.790 -51.661  1.00  0.00    -0.327 N 
HETATM   28  H   UNL     1     -41.351  54.621 -50.684  1.00  0.00     0.169 HD
HETATM   29  O   UNL     1     -40.955  56.502 -53.231  1.00  0.00    -0.272 OA
BRANCH  27  30
HETATM   30  C   UNL     1     -40.748  53.657 -52.394  1.00  0.00     0.034 A 
HETATM   31  C   UNL     1     -41.176  53.372 -53.691  1.00  0.00     0.030 A 
HETATM   32  C   UNL     1     -40.791  52.182 -54.318  1.00  0.00     0.009 A 
HETATM   33  C   UNL     1     -39.975  51.259 -53.658  1.00  0.00    -0.062 A 
HETATM   34  C   UNL     1     -39.558  49.993 -54.345  1.00  0.00     0.048 C 
HETATM   35  C   UNL     1     -39.521  51.558 -52.371  1.00  0.00     0.009 A 
HETATM   36  C   UNL     1     -39.910  52.743 -51.742  1.00  0.00     0.030 A 
ENDBRANCH  27  30
ENDBRANCH  25  26
ENDBRANCH  24  25
ENDBRANCH   1  24
TORSDOF 9
ENDMDL
MODEL 2
REMARK VINA RESULT:      -8.0      2.573      4.337
REMARK  9 active torsions:
REMARK  status: ('A' for Active; 'I' for Inactive)
REMARK    1  A    between atoms: C_5  and  N_6 
REMARK       I    between atoms: N_6  and  C_7 
REMARK    2  A    between atoms: C_7  and  C_8 
REMARK    3  A    between atoms: C_8  and  S_9 
REMARK    4  A    between atoms: S_9  and  C_10 
REMARK    5  A    between atoms: C_11  and  C_12 
REMARK       I    between atoms: C_12  and  N_13 
REMARK    6  A    between atoms: N_13  and  C_14 
REMARK    7  A    between atoms: C_14  and  C_15 
REMARK    8  A    between atoms: C_15  and  N_16 
REMARK    9  A    between atoms: C_15  and  C_22 
ROOT
HETATM    1  C   UNL     1     -42.618  59.837 -52.220  1.00  0.00     0.016 A 
HETATM    2  C   UNL     1     -41.725  59.399 -53.211  1.00  0.00     0.048 A 
HETATM    3  C   UNL     1     -40.410  59.025 -52.885  1.00  0.00     0.018 A 
HETATM    4  C   UNL     1     -39.972  59.089 -51.565  1.00  0.00     0.001 A 
HETATM    5  C   UNL     1     -40.831  59.562 -50.578  1.00  0.00     0.001 A 
HETATM    6  C   UNL     1     -42.132  59.951 -50.909  1.00  0.00     0.019 A 
ENDROOT
BRANCH   2   7
HETATM    7  C   UNL     1     -42.062  59.354 -54.648  1.00  0.00     0.253 C 
HETATM    8  N   UNL     1     -42.608  58.168 -55.110  1.00  0.00    -0.354 N 
HETATM    9  H   UNL     1     -42.652  57.418 -54.427  1.00  0.00     0.162 HD
HETATM   10  O   UNL     1     -41.762  60.286 -55.382  1.00  0.00    -0.268 OA
BRANCH   8  11
HETATM   11  C   UNL     1     -42.412  57.792 -56.511  1.00  0.00     0.161 C 
BRANCH  11  12
HETATM   12  C   UNL     1     -42.885  56.361 -56.891  1.00  0.00     0.245 C 
BRANCH  12  13
HETATM   13  N   UNL     1     -42.669  55.914 -58.344  1.00  0.00    -0.061 N 
HETATM   14  H   UNL     1     -41.855  55.287 -58.294  1.00  0.00     0.280 HD
HETATM   15  C   UNL     1     -42.330  56.929 -59.415  1.00  0.00     0.236 C 
HETATM   16  C   UNL     1     -43.556  57.008 -60.312  1.00  0.00     0.029 C 
HETATM   17  C   UNL     1     -44.618  56.152 -59.647  1.00  0.00     0.029 C 
HETATM   18  C   UNL     1     -43.811  55.110 -58.911  1.00  0.00     0.236 C 
ENDBRANCH  12  13
BRANCH  12  19
HETATM   19  C   UNL     1     -42.269  55.350 -55.942  1.00  0.00     0.015 A 
HETATM   20  S   UNL     1     -43.212  54.053 -55.322  1.00  0.00    -0.104 SA
HETATM   21  C   UNL     1     -41.891  53.425 -54.443  1.00  0.00     0.050 A 
HETATM   22  C   UNL     1     -40.751  54.176 -54.616  1.00  0.00     0.008 A 
HETATM   23  C   UNL     1     -40.968  55.291 -55.477  1.00  0.00     0.017 A 
ENDBRANCH  12  19
ENDBRANCH  11  12
ENDBRANCH   8  11
ENDBRANCH   2   7
BRANCH   1  24
HETATM   24  S   UNL     1     -44.294  60.348 -52.578  1.00  0.00    -0.120 SA
BRANCH  24  25
HETATM   25  C   UNL     1     -45.122  58.741 -52.869  1.00  0.00     0.182 C 
BRANCH  25  26
HETATM   26  C   UNL     1     -44.665  57.683 -51.879  1.00  0.00     0.231 C 
HETATM   27  N   UNL     1     -43.935  56.668 -52.482  1.00  0.00    -0.327 N 
HETATM   28  H   UNL     1     -43.961  56.601 -53.490  1.00  0.00     0.169 HD
HETATM   29  O   UNL     1     -44.914  57.779 -50.682  1.00  0.00    -0.272 OA
BRANCH  27  30
HETATM   30  C   UNL     1     -43.119  55.714 -51.842  1.00  0.00     0.034 A 
HETATM   31  C   UNL     1     -43.573  54.475 -51.390  1.00  0.00     0.030 A 
HETATM   32  C   UNL     1     -42.718  53.620 -50.688  1.00  0.00     0.009 A 
HETATM   33  C   UNL     1     -41.396  53.990 -50.426  1.00  0.00    -0.062 A 
HETATM   34  C   UNL     1     -40.484  53.058 -49.684  1.00  0.00     0.048 C 
HETATM   35  C   UNL     1     -40.930  55.217 -50.905  1.00  0.00     0.009 A 
HETATM   36  C   UNL     1     -41.786  56.074 -51.600  1.00  0.00     0.030 A 
ENDBRANCH  27  30
ENDBRANCH  25  26
ENDBRANCH  24  25
ENDBRANCH   1  24
TORSDOF 9
ENDMDL
MODEL 3
REMARK VINA RESULT:      -7.8      2.058      3.339
REMARK  9 active torsions:
REMARK  status: ('A' for Active; 'I' for Inactive)
REMARK    1  A    between atoms: C_5  and  N_6 
REMARK       I    between atoms: N_6  and  C_7 
REMARK    2  A    between atoms: C_7  and  C_8 
REMARK    3  A    between atoms: C_8  and  S_9 
REMARK    4  A    between atoms: S_9  and  C_10 
REMARK    5  A    between atoms: C_11  and  C_12 
REMARK       I    between atoms: C_12  and  N_13 
REMARK    6  A    between atoms: N_13  and  C_14 
REMARK    7  A    between atoms: C_14  and  C_15 
REMARK    8  A    between atoms: C_15  and  N_16 
REMARK    9  A    between atoms: C_15  and  C_22 
ROOT
HETATM    1  C   UNL     1     -41.763  58.845 -51.301  1.00  0.00     0.016 A 
HETATM    2  C   UNL     1     -42.725  58.848 -52.323  1.00  0.00     0.048 A 
HETATM    3  C   UNL     1     -43.568  59.955 -52.520  1.00  0.00     0.018 A 
HETATM    4  C   UNL     1     -43.460  61.070 -51.694  1.00  0.00     0.001 A 
HETATM    5  C   UNL     1     -42.541  61.066 -50.649  1.00  0.00     0.001 A 
HETATM    6  C   UNL     1     -41.719  59.955 -50.444  1.00  0.00     0.019 A 
ENDROOT
BRANCH   2   7
HETATM    7  C   UNL     1     -42.969  57.695 -53.214  1.00  0.00     0.253 C 
HETATM    8  N   UNL     1     -42.217  57.654 -54.376  1.00  0.00    -0.354 N 
HETATM    9  H   UNL     1     -41.624  58.462 -54.538  1.00  0.00     0.162 HD
HETATM   10  O   UNL     1     -43.867  56.902 -52.966  1.00  0.00    -0.268 OA
BRANCH   8  11
HETATM   11  C   UNL     1     -42.762  56.973 -55.553  1.00  0.00     0.161 C 
BRANCH  11  12
HETATM   12  C   UNL     1     -43.040  57.883 -56.782  1.00  0.00     0.245 C 
BRANCH  12  13
HETATM   13  N   UNL     1     -43.720  57.234 -57.996  1.00  0.00    -0.061 N 
HETATM   14  H   UNL     1     -44.713  57.190 -57.731  1.00  0.00     0.280 HD
HETATM   15  C   UNL     1     -43.353  55.827 -58.417  1.00  0.00     0.236 C 
HETATM   16  C   UNL     1     -42.610  55.971 -59.737  1.00  0.00     0.029 C 
HETATM   17  C   UNL     1     -42.440  57.462 -59.961  1.00  0.00     0.029 C 
HETATM   18  C   UNL     1     -43.635  58.057 -59.256  1.00  0.00     0.236 C 
ENDBRANCH  12  13
BRANCH  12  19
HETATM   19  C   UNL     1     -43.821  59.108 -56.345  1.00  0.00     0.015 A 
HETATM   20  S   UNL     1     -43.091  60.664 -56.382  1.00  0.00    -0.104 SA
HETATM   21  C   UNL     1     -44.514  61.419 -55.819  1.00  0.00     0.050 A 
HETATM   22  C   UNL     1     -45.530  60.515 -55.609  1.00  0.00     0.008 A 
HETATM   23  C   UNL     1     -45.131  59.179 -55.908  1.00  0.00     0.017 A 
ENDBRANCH  12  19
ENDBRANCH  11  12
ENDBRANCH   8  11
ENDBRANCH   2   7
BRANCH   1  24
HETATM   24  S   UNL     1     -40.681  57.456 -50.987  1.00  0.00    -0.120 SA
BRANCH  24  25
HETATM   25  C   UNL     1     -41.787  56.319 -50.073  1.00  0.00     0.182 C 
BRANCH  25  26
HETATM   26  C   UNL     1     -41.957  54.994 -50.796  1.00  0.00     0.231 C 
HETATM   27  N   UNL     1     -40.949  54.756 -51.719  1.00  0.00    -0.327 N 
HETATM   28  H   UNL     1     -40.355  55.530 -51.981  1.00  0.00     0.169 HD
HETATM   29  O   UNL     1     -42.886  54.237 -50.531  1.00  0.00    -0.272 OA
BRANCH  27  30
HETATM   30  C   UNL     1     -40.628  53.526 -52.329  1.00  0.00     0.034 A 
HETATM   31  C   UNL     1     -39.883  52.520 -51.713  1.00  0.00     0.030 A 
HETATM   32  C   UNL     1     -39.536  51.363 -52.417  1.00  0.00     0.009 A 
HETATM   33  C   UNL     1     -39.927  51.193 -53.748  1.00  0.00    -0.062 A 
HETATM   34  C   UNL     1     -39.561  49.941 -54.488  1.00  0.00     0.048 C 
HETATM   35  C   UNL     1     -40.700  52.185 -54.357  1.00  0.00     0.009 A 
HETATM   36  C   UNL     1     -41.040  53.344 -53.656  1.00  0.00     0.030 A 
ENDBRANCH  27  30
ENDBRANCH  25  26
ENDBRANCH  24  25
ENDBRANCH   1  24
TORSDOF 9
ENDMDL
MODEL 4
REMARK VINA RESULT:      -7.8      3.102      5.361
REMARK  9 active torsions:
REMARK  status: ('A' for Active; 'I' for Inactive)
REMARK    1  A    between atoms: C_5  and  N_6 
REMARK       I    between atoms: N_6  and  C_7 
REMARK    2  A    between atoms: C_7  and  C_8 
REMARK    3  A    between atoms: C_8  and  S_9 
REMARK    4  A    between atoms: S_9  and  C_10 
REMARK    5  A    between atoms: C_11  and  C_12 
REMARK       I    between atoms: C_12  and  N_13 
REMARK    6  A    between atoms: N_13  and  C_14 
REMARK    7  A    between atoms: C_14  and  C_15 
REMARK    8  A    between atoms: C_15  and  N_16 
REMARK    9  A    between atoms: C_15  and  C_22 
ROOT
HETATM    1  C   UNL     1     -42.860  56.196 -51.513  1.00  0.00     0.016 A 
HETATM    2  C   UNL     1     -41.828  56.795 -50.773  1.00  0.00     0.048 A 
HETATM    3  C   UNL     1     -41.214  56.113 -49.709  1.00  0.00     0.018 A 
HETATM    4  C   UNL     1     -41.626  54.827 -49.371  1.00  0.00     0.001 A 
HETATM    5  C   UNL     1     -42.675  54.237 -50.068  1.00  0.00     0.001 A 
HETATM    6  C   UNL     1     -43.298  54.925 -51.112  1.00  0.00     0.019 A 
ENDROOT
BRANCH   2   7
HETATM    7  C   UNL     1     -41.358  58.176 -51.001  1.00  0.00     0.253 C 
HETATM    8  N   UNL     1     -42.067  59.175 -50.357  1.00  0.00    -0.354 N 
HETATM    9  H   UNL     1     -42.889  58.864 -49.849  1.00  0.00     0.162 HD
HETATM   10  O   UNL     1     -40.463  58.398 -51.805  1.00  0.00    -0.268 OA
BRANCH   8  11
HETATM   11  C   UNL     1     -42.107  60.514 -50.949  1.00  0.00     0.161 C 
BRANCH  11  12
HETATM   12  C   UNL     1     -43.453  60.907 -51.622  1.00  0.00     0.245 C 
BRANCH  12  13
HETATM   13  N   UNL     1     -43.985  62.321 -51.351  1.00  0.00    -0.061 N 
HETATM   14  H   UNL     1     -44.304  62.649 -52.272  1.00  0.00     0.280 HD
HETATM   15  C   UNL     1     -43.059  63.403 -50.837  1.00  0.00     0.236 C 
HETATM   16  C   UNL     1     -43.493  63.674 -49.405  1.00  0.00     0.029 C 
HETATM   17  C   UNL     1     -44.555  62.638 -49.086  1.00  0.00     0.029 C 
HETATM   18  C   UNL     1     -45.179  62.357 -50.432  1.00  0.00     0.236 C 
ENDBRANCH  12  13
BRANCH  12  19
HETATM   19  C   UNL     1     -43.366  60.664 -53.116  1.00  0.00     0.015 A 
HETATM   20  S   UNL     1     -44.793  60.610 -54.073  1.00  0.00    -0.104 SA
HETATM   21  C   UNL     1     -43.904  60.351 -55.506  1.00  0.00     0.050 A 
HETATM   22  C   UNL     1     -42.548  60.310 -55.272  1.00  0.00     0.008 A 
HETATM   23  C   UNL     1     -42.235  60.486 -53.892  1.00  0.00     0.017 A 
ENDBRANCH  12  19
ENDBRANCH  11  12
ENDBRANCH   8  11
ENDBRANCH   2   7
BRANCH   1  24
HETATM   24  S   UNL     1     -43.697  57.024 -52.860  1.00  0.00    -0.120 SA
BRANCH  24  25
HETATM   25  C   UNL     1     -42.581  56.669 -54.268  1.00  0.00     0.182 C 
BRANCH  25  26
HETATM   26  C   UNL     1     -42.325  55.180 -54.426  1.00  0.00     0.231 C 
HETATM   27  N   UNL     1     -41.052  54.810 -54.014  1.00  0.00    -0.327 N 
HETATM   28  H   UNL     1     -40.371  55.542 -53.870  1.00  0.00     0.169 HD
HETATM   29  O   UNL     1     -43.195  54.424 -54.845  1.00  0.00    -0.272 OA
BRANCH  27  30
HETATM   30  C   UNL     1     -40.594  53.506 -53.739  1.00  0.00     0.034 A 
HETATM   31  C   UNL     1     -40.534  52.484 -54.686  1.00  0.00     0.030 A 
HETATM   32  C   UNL     1     -40.147  51.193 -54.311  1.00  0.00     0.009 A 
HETATM   33  C   UNL     1     -39.816  50.904 -52.985  1.00  0.00    -0.062 A 
HETATM   34  C   UNL     1     -39.389  49.519 -52.598  1.00  0.00     0.048 C 
HETATM   35  C   UNL     1     -39.846  51.933 -52.041  1.00  0.00     0.009 A 
HETATM   36  C   UNL     1     -40.239  53.221 -52.413  1.00  0.00     0.030 A 
ENDBRANCH  27  30
ENDBRANCH  25  26
ENDBRANCH  24  25
ENDBRANCH   1  24
TORSDOF 9
ENDMDL
MODEL 5
REMARK VINA RESULT:      -7.6      1.933      3.566
REMARK  9 active torsions:
REMARK  status: ('A' for Active; 'I' for Inactive)
REMARK    1  A    between atoms: C_5  and  N_6 
REMARK       I    between atoms: N_6  and  C_7 
REMARK    2  A    between atoms: C_7  and  C_8 
REMARK    3  A    between atoms: C_8  and  S_9 
REMARK    4  A    between atoms: S_9  and  C_10 
REMARK    5  A    between atoms: C_11  and  C_12 
REMARK       I    between atoms: C_12  and  N_13 
REMARK    6  A    between atoms: N_13  and  C_14 
REMARK    7  A    between atoms: C_14  and  C_15 
REMARK    8  A    between atoms: C_15  and  N_16 
REMARK    9  A    between atoms: C_15  and  C_22 
ROOT
HETATM    1  C   UNL     1     -42.304  57.866 -51.775  1.00  0.00     0.016 A 
HETATM    2  C   UNL     1     -42.093  58.275 -53.101  1.00  0.00     0.048 A 
HETATM    3  C   UNL     1     -40.889  58.891 -53.484  1.00  0.00     0.018 A 
HETATM    4  C   UNL     1     -39.885  59.106 -52.544  1.00  0.00     0.001 A 
HETATM    5  C   UNL     1     -40.096  58.745 -51.217  1.00  0.00     0.001 A 
HETATM    6  C   UNL     1     -41.302  58.152 -50.836  1.00  0.00     0.019 A 
ENDROOT
BRANCH   2   7
HETATM    7  C   UNL     1     -43.112  58.156 -54.162  1.00  0.00     0.253 C 
HETATM    8  N   UNL     1     -43.035  57.024 -54.957  1.00  0.00    -0.354 N 
HETATM    9  H   UNL     1     -42.237  56.423 -54.777  1.00  0.00     0.162 HD
HETATM   10  O   UNL     1     -43.896  59.072 -54.373  1.00  0.00    -0.268 OA
BRANCH   8  11
HETATM   11  C   UNL     1     -43.539  57.082 -56.330  1.00  0.00     0.161 C 
BRANCH  11  12
HETATM   12  C   UNL     1     -42.485  57.445 -57.414  1.00  0.00     0.245 C 
BRANCH  12  13
HETATM   13  N   UNL     1     -42.460  56.583 -58.684  1.00  0.00    -0.061 N 
HETATM   14  H   UNL     1     -41.534  56.136 -58.664  1.00  0.00     0.280 HD
HETATM   15  C   UNL     1     -42.566  57.228 -60.049  1.00  0.00     0.236 C 
HETATM   16  C   UNL     1     -43.929  56.826 -60.592  1.00  0.00     0.029 C 
HETATM   17  C   UNL     1     -44.628  56.089 -59.465  1.00  0.00     0.029 C 
HETATM   18  C   UNL     1     -43.485  55.478 -58.691  1.00  0.00     0.236 C 
ENDBRANCH  12  13
BRANCH  12  19
HETATM   19  C   UNL     1     -42.618  58.910 -57.785  1.00  0.00     0.015 A 
HETATM   20  S   UNL     1     -44.172  59.627 -57.949  1.00  0.00    -0.104 SA
HETATM   21  C   UNL     1     -43.503  61.153 -58.317  1.00  0.00     0.050 A 
HETATM   22  C   UNL     1     -42.127  61.128 -58.313  1.00  0.00     0.008 A 
HETATM   23  C   UNL     1     -41.614  59.833 -58.010  1.00  0.00     0.017 A 
ENDBRANCH  12  19
ENDBRANCH  11  12
ENDBRANCH   8  11
ENDBRANCH   2   7
BRANCH   1  24
HETATM   24  S   UNL     1     -43.825  57.101 -51.224  1.00  0.00    -0.120 SA
BRANCH  24  25
HETATM   25  C   UNL     1     -43.200  55.651 -50.298  1.00  0.00     0.182 C 
BRANCH  25  26
HETATM   26  C   UNL     1     -42.997  54.447 -51.203  1.00  0.00     0.231 C 
HETATM   27  N   UNL     1     -41.705  54.367 -51.703  1.00  0.00    -0.327 N 
HETATM   28  H   UNL     1     -41.113  55.181 -51.617  1.00  0.00     0.169 HD
HETATM   29  O   UNL     1     -43.901  53.644 -51.409  1.00  0.00    -0.272 OA
BRANCH  27  30
HETATM   30  C   UNL     1     -41.096  53.248 -52.307  1.00  0.00     0.034 A 
HETATM   31  C   UNL     1     -40.221  52.385 -51.647  1.00  0.00     0.030 A 
HETATM   32  C   UNL     1     -39.593  51.346 -52.341  1.00  0.00     0.009 A 
HETATM   33  C   UNL     1     -39.828  51.155 -53.705  1.00  0.00    -0.062 A 
HETATM   34  C   UNL     1     -39.159  50.029 -54.436  1.00  0.00     0.048 C 
HETATM   35  C   UNL     1     -40.727  51.999 -54.361  1.00  0.00     0.009 A 
HETATM   36  C   UNL     1     -41.350  53.041 -53.669  1.00  0.00     0.030 A 
ENDBRANCH  27  30
ENDBRANCH  25  26
ENDBRANCH  24  25
ENDBRANCH   1  24
TORSDOF 9
ENDMDL
MODEL 6
REMARK VINA RESULT:      -7.5      2.097      7.813
REMARK  9 active torsions:
REMARK  status: ('A' for Active; 'I' for Inactive)
REMARK    1  A    between atoms: C_5  and  N_6 
REMARK       I    between atoms: N_6  and  C_7 
REMARK    2  A    between atoms: C_7  and  C_8 
REMARK    3  A    between atoms: C_8  and  S_9 
REMARK    4  A    between atoms: S_9  and  C_10 
REMARK    5  A    between atoms: C_11  and  C_12 
REMARK       I    between atoms: C_12  and  N_13 
REMARK    6  A    between atoms: N_13  and  C_14 
REMARK    7  A    between atoms: C_14  and  C_15 
REMARK    8  A    between atoms: C_15  and  N_16 
REMARK    9  A    between atoms: C_15  and  C_22 
ROOT
HETATM    1  C   UNL     1     -42.421  58.064 -57.810  1.00  0.00     0.016 A 
HETATM    2  C   UNL     1     -42.765  56.806 -57.291  1.00  0.00     0.048 A 
HETATM    3  C   UNL     1     -43.011  55.715 -58.142  1.00  0.00     0.018 A 
HETATM    4  C   UNL     1     -42.919  55.871 -59.522  1.00  0.00     0.001 A 
HETATM    5  C   UNL     1     -42.620  57.122 -60.054  1.00  0.00     0.001 A 
HETATM    6  C   UNL     1     -42.397  58.209 -59.205  1.00  0.00     0.019 A 
ENDROOT
BRANCH   2   7
HETATM    7  C   UNL     1     -42.954  56.544 -55.850  1.00  0.00     0.253 C 
HETATM    8  N   UNL     1     -42.014  55.723 -55.251  1.00  0.00    -0.354 N 
HETATM    9  H   UNL     1     -41.328  55.320 -55.881  1.00  0.00     0.162 HD
HETATM   10  O   UNL     1     -43.954  56.953 -55.274  1.00  0.00    -0.268 OA
BRANCH   8  11
HETATM   11  C   UNL     1     -42.402  54.930 -54.082  1.00  0.00     0.161 C 
BRANCH  11  12
HETATM   12  C   UNL     1     -41.367  54.900 -52.922  1.00  0.00     0.245 C 
BRANCH  12  13
HETATM   13  N   UNL     1     -41.885  55.222 -51.513  1.00  0.00    -0.061 N 
HETATM   14  H   UNL     1     -41.422  54.528 -50.912  1.00  0.00     0.280 HD
HETATM   15  C   UNL     1     -43.361  55.108 -51.195  1.00  0.00     0.236 C 
HETATM   16  C   UNL     1     -43.851  56.533 -50.989  1.00  0.00     0.029 C 
HETATM   17  C   UNL     1     -42.681  57.433 -51.342  1.00  0.00     0.029 C 
HETATM   18  C   UNL     1     -41.479  56.584 -51.010  1.00  0.00     0.236 C 
ENDBRANCH  12  13
BRANCH  12  19
HETATM   19  C   UNL     1     -40.646  53.566 -52.916  1.00  0.00     0.015 A 
HETATM   20  S   UNL     1     -40.111  52.874 -51.436  1.00  0.00    -0.104 SA
HETATM   21  C   UNL     1     -39.485  51.498 -52.228  1.00  0.00     0.050 A 
HETATM   22  C   UNL     1     -39.678  51.554 -53.589  1.00  0.00     0.008 A 
HETATM   23  C   UNL     1     -40.344  52.749 -53.990  1.00  0.00     0.017 A 
ENDBRANCH  12  19
ENDBRANCH  11  12
ENDBRANCH   8  11
ENDBRANCH   2   7
BRANCH   1  24
HETATM   24  S   UNL     1     -42.122  59.494 -56.778  1.00  0.00    -0.120 SA
BRANCH  24  25
HETATM   25  C   UNL     1     -43.618  60.502 -57.093  1.00  0.00     0.182 C 
BRANCH  25  26
HETATM   26  C   UNL     1     -44.482  60.635 -55.851  1.00  0.00     0.231 C 
HETATM   27  N   UNL     1     -43.917  60.025 -54.740  1.00  0.00    -0.327 N 
HETATM   28  H   UNL     1     -43.144  59.391 -54.890  1.00  0.00     0.169 HD
HETATM   29  O   UNL     1     -45.541  61.253 -55.874  1.00  0.00    -0.272 OA
BRANCH  27  30
HETATM   30  C   UNL     1     -44.283  60.211 -53.391  1.00  0.00     0.034 A 
HETATM   31  C   UNL     1     -43.525  60.933 -52.470  1.00  0.00     0.030 A 
HETATM   32  C   UNL     1     -43.915  61.000 -51.128  1.00  0.00     0.009 A 
HETATM   33  C   UNL     1     -45.068  60.344 -50.687  1.00  0.00    -0.062 A 
HETATM   34  C   UNL     1     -45.484  60.434 -49.249  1.00  0.00     0.048 C 
HETATM   35  C   UNL     1     -45.845  59.646 -51.615  1.00  0.00     0.009 A 
HETATM   36  C   UNL     1     -45.451  59.574 -52.953  1.00  0.00     0.030 A 
ENDBRANCH  27  30
ENDBRANCH  25  26
ENDBRANCH  24  25
ENDBRANCH   1  24
TORSDOF 9
ENDMDL
MODEL 7
REMARK VINA RESULT:      -7.4      1.969      3.695
REMARK  9 active torsions:
REMARK  status: ('A' for Active; 'I' for Inactive)
REMARK    1  A    between atoms: C_5  and  N_6 
REMARK       I    between atoms: N_6  and  C_7 
REMARK    2  A    between atoms: C_7  and  C_8 
REMARK    3  A    between atoms: C_8  and  S_9 
REMARK    4  A    between atoms: S_9  and  C_10 
REMARK    5  A    between atoms: C_11  and  C_12 
REMARK       I    between atoms: C_12  and  N_13 
REMARK    6  A    between atoms: N_13  and  C_14 
REMARK    7  A    between atoms: C_14  and  C_15 
REMARK    8  A    between atoms: C_15  and  N_16 
REMARK    9  A    between atoms: C_15  and  C_22 
ROOT
HETATM    1  C   UNL     1     -43.201  57.699 -53.510  1.00  0.00     0.016 A 
HETATM    2  C   UNL     1     -44.307  58.561 -53.569  1.00  0.00     0.048 A 
HETATM    3  C   UNL     1     -45.216  58.644 -52.501  1.00  0.00     0.018 A 
HETATM    4  C   UNL     1     -45.031  57.864 -51.363  1.00  0.00     0.001 A 
HETATM    5  C   UNL     1     -43.963  56.974 -51.307  1.00  0.00     0.001 A 
HETATM    6  C   UNL     1     -43.073  56.879 -52.379  1.00  0.00     0.019 A 
ENDROOT
BRANCH   2   7
HETATM    7  C   UNL     1     -44.636  59.383 -54.751  1.00  0.00     0.253 C 
HETATM    8  N   UNL     1     -45.408  58.770 -55.724  1.00  0.00    -0.354 N 
HETATM    9  H   UNL     1     -45.608  57.788 -55.562  1.00  0.00     0.162 HD
HETATM   10  O   UNL     1     -44.148  60.497 -54.884  1.00  0.00    -0.268 OA
BRANCH   8  11
HETATM   11  C   UNL     1     -45.283  59.211 -57.115  1.00  0.00     0.161 C 
BRANCH  11  12
HETATM   12  C   UNL     1     -44.019  58.705 -57.866  1.00  0.00     0.245 C 
BRANCH  12  13
HETATM   13  N   UNL     1     -44.244  57.931 -59.172  1.00  0.00    -0.061 N 
HETATM   14  H   UNL     1     -44.907  58.517 -59.698  1.00  0.00     0.280 HD
HETATM   15  C   UNL     1     -44.860  56.549 -59.148  1.00  0.00     0.236 C 
HETATM   16  C   UNL     1     -43.744  55.592 -59.541  1.00  0.00     0.029 C 
HETATM   17  C   UNL     1     -42.484  56.433 -59.633  1.00  0.00     0.029 C 
HETATM   18  C   UNL     1     -43.006  57.796 -60.022  1.00  0.00     0.236 C 
ENDBRANCH  12  13
BRANCH  12  19
HETATM   19  C   UNL     1     -43.069  59.862 -58.106  1.00  0.00     0.015 A 
HETATM   20  S   UNL     1     -43.623  61.295 -58.878  1.00  0.00    -0.104 SA
HETATM   21  C   UNL     1     -42.092  62.037 -58.749  1.00  0.00     0.050 A 
HETATM   22  C   UNL     1     -41.174  61.221 -58.128  1.00  0.00     0.008 A 
HETATM   23  C   UNL     1     -41.734  59.963 -57.761  1.00  0.00     0.017 A 
ENDBRANCH  12  19
ENDBRANCH  11  12
ENDBRANCH   8  11
ENDBRANCH   2   7
BRANCH   1  24
HETATM   24  S   UNL     1     -42.025  57.532 -54.848  1.00  0.00    -0.120 SA
BRANCH  24  25
HETATM   25  C   UNL     1     -42.820  56.251 -55.887  1.00  0.00     0.182 C 
BRANCH  25  26
HETATM   26  C   UNL     1     -42.459  54.848 -55.430  1.00  0.00     0.231 C 
HETATM   27  N   UNL     1     -41.223  54.793 -54.802  1.00  0.00    -0.327 N 
HETATM   28  H   UNL     1     -40.608  55.589 -54.897  1.00  0.00     0.169 HD
HETATM   29  O   UNL     1     -43.228  53.906 -55.594  1.00  0.00    -0.272 OA
BRANCH  27  30
HETATM   30  C   UNL     1     -40.723  53.745 -54.002  1.00  0.00     0.034 A 
HETATM   31  C   UNL     1     -40.260  52.530 -54.508  1.00  0.00     0.030 A 
HETATM   32  C   UNL     1     -39.859  51.508 -53.641  1.00  0.00     0.009 A 
HETATM   33  C   UNL     1     -39.916  51.685 -52.256  1.00  0.00    -0.062 A 
HETATM   34  C   UNL     1     -39.469  50.587 -51.337  1.00  0.00     0.048 C 
HETATM   35  C   UNL     1     -40.350  52.911 -51.748  1.00  0.00     0.009 A 
HETATM   36  C   UNL     1     -40.757  53.929 -52.614  1.00  0.00     0.030 A 
ENDBRANCH  27  30
ENDBRANCH  25  26
ENDBRANCH  24  25
ENDBRANCH   1  24
TORSDOF 9
ENDMDL
MODEL 8
REMARK VINA RESULT:      -7.4      2.440      3.853
REMARK  9 active torsions:
REMARK  status: ('A' for Active; 'I' for Inactive)
REMARK    1  A    between atoms: C_5  and  N_6 
REMARK       I    between atoms: N_6  and  C_7 
REMARK    2  A    between atoms: C_7  and  C_8 
REMARK    3  A    between atoms: C_8  and  S_9 
REMARK    4  A    between atoms: S_9  and  C_10 
REMARK    5  A    between atoms: C_11  and  C_12 
REMARK       I    between atoms: C_12  and  N_13 
REMARK    6  A    between atoms: N_13  and  C_14 
REMARK    7  A    between atoms: C_14  and  C_15 
REMARK    8  A    between atoms: C_15  and  N_16 
REMARK    9  A    between atoms: C_15  and  C_22 
ROOT
HETATM    1  C   UNL     1     -41.983  59.608 -52.205  1.00  0.00     0.016 A 
HETATM    2  C   UNL     1     -42.604  60.448 -53.142  1.00  0.00     0.048 A 
HETATM    3  C   UNL     1     -43.159  61.679 -52.753  1.00  0.00     0.018 A 
HETATM    4  C   UNL     1     -43.100  62.082 -51.422  1.00  0.00     0.001 A 
HETATM    5  C   UNL     1     -42.525  61.242 -50.474  1.00  0.00     0.001 A 
HETATM    6  C   UNL     1     -41.994  60.009 -50.861  1.00  0.00     0.019 A 
ENDROOT
BRANCH   2   7
HETATM    7  C   UNL     1     -42.780  60.092 -54.565  1.00  0.00     0.253 C 
HETATM    8  N   UNL     1     -42.146  60.913 -55.481  1.00  0.00    -0.354 N 
HETATM    9  H   UNL     1     -41.682  61.725 -55.086  1.00  0.00     0.162 HD
HETATM   10  O   UNL     1     -43.539  59.187 -54.886  1.00  0.00    -0.268 OA
BRANCH   8  11
HETATM   11  C   UNL     1     -42.708  61.047 -56.827  1.00  0.00     0.161 C 
BRANCH  11  12
HETATM   12  C   UNL     1     -41.941  60.292 -57.949  1.00  0.00     0.245 C 
BRANCH  12  13
HETATM   13  N   UNL     1     -42.736  59.273 -58.777  1.00  0.00    -0.061 N 
HETATM   14  H   UNL     1     -42.721  59.658 -59.730  1.00  0.00     0.280 HD
HETATM   15  C   UNL     1     -44.196  59.010 -58.472  1.00  0.00     0.236 C 
HETATM   16  C   UNL     1     -44.252  57.604 -57.896  1.00  0.00     0.029 C 
HETATM   17  C   UNL     1     -42.810  57.155 -57.746  1.00  0.00     0.029 C 
HETATM   18  C   UNL     1     -42.097  57.909 -58.842  1.00  0.00     0.236 C 
ENDBRANCH  12  13
BRANCH  12  19
HETATM   19  C   UNL     1     -41.268  61.292 -58.869  1.00  0.00     0.015 A 
HETATM   20  S   UNL     1     -41.710  61.383 -60.528  1.00  0.00    -0.104 SA
HETATM   21  C   UNL     1     -40.612  62.656 -60.821  1.00  0.00     0.050 A 
HETATM   22  C   UNL     1     -39.922  63.014 -59.685  1.00  0.00     0.008 A 
HETATM   23  C   UNL     1     -40.295  62.225 -58.558  1.00  0.00     0.017 A 
ENDBRANCH  12  19
ENDBRANCH  11  12
ENDBRANCH   8  11
ENDBRANCH   2   7
BRANCH   1  24
HETATM   24  S   UNL     1     -41.283  58.020 -52.637  1.00  0.00    -0.120 SA
BRANCH  24  25
HETATM   25  C   UNL     1     -41.660  57.027 -51.146  1.00  0.00     0.182 C 
BRANCH  25  26
HETATM   26  C   UNL     1     -41.822  55.552 -51.474  1.00  0.00     0.231 C 
HETATM   27  N   UNL     1     -40.935  55.123 -52.451  1.00  0.00    -0.327 N 
HETATM   28  H   UNL     1     -40.448  55.825 -52.989  1.00  0.00     0.169 HD
HETATM   29  O   UNL     1     -42.640  54.854 -50.885  1.00  0.00    -0.272 OA
BRANCH  27  30
HETATM   30  C   UNL     1     -40.605  53.790 -52.771  1.00  0.00     0.034 A 
HETATM   31  C   UNL     1     -40.015  52.896 -51.877  1.00  0.00     0.030 A 
HETATM   32  C   UNL     1     -39.640  51.616 -52.299  1.00  0.00     0.009 A 
HETATM   33  C   UNL     1     -39.847  51.211 -53.620  1.00  0.00    -0.062 A 
HETATM   34  C   UNL     1     -39.454  49.831 -54.057  1.00  0.00     0.048 C 
HETATM   35  C   UNL     1     -40.466  52.094 -54.509  1.00  0.00     0.009 A 
HETATM   36  C   UNL     1     -40.834  53.375 -54.090  1.00  0.00     0.030 A 
ENDBRANCH  27  30
ENDBRANCH  25  26
ENDBRANCH  24  25
ENDBRANCH   1  24
TORSDOF 9
ENDMDL
MODEL 9
REMARK VINA RESULT:      -7.4      1.609      1.904
REMARK  9 active torsions:
REMARK  status: ('A' for Active; 'I' for Inactive)
REMARK    1  A    between atoms: C_5  and  N_6 
REMARK       I    between atoms: N_6  and  C_7 
REMARK    2  A    between atoms: C_7  and  C_8 
REMARK    3  A    between atoms: C_8  and  S_9 
REMARK    4  A    between atoms: S_9  and  C_10 
REMARK    5  A    between atoms: C_11  and  C_12 
REMARK       I    between atoms: C_12  and  N_13 
REMARK    6  A    between atoms: N_13  and  C_14 
REMARK    7  A    between atoms: C_14  and  C_15 
REMARK    8  A    between atoms: C_15  and  N_16 
REMARK    9  A    between atoms: C_15  and  C_22 
ROOT
HETATM    1  C   UNL     1     -43.900  59.410 -52.530  1.00  0.00     0.016 A 
HETATM    2  C   UNL     1     -43.228  59.916 -53.653  1.00  0.00     0.048 A 
HETATM    3  C   UNL     1     -42.892  61.278 -53.741  1.00  0.00     0.018 A 
HETATM    4  C   UNL     1     -43.228  62.148 -52.708  1.00  0.00     0.001 A 
HETATM    5  C   UNL     1     -43.932  61.670 -51.608  1.00  0.00     0.001 A 
HETATM    6  C   UNL     1     -44.282  60.319 -51.533  1.00  0.00     0.019 A 
ENDROOT
BRANCH   2   7
HETATM    7  C   UNL     1     -42.882  59.098 -54.833  1.00  0.00     0.253 C 
HETATM    8  N   UNL     1     -43.891  58.914 -55.764  1.00  0.00    -0.354 N 
HETATM    9  H   UNL     1     -44.794  59.300 -55.506  1.00  0.00     0.162 HD
HETATM   10  O   UNL     1     -41.797  58.537 -54.899  1.00  0.00    -0.268 OA
BRANCH   8  11
HETATM   11  C   UNL     1     -43.887  57.705 -56.590  1.00  0.00     0.161 C 
BRANCH  11  12
HETATM   12  C   UNL     1     -43.735  57.941 -58.119  1.00  0.00     0.245 C 
BRANCH  12  13
HETATM   13  N   UNL     1     -42.350  58.364 -58.629  1.00  0.00    -0.061 N 
HETATM   14  H   UNL     1     -41.702  57.720 -58.156  1.00  0.00     0.280 HD
HETATM   15  C   UNL     1     -41.819  59.752 -58.341  1.00  0.00     0.236 C 
HETATM   16  C   UNL     1     -41.809  60.476 -59.678  1.00  0.00     0.029 C 
HETATM   17  C   UNL     1     -42.474  59.538 -60.668  1.00  0.00     0.029 C 
HETATM   18  C   UNL     1     -42.161  58.170 -60.112  1.00  0.00     0.236 C 
ENDBRANCH  12  13
BRANCH  12  19
HETATM   19  C   UNL     1     -44.212  56.715 -58.874  1.00  0.00     0.015 A 
HETATM   20  S   UNL     1     -45.589  56.807 -59.900  1.00  0.00    -0.104 SA
HETATM   21  C   UNL     1     -45.447  55.167 -60.349  1.00  0.00     0.050 A 
HETATM   22  C   UNL     1     -44.375  54.555 -59.740  1.00  0.00     0.008 A 
HETATM   23  C   UNL     1     -43.663  55.446 -58.885  1.00  0.00     0.017 A 
ENDBRANCH  12  19
ENDBRANCH  11  12
ENDBRANCH   8  11
ENDBRANCH   2   7
BRANCH   1  24
HETATM   24  S   UNL     1     -44.376  57.692 -52.374  1.00  0.00    -0.120 SA
BRANCH  24  25
HETATM   25  C   UNL     1     -42.784  56.902 -51.933  1.00  0.00     0.182 C 
BRANCH  25  26
HETATM   26  C   UNL     1     -42.561  55.611 -52.702  1.00  0.00     0.231 C 
HETATM   27  N   UNL     1     -41.227  55.228 -52.725  1.00  0.00    -0.327 N 
HETATM   28  H   UNL     1     -40.535  55.909 -52.446  1.00  0.00     0.169 HD
HETATM   29  O   UNL     1     -43.497  54.996 -53.202  1.00  0.00    -0.272 OA
BRANCH  27  30
HETATM   30  C   UNL     1     -40.714  53.962 -53.073  1.00  0.00     0.034 A 
HETATM   31  C   UNL     1     -40.629  53.487 -54.381  1.00  0.00     0.030 A 
HETATM   32  C   UNL     1     -40.185  52.185 -54.635  1.00  0.00     0.009 A 
HETATM   33  C   UNL     1     -39.821  51.338 -53.585  1.00  0.00    -0.062 A 
HETATM   34  C   UNL     1     -39.334  49.948 -53.870  1.00  0.00     0.048 C 
HETATM   35  C   UNL     1     -39.876  51.822 -52.275  1.00  0.00     0.009 A 
HETATM   36  C   UNL     1     -40.325  53.120 -52.022  1.00  0.00     0.030 A 
ENDBRANCH  27  30
ENDBRANCH  25  26
ENDBRANCH  24  25
ENDBRANCH   1  24
TORSDOF 9
ENDMDL
MODEL 10
REMARK VINA RESULT:      -7.3      2.799      8.817
REMARK  9 active torsions:
REMARK  status: ('A' for Active; 'I' for Inactive)
REMARK    1  A    between atoms: C_5  and  N_6 
REMARK       I    between atoms: N_6  and  C_7 
REMARK    2  A    between atoms: C_7  and  C_8 
REMARK    3  A    between atoms: C_8  and  S_9 
REMARK    4  A    between atoms: S_9  and  C_10 
REMARK    5  A    between atoms: C_11  and  C_12 
REMARK       I    between atoms: C_12  and  N_13 
REMARK    6  A    between atoms: N_13  and  C_14 
REMARK    7  A    between atoms: C_14  and  C_15 
REMARK    8  A    between atoms: C_15  and  N_16 
REMARK    9  A    between atoms: C_15  and  C_22 
ROOT
HETATM    1  C   UNL     1     -45.141  57.235 -59.017  1.00  0.00     0.016 A 
HETATM    2  C   UNL     1     -43.913  56.569 -58.888  1.00  0.00     0.048 A 
HETATM    3  C   UNL     1     -43.671  55.361 -59.564  1.00  0.00     0.018 A 
HETATM    4  C   UNL     1     -44.656  54.804 -60.374  1.00  0.00     0.001 A 
HETATM    5  C   UNL     1     -45.895  55.430 -60.479  1.00  0.00     0.001 A 
HETATM    6  C   UNL     1     -46.139  56.620 -59.788  1.00  0.00     0.019 A 
ENDROOT
BRANCH   2   7
HETATM    7  C   UNL     1     -42.823  57.034 -58.006  1.00  0.00     0.253 C 
HETATM    8  N   UNL     1     -42.824  56.527 -56.717  1.00  0.00    -0.354 N 
HETATM    9  H   UNL     1     -43.620  55.942 -56.483  1.00  0.00     0.162 HD
HETATM   10  O   UNL     1     -42.048  57.900 -58.386  1.00  0.00    -0.268 OA
BRANCH   8  11
HETATM   11  C   UNL     1     -42.232  57.322 -55.639  1.00  0.00     0.161 C 
BRANCH  11  12
HETATM   12  C   UNL     1     -42.434  56.756 -54.205  1.00  0.00     0.245 C 
BRANCH  12  13
HETATM   13  N   UNL     1     -41.446  55.681 -53.730  1.00  0.00    -0.061 N 
HETATM   14  H   UNL     1     -41.041  56.076 -52.870  1.00  0.00     0.280 HD
HETATM   15  C   UNL     1     -40.262  55.295 -54.591  1.00  0.00     0.236 C 
HETATM   16  C   UNL     1     -40.549  53.884 -55.080  1.00  0.00     0.029 C 
HETATM   17  C   UNL     1     -41.954  53.556 -54.611  1.00  0.00     0.029 C 
HETATM   18  C   UNL     1     -42.099  54.377 -53.352  1.00  0.00     0.236 C 
ENDBRANCH  12  13
BRANCH  12  19
HETATM   19  C   UNL     1     -42.475  57.898 -53.207  1.00  0.00     0.015 A 
HETATM   20  S   UNL     1     -41.183  59.031 -53.128  1.00  0.00    -0.104 SA
HETATM   21  C   UNL     1     -41.950  59.919 -51.889  1.00  0.00     0.050 A 
HETATM   22  C   UNL     1     -43.165  59.376 -51.540  1.00  0.00     0.008 A 
HETATM   23  C   UNL     1     -43.468  58.206 -52.295  1.00  0.00     0.017 A 
ENDBRANCH  12  19
ENDBRANCH  11  12
ENDBRANCH   8  11
ENDBRANCH   2   7
BRANCH   1  24
HETATM   24  S   UNL     1     -45.515  58.760 -58.161  1.00  0.00    -0.120 SA
BRANCH  24  25
HETATM   25  C   UNL     1     -45.250  60.003 -59.479  1.00  0.00     0.182 C 
BRANCH  25  26
HETATM   26  C   UNL     1     -44.166  61.001 -59.105  1.00  0.00     0.231 C 
HETATM   27  N   UNL     1     -42.904  60.596 -59.518  1.00  0.00    -0.327 N 
HETATM   28  H   UNL     1     -42.787  59.635 -59.807  1.00  0.00     0.169 HD
HETATM   29  O   UNL     1     -44.435  62.050 -58.531  1.00  0.00    -0.272 OA
BRANCH  27  30
HETATM   30  C   UNL     1     -41.745  61.393 -59.611  1.00  0.00     0.034 A 
HETATM   31  C   UNL     1     -40.945  61.737 -58.522  1.00  0.00     0.030 A 
HETATM   32  C   UNL     1     -39.859  62.603 -58.686  1.00  0.00     0.009 A 
HETATM   33  C   UNL     1     -39.557  63.140 -59.941  1.00  0.00    -0.062 A 
HETATM   34  C   UNL     1     -38.382  64.056 -60.107  1.00  0.00     0.048 C 
HETATM   35  C   UNL     1     -40.340  62.773 -61.039  1.00  0.00     0.009 A 
HETATM   36  C   UNL     1     -41.428  61.913 -60.873  1.00  0.00     0.030 A 
ENDBRANCH  27  30
ENDBRANCH  25  26
ENDBRANCH  24  25
ENDBRANCH   1  24
TORSDOF 9
ENDMDL
