MODEL 1
REMARK VINA RESULT:      -7.9      0.000      0.000
REMARK  4 active torsions:
REMARK  status: ('A' for Active; 'I' for Inactive)
REMARK    1  A    between atoms: C_5  and  C_6 
REMARK    2  A    between atoms: C_6  and  N_7 
REMARK    3  A    between atoms: N_13  and  C_15 
REMARK    4  A    between atoms: C_19  and  C_20 
ROOT
HETATM    1  N   UNL     1     -43.635  58.458 -50.924  1.00  0.00    -0.064 N 
HETATM    2  H   UNL     1     -43.686  58.419 -49.888  1.00  0.00     0.280 HD
HETATM    3  C   UNL     1     -44.052  57.098 -51.394  1.00  0.00     0.236 C 
HETATM    4  C   UNL     1     -43.836  56.945 -52.903  1.00  0.00     0.039 C 
HETATM    5  C   UNL     1     -42.430  57.364 -53.426  1.00  0.00    -0.013 C 
HETATM    6  C   UNL     1     -41.338  56.297 -53.125  1.00  0.00     0.245 C 
HETATM    7  N   UNL     1     -41.507  55.047 -53.959  1.00  0.00    -0.065 N 
HETATM    8  H   UNL     1     -42.399  54.582 -53.742  1.00  0.00     0.280 HD
HETATM    9  C   UNL     1     -41.515  55.327 -55.461  1.00  0.00     0.244 C 
HETATM   10  C   UNL     1     -42.646  56.308 -55.781  1.00  0.00     0.045 C 
HETATM   11  C   UNL     1     -42.483  57.599 -54.963  1.00  0.00     0.022 C 
HETATM   12  C   UNL     1     -42.032  58.726 -52.777  1.00  0.00     0.039 C 
HETATM   13  C   UNL     1     -42.222  58.794 -51.268  1.00  0.00     0.236 C 
ENDROOT
BRANCH   7  14
HETATM   14  C   UNL     1     -40.427  54.044 -53.647  1.00  0.00     0.188 A 
HETATM   15  C   UNL     1     -40.819  52.858 -52.813  1.00  0.00     0.035 A 
HETATM   16  C   UNL     1     -40.553  52.689 -54.282  1.00  0.00     0.035 A 
ENDBRANCH   7  14
BRANCH  10  17
HETATM   17  C   UNL     1     -42.724  56.598 -57.266  1.00  0.00    -0.052 A 
HETATM   18  C   UNL     1     -42.324  57.854 -57.749  1.00  0.00     0.007 A 
HETATM   19  C   UNL     1     -42.378  58.144 -59.113  1.00  0.00     0.001 A 
HETATM   20  C   UNL     1     -42.833  57.184 -60.013  1.00  0.00     0.000 A 
HETATM   21  C   UNL     1     -43.235  55.934 -59.551  1.00  0.00     0.001 A 
HETATM   22  C   UNL     1     -43.183  55.641 -58.186  1.00  0.00     0.007 A 
ENDBRANCH  10  17
BRANCH   1  23
HETATM   23  C   UNL     1     -44.652  59.583 -51.232  1.00  0.00     0.323 C 
BRANCH  23  24
HETATM   24  C   UNL     1     -44.972  60.384 -50.028  1.00  0.00     0.198 A 
HETATM   25  O   UNL     1     -45.954  59.926 -49.212  1.00  0.00    -0.194 OA
HETATM   26  N   UNL     1     -46.071  60.863 -48.191  1.00  0.00    -0.112 NA
HETATM   27  C   UNL     1     -45.156  61.790 -48.501  1.00  0.00     0.152 A 
HETATM   28  C   UNL     1     -44.963  63.016 -47.700  1.00  0.00     0.096 C 
HETATM   29  N   UNL     1     -44.425  61.515 -49.638  1.00  0.00    -0.208 NA
ENDBRANCH  23  24
ENDBRANCH   1  23
TORSDOF 4
ENDMDL
MODEL 2
REMARK VINA RESULT:      -7.7      3.717      7.315
REMARK  4 active torsions:
REMARK  status: ('A' for Active; 'I' for Inactive)
REMARK    1  A    between atoms: C_5  and  C_6 
REMARK    2  A    between atoms: C_6  and  N_7 
REMARK    3  A    between atoms: N_13  and  C_15 
REMARK    4  A    between atoms: C_19  and  C_20 
ROOT
HETATM    1  N   UNL     1     -41.381  53.820 -53.396  1.00  0.00    -0.064 N 
HETATM    2  H   UNL     1     -41.363  53.356 -52.467  1.00  0.00     0.280 HD
HETATM    3  C   UNL     1     -41.076  55.262 -53.125  1.00  0.00     0.236 C 
HETATM    4  C   UNL     1     -41.261  56.112 -54.387  1.00  0.00     0.039 C 
HETATM    5  C   UNL     1     -42.608  55.907 -55.141  1.00  0.00    -0.013 C 
HETATM    6  C   UNL     1     -43.800  56.622 -54.441  1.00  0.00     0.245 C 
HETATM    7  N   UNL     1     -43.720  58.127 -54.558  1.00  0.00    -0.065 N 
HETATM    8  H   UNL     1     -42.881  58.486 -54.084  1.00  0.00     0.280 HD
HETATM    9  C   UNL     1     -43.644  58.610 -56.006  1.00  0.00     0.244 C 
HETATM   10  C   UNL     1     -42.421  57.983 -56.680  1.00  0.00     0.045 C 
HETATM   11  C   UNL     1     -42.490  56.450 -56.594  1.00  0.00     0.022 C 
HETATM   12  C   UNL     1     -42.900  54.379 -55.255  1.00  0.00     0.039 C 
HETATM   13  C   UNL     1     -42.748  53.601 -53.954  1.00  0.00     0.236 C 
ENDROOT
BRANCH   7  14
HETATM   14  C   UNL     1     -44.896  58.781 -53.879  1.00  0.00     0.188 A 
HETATM   15  C   UNL     1     -44.594  59.681 -52.714  1.00  0.00     0.035 A 
HETATM   16  C   UNL     1     -45.026  60.269 -54.028  1.00  0.00     0.035 A 
ENDBRANCH   7  14
BRANCH  10  17
HETATM   17  C   UNL     1     -42.275  58.454 -58.112  1.00  0.00    -0.052 A 
HETATM   18  C   UNL     1     -42.182  59.829 -58.383  1.00  0.00     0.007 A 
HETATM   19  C   UNL     1     -42.038  60.288 -59.693  1.00  0.00     0.001 A 
HETATM   20  C   UNL     1     -41.986  59.383 -60.749  1.00  0.00     0.000 A 
HETATM   21  C   UNL     1     -42.078  58.017 -60.497  1.00  0.00     0.001 A 
HETATM   22  C   UNL     1     -42.222  57.553 -59.188  1.00  0.00     0.007 A 
ENDBRANCH  10  17
BRANCH   1  23
HETATM   23  C   UNL     1     -40.258  53.054 -54.136  1.00  0.00     0.323 C 
BRANCH  23  24
HETATM   24  C   UNL     1     -39.946  51.762 -53.481  1.00  0.00     0.198 A 
HETATM   25  O   UNL     1     -39.844  50.665 -54.272  1.00  0.00    -0.194 OA
HETATM   26  N   UNL     1     -39.579  49.600 -53.418  1.00  0.00    -0.112 NA
HETATM   27  C   UNL     1     -39.556  50.164 -52.203  1.00  0.00     0.152 A 
HETATM   28  C   UNL     1     -39.351  49.380 -50.968  1.00  0.00     0.096 C 
HETATM   29  N   UNL     1     -39.759  51.528 -52.200  1.00  0.00    -0.208 NA
ENDBRANCH  23  24
ENDBRANCH   1  23
TORSDOF 4
ENDMDL
MODEL 3
REMARK VINA RESULT:      -7.7      1.577      4.518
REMARK  4 active torsions:
REMARK  status: ('A' for Active; 'I' for Inactive)
REMARK    1  A    between atoms: C_5  and  C_6 
REMARK    2  A    between atoms: C_6  and  N_7 
REMARK    3  A    between atoms: N_13  and  C_15 
REMARK    4  A    between atoms: C_19  and  C_20 
ROOT
HETATM    1  N   UNL     1     -43.063  60.384 -52.544  1.00  0.00    -0.064 N 
HETATM    2  H   UNL     1     -43.404  61.354 -52.690  1.00  0.00     0.280 HD
HETATM    3  C   UNL     1     -42.106  60.126 -53.667  1.00  0.00     0.236 C 
HETATM    4  C   UNL     1     -41.669  58.657 -53.694  1.00  0.00     0.039 C 
HETATM    5  C   UNL     1     -42.823  57.613 -53.627  1.00  0.00    -0.013 C 
HETATM    6  C   UNL     1     -43.565  57.455 -54.985  1.00  0.00     0.245 C 
HETATM    7  N   UNL     1     -42.717  56.764 -56.030  1.00  0.00    -0.065 N 
HETATM    8  H   UNL     1     -41.881  57.323 -56.248  1.00  0.00     0.280 HD
HETATM    9  C   UNL     1     -42.221  55.390 -55.582  1.00  0.00     0.244 C 
HETATM   10  C   UNL     1     -41.411  55.546 -54.293  1.00  0.00     0.045 C 
HETATM   11  C   UNL     1     -42.259  56.226 -53.206  1.00  0.00     0.022 C 
HETATM   12  C   UNL     1     -43.833  58.042 -52.519  1.00  0.00     0.039 C 
HETATM   13  C   UNL     1     -44.266  59.501 -52.579  1.00  0.00     0.236 C 
ENDROOT
BRANCH   7  14
HETATM   14  C   UNL     1     -43.474  56.620 -57.325  1.00  0.00     0.188 A 
HETATM   15  C   UNL     1     -42.854  57.236 -58.547  1.00  0.00     0.035 A 
HETATM   16  C   UNL     1     -42.859  55.744 -58.378  1.00  0.00     0.035 A 
ENDBRANCH   7  14
BRANCH  10  17
HETATM   17  C   UNL     1     -40.862  54.216 -53.818  1.00  0.00    -0.052 A 
HETATM   18  C   UNL     1     -40.703  53.983 -52.443  1.00  0.00     0.007 A 
HETATM   19  C   UNL     1     -40.207  52.764 -51.980  1.00  0.00     0.001 A 
HETATM   20  C   UNL     1     -39.864  51.761 -52.882  1.00  0.00     0.000 A 
HETATM   21  C   UNL     1     -40.015  51.976 -54.249  1.00  0.00     0.001 A 
HETATM   22  C   UNL     1     -40.510  53.195 -54.717  1.00  0.00     0.007 A 
ENDBRANCH  10  17
BRANCH   1  23
HETATM   23  C   UNL     1     -42.401  60.505 -51.150  1.00  0.00     0.323 C 
BRANCH  23  24
HETATM   24  C   UNL     1     -43.173  61.389 -50.246  1.00  0.00     0.198 A 
HETATM   25  O   UNL     1     -43.004  62.728 -50.381  1.00  0.00    -0.194 OA
HETATM   26  N   UNL     1     -43.807  63.315 -49.410  1.00  0.00    -0.112 NA
HETATM   27  C   UNL     1     -44.371  62.272 -48.787  1.00  0.00     0.152 A 
HETATM   28  C   UNL     1     -45.279  62.431 -47.633  1.00  0.00     0.096 C 
HETATM   29  N   UNL     1     -44.016  61.040 -49.298  1.00  0.00    -0.208 NA
ENDBRANCH  23  24
ENDBRANCH   1  23
TORSDOF 4
ENDMDL
MODEL 4
REMARK VINA RESULT:      -7.4      4.166      7.377
REMARK  4 active torsions:
REMARK  status: ('A' for Active; 'I' for Inactive)
REMARK    1  A    between atoms: C_5  and  C_6 
REMARK    2  A    between atoms: C_6  and  N_7 
REMARK    3  A    between atoms: N_13  and  C_15 
REMARK    4  A    between atoms: C_19  and  C_20 
ROOT
HETATM    1  N   UNL     1     -40.584  53.924 -53.802  1.00  0.00    -0.064 N 
HETATM    2  H   UNL     1     -39.995  53.907 -52.947  1.00  0.00     0.280 HD
HETATM    3  C   UNL     1     -40.254  55.216 -54.486  1.00  0.00     0.236 C 
HETATM    4  C   UNL     1     -41.196  55.471 -55.668  1.00  0.00     0.039 C 
HETATM    5  C   UNL     1     -42.715  55.316 -55.361  1.00  0.00    -0.013 C 
HETATM    6  C   UNL     1     -43.296  56.536 -54.588  1.00  0.00     0.245 C 
HETATM    7  N   UNL     1     -43.381  57.777 -55.449  1.00  0.00    -0.065 N 
HETATM    8  H   UNL     1     -42.444  58.076 -55.751  1.00  0.00     0.280 HD
HETATM    9  C   UNL     1     -44.203  57.567 -56.719  1.00  0.00     0.244 C 
HETATM   10  C   UNL     1     -43.586  56.427 -57.533  1.00  0.00     0.045 C 
HETATM   11  C   UNL     1     -43.510  55.146 -56.687  1.00  0.00     0.022 C 
HETATM   12  C   UNL     1     -42.936  54.012 -54.534  1.00  0.00     0.039 C 
HETATM   13  C   UNL     1     -42.002  53.845 -53.343  1.00  0.00     0.236 C 
ENDROOT
BRANCH   7  14
HETATM   14  C   UNL     1     -43.957  58.931 -54.670  1.00  0.00     0.188 A 
HETATM   15  C   UNL     1     -43.038  59.630 -53.708  1.00  0.00     0.035 A 
HETATM   16  C   UNL     1     -43.432  60.300 -54.994  1.00  0.00     0.035 A 
ENDBRANCH   7  14
BRANCH  10  17
HETATM   17  C   UNL     1     -44.342  56.196 -58.825  1.00  0.00    -0.052 A 
HETATM   18  C   UNL     1     -45.252  57.164 -59.278  1.00  0.00     0.007 A 
HETATM   19  C   UNL     1     -45.955  56.980 -60.470  1.00  0.00     0.001 A 
HETATM   20  C   UNL     1     -45.760  55.826 -61.224  1.00  0.00     0.000 A 
HETATM   21  C   UNL     1     -44.862  54.855 -60.788  1.00  0.00     0.001 A 
HETATM   22  C   UNL     1     -44.157  55.036 -59.596  1.00  0.00     0.007 A 
ENDBRANCH  10  17
BRANCH   1  23
HETATM   23  C   UNL     1     -40.080  52.660 -54.539  1.00  0.00     0.323 C 
BRANCH  23  24
HETATM   24  C   UNL     1     -39.876  51.524 -53.611  1.00  0.00     0.198 A 
HETATM   25  O   UNL     1     -39.882  50.274 -54.138  1.00  0.00    -0.194 OA
HETATM   26  N   UNL     1     -39.702  49.406 -53.066  1.00  0.00    -0.112 NA
HETATM   27  C   UNL     1     -39.614  50.220 -52.007  1.00  0.00     0.152 A 
HETATM   28  C   UNL     1     -39.465  49.715 -50.627  1.00  0.00     0.096 C 
HETATM   29  N   UNL     1     -39.695  51.564 -52.309  1.00  0.00    -0.208 NA
ENDBRANCH  23  24
ENDBRANCH   1  23
TORSDOF 4
ENDMDL
MODEL 5
REMARK VINA RESULT:      -7.0      3.455      7.134
REMARK  4 active torsions:
REMARK  status: ('A' for Active; 'I' for Inactive)
REMARK    1  A    between atoms: C_5  and  C_6 
REMARK    2  A    between atoms: C_6  and  N_7 
REMARK    3  A    between atoms: N_13  and  C_15 
REMARK    4  A    between atoms: C_19  and  C_20 
ROOT
HETATM    1  N   UNL     1     -41.731  54.765 -53.441  1.00  0.00    -0.064 N 
HETATM    2  H   UNL     1     -41.789  54.302 -52.514  1.00  0.00     0.280 HD
HETATM    3  C   UNL     1     -41.494  56.214 -53.147  1.00  0.00     0.236 C 
HETATM    4  C   UNL     1     -41.581  57.058 -54.424  1.00  0.00     0.039 C 
HETATM    5  C   UNL     1     -42.844  56.815 -55.304  1.00  0.00    -0.013 C 
HETATM    6  C   UNL     1     -44.117  57.495 -54.723  1.00  0.00     0.245 C 
HETATM    7  N   UNL     1     -44.069  59.003 -54.838  1.00  0.00    -0.065 N 
HETATM    8  H   UNL     1     -43.289  59.385 -54.286  1.00  0.00     0.280 HD
HETATM    9  C   UNL     1     -43.868  59.486 -56.273  1.00  0.00     0.244 C 
HETATM   10  C   UNL     1     -42.569  58.894 -56.824  1.00  0.00     0.045 C 
HETATM   11  C   UNL     1     -42.602  57.359 -56.740  1.00  0.00     0.022 C 
HETATM   12  C   UNL     1     -43.080  55.279 -55.439  1.00  0.00     0.039 C 
HETATM   13  C   UNL     1     -43.031  54.506 -54.127  1.00  0.00     0.236 C 
ENDROOT
BRANCH   7  14
HETATM   14  C   UNL     1     -45.321  59.623 -54.276  1.00  0.00     0.188 A 
HETATM   15  C   UNL     1     -45.168  60.477 -53.049  1.00  0.00     0.035 A 
HETATM   16  C   UNL     1     -45.447  61.116 -54.380  1.00  0.00     0.035 A 
ENDBRANCH   7  14
BRANCH  10  17
HETATM   17  C   UNL     1     -42.299  59.368 -58.237  1.00  0.00    -0.052 A 
HETATM   18  C   UNL     1     -42.020  60.723 -58.472  1.00  0.00     0.007 A 
HETATM   19  C   UNL     1     -41.759  61.184 -59.763  1.00  0.00     0.001 A 
HETATM   20  C   UNL     1     -41.775  60.299 -60.837  1.00  0.00     0.000 A 
HETATM   21  C   UNL     1     -42.052  58.952 -60.622  1.00  0.00     0.001 A 
HETATM   22  C   UNL     1     -42.313  58.486 -59.331  1.00  0.00     0.007 A 
ENDBRANCH  10  17
BRANCH   1  23
HETATM   23  C   UNL     1     -40.521  54.030 -54.068  1.00  0.00     0.323 C 
BRANCH  23  24
HETATM   24  C   UNL     1     -40.198  52.779 -53.343  1.00  0.00     0.198 A 
HETATM   25  O   UNL     1     -39.894  52.877 -52.025  1.00  0.00    -0.194 OA
HETATM   26  N   UNL     1     -39.608  51.584 -51.600  1.00  0.00    -0.112 NA
HETATM   27  C   UNL     1     -39.762  50.844 -52.706  1.00  0.00     0.152 A 
HETATM   28  C   UNL     1     -39.507  49.389 -52.729  1.00  0.00     0.096 C 
HETATM   29  N   UNL     1     -40.156  51.554 -53.821  1.00  0.00    -0.208 NA
ENDBRANCH  23  24
ENDBRANCH   1  23
TORSDOF 4
ENDMDL
MODEL 6
REMARK VINA RESULT:      -6.7     18.058     19.742
REMARK  4 active torsions:
REMARK  status: ('A' for Active; 'I' for Inactive)
REMARK    1  A    between atoms: C_5  and  C_6 
REMARK    2  A    between atoms: C_6  and  N_7 
REMARK    3  A    between atoms: N_13  and  C_15 
REMARK    4  A    between atoms: C_19  and  C_20 
ROOT
HETATM    1  N   UNL     1     -35.367  39.846 -50.583  1.00  0.00    -0.064 N 
HETATM    2  H   UNL     1     -35.014  39.563 -49.649  1.00  0.00     0.280 HD
HETATM    3  C   UNL     1     -34.990  38.727 -51.506  1.00  0.00     0.236 C 
HETATM    4  C   UNL     1     -35.276  39.095 -52.966  1.00  0.00     0.039 C 
HETATM    5  C   UNL     1     -34.724  40.476 -53.429  1.00  0.00    -0.013 C 
HETATM    6  C   UNL     1     -33.192  40.449 -53.698  1.00  0.00     0.245 C 
HETATM    7  N   UNL     1     -32.837  39.655 -54.936  1.00  0.00    -0.065 N 
HETATM    8  H   UNL     1     -33.105  38.668 -54.824  1.00  0.00     0.280 HD
HETATM    9  C   UNL     1     -33.544  40.161 -56.192  1.00  0.00     0.244 C 
HETATM   10  C   UNL     1     -35.058  40.107 -55.971  1.00  0.00     0.045 C 
HETATM   11  C   UNL     1     -35.448  40.926 -54.731  1.00  0.00     0.022 C 
HETATM   12  C   UNL     1     -35.052  41.545 -52.341  1.00  0.00     0.039 C 
HETATM   13  C   UNL     1     -34.697  41.137 -50.917  1.00  0.00     0.236 C 
ENDROOT
BRANCH   7  14
HETATM   14  C   UNL     1     -31.348  39.662 -55.167  1.00  0.00     0.188 A 
HETATM   15  C   UNL     1     -30.686  38.329 -55.378  1.00  0.00     0.035 A 
HETATM   16  C   UNL     1     -30.871  39.268 -56.536  1.00  0.00     0.035 A 
ENDBRANCH   7  14
BRANCH  10  17
HETATM   17  C   UNL     1     -35.814  40.566 -57.201  1.00  0.00    -0.052 A 
HETATM   18  C   UNL     1     -36.071  39.654 -58.237  1.00  0.00     0.007 A 
HETATM   19  C   UNL     1     -36.773  40.049 -59.376  1.00  0.00     0.001 A 
HETATM   20  C   UNL     1     -37.227  41.359 -59.498  1.00  0.00     0.000 A 
HETATM   21  C   UNL     1     -36.979  42.277 -58.480  1.00  0.00     0.001 A 
HETATM   22  C   UNL     1     -36.277  41.885 -57.338  1.00  0.00     0.007 A 
ENDBRANCH  10  17
BRANCH   1  23
HETATM   23  C   UNL     1     -36.885  39.967 -50.307  1.00  0.00     0.323 C 
BRANCH  23  24
HETATM   24  C   UNL     1     -37.306  39.127 -49.161  1.00  0.00     0.198 A 
HETATM   25  O   UNL     1     -36.587  39.221 -48.015  1.00  0.00    -0.194 OA
HETATM   26  N   UNL     1     -37.166  38.323 -47.125  1.00  0.00    -0.112 NA
HETATM   27  C   UNL     1     -38.167  37.777 -47.828  1.00  0.00     0.152 A 
HETATM   28  C   UNL     1     -39.035  36.715 -47.280  1.00  0.00     0.096 C 
HETATM   29  N   UNL     1     -38.305  38.273 -49.107  1.00  0.00    -0.208 NA
ENDBRANCH  23  24
ENDBRANCH   1  23
TORSDOF 4
ENDMDL
MODEL 7
REMARK VINA RESULT:      -6.7      3.486      6.547
REMARK  4 active torsions:
REMARK  status: ('A' for Active; 'I' for Inactive)
REMARK    1  A    between atoms: C_5  and  C_6 
REMARK    2  A    between atoms: C_6  and  N_7 
REMARK    3  A    between atoms: N_13  and  C_15 
REMARK    4  A    between atoms: C_19  and  C_20 
ROOT
HETATM    1  N   UNL     1     -42.571  56.913 -53.113  1.00  0.00    -0.064 N 
HETATM    2  H   UNL     1     -41.923  57.056 -52.315  1.00  0.00     0.280 HD
HETATM    3  C   UNL     1     -41.716  57.000 -54.340  1.00  0.00     0.236 C 
HETATM    4  C   UNL     1     -42.573  57.004 -55.611  1.00  0.00     0.039 C 
HETATM    5  C   UNL     1     -43.754  58.019 -55.621  1.00  0.00    -0.013 C 
HETATM    6  C   UNL     1     -43.286  59.478 -55.889  1.00  0.00     0.245 C 
HETATM    7  N   UNL     1     -42.822  59.683 -57.313  1.00  0.00    -0.065 N 
HETATM    8  H   UNL     1     -41.999  59.100 -57.516  1.00  0.00     0.280 HD
HETATM    9  C   UNL     1     -43.884  59.314 -58.347  1.00  0.00     0.244 C 
HETATM   10  C   UNL     1     -44.288  57.851 -58.150  1.00  0.00     0.045 C 
HETATM   11  C   UNL     1     -44.786  57.621 -56.714  1.00  0.00     0.022 C 
HETATM   12  C   UNL     1     -44.499  57.944 -54.252  1.00  0.00     0.039 C 
HETATM   13  C   UNL     1     -43.594  57.997 -53.028  1.00  0.00     0.236 C 
ENDROOT
BRANCH   7  14
HETATM   14  C   UNL     1     -42.388  61.109 -57.535  1.00  0.00     0.188 A 
HETATM   15  C   UNL     1     -41.011  61.322 -58.098  1.00  0.00     0.035 A 
HETATM   16  C   UNL     1     -42.220  61.555 -58.960  1.00  0.00     0.035 A 
ENDBRANCH   7  14
BRANCH  10  17
HETATM   17  C   UNL     1     -45.318  57.417 -59.172  1.00  0.00    -0.052 A 
HETATM   18  C   UNL     1     -46.347  58.301 -59.537  1.00  0.00     0.007 A 
HETATM   19  C   UNL     1     -47.303  57.929 -60.483  1.00  0.00     0.001 A 
HETATM   20  C   UNL     1     -47.247  56.671 -61.076  1.00  0.00     0.000 A 
HETATM   21  C   UNL     1     -46.234  55.783 -60.725  1.00  0.00     0.001 A 
HETATM   22  C   UNL     1     -45.275  56.151 -59.779  1.00  0.00     0.007 A 
ENDBRANCH  10  17
BRANCH   1  23
HETATM   23  C   UNL     1     -43.116  55.497 -52.809  1.00  0.00     0.323 C 
BRANCH  23  24
HETATM   24  C   UNL     1     -42.043  54.476 -52.831  1.00  0.00     0.198 A 
HETATM   25  O   UNL     1     -41.133  54.499 -51.825  1.00  0.00    -0.194 OA
HETATM   26  N   UNL     1     -40.235  53.472 -52.097  1.00  0.00    -0.112 NA
HETATM   27  C   UNL     1     -40.691  52.943 -53.240  1.00  0.00     0.152 A 
HETATM   28  C   UNL     1     -40.002  51.836 -53.934  1.00  0.00     0.096 C 
HETATM   29  N   UNL     1     -41.841  53.531 -53.724  1.00  0.00    -0.208 NA
ENDBRANCH  23  24
ENDBRANCH   1  23
TORSDOF 4
ENDMDL
MODEL 8
REMARK VINA RESULT:      -6.7      4.124      5.860
REMARK  4 active torsions:
REMARK  status: ('A' for Active; 'I' for Inactive)
REMARK    1  A    between atoms: C_5  and  C_6 
REMARK    2  A    between atoms: C_6  and  N_7 
REMARK    3  A    between atoms: N_13  and  C_15 
REMARK    4  A    between atoms: C_19  and  C_20 
ROOT
HETATM    1  N   UNL     1     -42.622  54.618 -53.432  1.00  0.00    -0.064 N 
HETATM    2  H   UNL     1     -42.709  53.659 -53.042  1.00  0.00     0.280 HD
HETATM    3  C   UNL     1     -43.889  54.854 -54.194  1.00  0.00     0.236 C 
HETATM    4  C   UNL     1     -43.819  56.161 -54.991  1.00  0.00     0.039 C 
HETATM    5  C   UNL     1     -42.541  56.346 -55.864  1.00  0.00    -0.013 C 
HETATM    6  C   UNL     1     -42.585  55.507 -57.173  1.00  0.00     0.245 C 
HETATM    7  N   UNL     1     -43.596  56.038 -58.165  1.00  0.00    -0.065 N 
HETATM    8  H   UNL     1     -44.548  55.980 -57.781  1.00  0.00     0.280 HD
HETATM    9  C   UNL     1     -43.361  57.503 -58.531  1.00  0.00     0.244 C 
HETATM   10  C   UNL     1     -43.406  58.351 -57.258  1.00  0.00     0.045 C 
HETATM   11  C   UNL     1     -42.370  57.846 -56.241  1.00  0.00     0.022 C 
HETATM   12  C   UNL     1     -41.289  55.949 -55.022  1.00  0.00     0.039 C 
HETATM   13  C   UNL     1     -41.405  54.615 -54.296  1.00  0.00     0.236 C 
ENDROOT
BRANCH   7  14
HETATM   14  C   UNL     1     -43.600  55.207 -59.422  1.00  0.00     0.188 A 
HETATM   15  C   UNL     1     -44.825  54.380 -59.687  1.00  0.00     0.035 A 
HETATM   16  C   UNL     1     -44.561  55.613 -60.503  1.00  0.00     0.035 A 
ENDBRANCH   7  14
BRANCH  10  17
HETATM   17  C   UNL     1     -43.212  59.822 -57.564  1.00  0.00    -0.052 A 
HETATM   18  C   UNL     1     -44.333  60.632 -57.809  1.00  0.00     0.007 A 
HETATM   19  C   UNL     1     -44.183  61.991 -58.085  1.00  0.00     0.001 A 
HETATM   20  C   UNL     1     -42.913  62.560 -58.122  1.00  0.00     0.000 A 
HETATM   21  C   UNL     1     -41.791  61.771 -57.883  1.00  0.00     0.001 A 
HETATM   22  C   UNL     1     -41.937  60.410 -57.606  1.00  0.00     0.007 A 
ENDBRANCH  10  17
BRANCH   1  23
HETATM   23  C   UNL     1     -42.484  55.456 -52.138  1.00  0.00     0.323 C 
BRANCH  23  24
HETATM   24  C   UNL     1     -41.758  54.720 -51.077  1.00  0.00     0.198 A 
HETATM   25  O   UNL     1     -41.441  53.423 -51.317  1.00  0.00    -0.194 OA
HETATM   26  N   UNL     1     -40.800  52.967 -50.169  1.00  0.00    -0.112 NA
HETATM   27  C   UNL     1     -40.804  54.032 -49.357  1.00  0.00     0.152 A 
HETATM   28  C   UNL     1     -40.259  53.986 -47.985  1.00  0.00     0.096 C 
HETATM   29  N   UNL     1     -41.377  55.164 -49.899  1.00  0.00    -0.208 NA
ENDBRANCH  23  24
ENDBRANCH   1  23
TORSDOF 4
ENDMDL
MODEL 9
REMARK VINA RESULT:      -6.7     18.321     22.028
REMARK  4 active torsions:
REMARK  status: ('A' for Active; 'I' for Inactive)
REMARK    1  A    between atoms: C_5  and  C_6 
REMARK    2  A    between atoms: C_6  and  N_7 
REMARK    3  A    between atoms: N_13  and  C_15 
REMARK    4  A    between atoms: C_19  and  C_20 
ROOT
HETATM    1  N   UNL     1     -32.955  38.784 -48.652  1.00  0.00    -0.064 N 
HETATM    2  H   UNL     1     -33.454  39.068 -47.788  1.00  0.00     0.280 HD
HETATM    3  C   UNL     1     -32.693  40.058 -49.396  1.00  0.00     0.236 C 
HETATM    4  C   UNL     1     -32.131  39.776 -50.794  1.00  0.00     0.039 C 
HETATM    5  C   UNL     1     -32.924  38.733 -51.637  1.00  0.00    -0.013 C 
HETATM    6  C   UNL     1     -34.231  39.321 -52.240  1.00  0.00     0.245 C 
HETATM    7  N   UNL     1     -33.960  40.319 -53.344  1.00  0.00    -0.065 N 
HETATM    8  H   UNL     1     -33.446  41.133 -52.980  1.00  0.00     0.280 HD
HETATM    9  C   UNL     1     -33.116  39.741 -54.478  1.00  0.00     0.244 C 
HETATM   10  C   UNL     1     -31.787  39.240 -53.908  1.00  0.00     0.045 C 
HETATM   11  C   UNL     1     -32.035  38.205 -52.799  1.00  0.00     0.022 C 
HETATM   12  C   UNL     1     -33.262  37.504 -50.737  1.00  0.00     0.039 C 
HETATM   13  C   UNL     1     -33.864  37.852 -49.382  1.00  0.00     0.236 C 
ENDROOT
BRANCH   7  14
HETATM   14  C   UNL     1     -35.249  40.857 -53.909  1.00  0.00     0.188 A 
HETATM   15  C   UNL     1     -35.601  42.278 -53.570  1.00  0.00     0.035 A 
HETATM   16  C   UNL     1     -35.138  41.928 -54.956  1.00  0.00     0.035 A 
ENDBRANCH   7  14
BRANCH  10  17
HETATM   17  C   UNL     1     -30.891  38.684 -54.996  1.00  0.00    -0.052 A 
HETATM   18  C   UNL     1     -30.355  37.393 -54.861  1.00  0.00     0.007 A 
HETATM   19  C   UNL     1     -29.534  36.855 -55.852  1.00  0.00     0.001 A 
HETATM   20  C   UNL     1     -29.236  37.597 -56.992  1.00  0.00     0.000 A 
HETATM   21  C   UNL     1     -29.758  38.879 -57.141  1.00  0.00     0.001 A 
HETATM   22  C   UNL     1     -30.580  39.422 -56.151  1.00  0.00     0.007 A 
ENDBRANCH  10  17
BRANCH   1  23
HETATM   23  C   UNL     1     -31.691  38.113 -48.063  1.00  0.00     0.323 C 
BRANCH  23  24
HETATM   24  C   UNL     1     -30.915  39.046 -47.214  1.00  0.00     0.198 A 
HETATM   25  O   UNL     1     -29.829  39.643 -47.766  1.00  0.00    -0.194 OA
HETATM   26  N   UNL     1     -29.274  40.432 -46.764  1.00  0.00    -0.112 NA
HETATM   27  C   UNL     1     -30.077  40.223 -45.712  1.00  0.00     0.152 A 
HETATM   28  C   UNL     1     -29.830  40.836 -44.391  1.00  0.00     0.096 C 
HETATM   29  N   UNL     1     -31.136  39.375 -45.959  1.00  0.00    -0.208 NA
ENDBRANCH  23  24
ENDBRANCH   1  23
TORSDOF 4
ENDMDL
MODEL 10
REMARK VINA RESULT:      -6.6      3.831      6.043
REMARK  4 active torsions:
REMARK  status: ('A' for Active; 'I' for Inactive)
REMARK    1  A    between atoms: C_5  and  C_6 
REMARK    2  A    between atoms: C_6  and  N_7 
REMARK    3  A    between atoms: N_13  and  C_15 
REMARK    4  A    between atoms: C_19  and  C_20 
ROOT
HETATM    1  N   UNL     1     -43.244  56.222 -53.990  1.00  0.00    -0.064 N 
HETATM    2  H   UNL     1     -43.739  55.534 -53.391  1.00  0.00     0.280 HD
HETATM    3  C   UNL     1     -44.294  57.201 -54.421  1.00  0.00     0.236 C 
HETATM    4  C   UNL     1     -43.746  58.169 -55.476  1.00  0.00     0.039 C 
HETATM    5  C   UNL     1     -43.005  57.505 -56.675  1.00  0.00    -0.013 C 
HETATM    6  C   UNL     1     -43.984  56.876 -57.708  1.00  0.00     0.245 C 
HETATM    7  N   UNL     1     -44.751  57.920 -58.487  1.00  0.00    -0.065 N 
HETATM    8  H   UNL     1     -45.348  58.476 -57.861  1.00  0.00     0.280 HD
HETATM    9  C   UNL     1     -43.842  58.909 -59.216  1.00  0.00     0.244 C 
HETATM   10  C   UNL     1     -42.935  59.601 -58.195  1.00  0.00     0.045 C 
HETATM   11  C   UNL     1     -42.126  58.561 -57.405  1.00  0.00     0.022 C 
HETATM   12  C   UNL     1     -42.035  56.412 -56.130  1.00  0.00     0.039 C 
HETATM   13  C   UNL     1     -42.656  55.451 -55.125  1.00  0.00     0.236 C 
ENDROOT
BRANCH   7  14
HETATM   14  C   UNL     1     -45.678  57.272 -59.483  1.00  0.00     0.188 A 
HETATM   15  C   UNL     1     -47.144  57.565 -59.338  1.00  0.00     0.035 A 
HETATM   16  C   UNL     1     -46.363  58.179 -60.465  1.00  0.00     0.035 A 
ENDBRANCH   7  14
BRANCH  10  17
HETATM   17  C   UNL     1     -42.032  60.621 -58.858  1.00  0.00    -0.052 A 
HETATM   18  C   UNL     1     -42.030  60.739 -60.257  1.00  0.00     0.007 A 
HETATM   19  C   UNL     1     -41.214  61.676 -60.892  1.00  0.00     0.001 A 
HETATM   20  C   UNL     1     -40.388  62.507 -60.139  1.00  0.00     0.000 A 
HETATM   21  C   UNL     1     -40.377  62.401 -58.751  1.00  0.00     0.001 A 
HETATM   22  C   UNL     1     -41.192  61.465 -58.112  1.00  0.00     0.007 A 
ENDBRANCH  10  17
BRANCH   1  23
HETATM   23  C   UNL     1     -42.203  56.792 -52.997  1.00  0.00     0.323 C 
BRANCH  23  24
HETATM   24  C   UNL     1     -42.130  55.992 -51.753  1.00  0.00     0.198 A 
HETATM   25  O   UNL     1     -43.194  55.208 -51.447  1.00  0.00    -0.194 OA
HETATM   26  N   UNL     1     -42.885  54.597 -50.236  1.00  0.00    -0.112 NA
HETATM   27  C   UNL     1     -41.673  55.081 -49.935  1.00  0.00     0.152 A 
HETATM   28  C   UNL     1     -40.966  54.733 -48.686  1.00  0.00     0.096 C 
HETATM   29  N   UNL     1     -41.151  55.945 -50.876  1.00  0.00    -0.208 NA
ENDBRANCH  23  24
ENDBRANCH   1  23
TORSDOF 4
ENDMDL
