MODEL 1
REMARK VINA RESULT:      -7.8      0.000      0.000
REMARK  7 active torsions:
REMARK  status: ('A' for Active; 'I' for Inactive)
REMARK       I    between atoms: N_2  and  C_3 
REMARK    1  A    between atoms: N_2  and  C_17 
REMARK       I    between atoms: C_3  and  N_4 
REMARK    2  A    between atoms: N_4  and  C_5 
REMARK    3  A    between atoms: N_6  and  C_7 
REMARK    4  A    between atoms: C_17  and  C_18 
REMARK    5  A    between atoms: C_18  and  C_19 
REMARK    6  A    between atoms: C_19  and  O_20 
REMARK    7  A    between atoms: C_19  and  C_21 
ROOT
HETATM    1  C   UNL     1     -41.898  56.098 -51.919  1.00  0.00     0.154 C 
HETATM    2  N   UNL     1     -42.805  55.803 -53.018  1.00  0.00    -0.343 N 
HETATM    3  C   UNL     1     -43.078  56.842 -53.912  1.00  0.00     0.301 C 
HETATM    4  N   UNL     1     -44.016  56.521 -54.884  1.00  0.00    -0.194 NA
HETATM    5  O   UNL     1     -42.541  57.943 -53.802  1.00  0.00    -0.254 OA
HETATM    6  H   UNL     1     -44.795  56.040 -54.447  1.00  0.00     0.140 HD
ENDROOT
BRANCH   2   7
HETATM    7  C   UNL     1     -43.032  54.391 -53.325  1.00  0.00     0.129 C 
BRANCH   7   8
HETATM    8  C   UNL     1     -42.133  53.828 -54.435  1.00  0.00     0.056 C 
BRANCH   8   9
HETATM    9  C   UNL     1     -40.662  53.592 -54.051  1.00  0.00     0.152 C 
BRANCH   9  10
HETATM   10  O   UNL     1     -39.846  53.955 -55.170  1.00  0.00    -0.391 OA
HETATM   11  H   UNL     1     -40.353  53.750 -55.975  1.00  0.00     0.210 HD
ENDBRANCH   9  10
BRANCH   9  12
HETATM   12  C   UNL     1     -40.235  52.220 -53.566  1.00  0.00    -0.030 A 
HETATM   13  C   UNL     1     -39.882  52.050 -52.212  1.00  0.00     0.010 A 
HETATM   14  C   UNL     1     -39.519  50.800 -51.706  1.00  0.00     0.001 A 
HETATM   15  C   UNL     1     -39.505  49.691 -52.542  1.00  0.00     0.000 A 
HETATM   16  C   UNL     1     -39.867  49.831 -53.880  1.00  0.00     0.001 A 
HETATM   17  C   UNL     1     -40.242  51.082 -54.383  1.00  0.00     0.010 A 
ENDBRANCH   9  12
ENDBRANCH   8   9
ENDBRANCH   7   8
ENDBRANCH   2   7
BRANCH   4  18
HETATM   18  C   UNL     1     -44.405  57.544 -55.739  1.00  0.00     0.109 A 
HETATM   19  N   UNL     1     -43.707  57.969 -56.855  1.00  0.00    -0.254 N 
HETATM   20  N   UNL     1     -44.306  59.035 -57.446  1.00  0.00    -0.183 NA
HETATM   21  C   UNL     1     -45.417  59.224 -56.735  1.00  0.00     0.142 A 
HETATM   22  C   UNL     1     -45.554  58.296 -55.692  1.00  0.00     0.065 A 
BRANCH  19  23
HETATM   23  C   UNL     1     -42.671  57.222 -57.576  1.00  0.00     0.111 C 
HETATM   24  C   UNL     1     -43.055  55.758 -57.901  1.00  0.00     0.027 C 
HETATM   25  C   UNL     1     -43.948  55.604 -59.137  1.00  0.00     0.002 C 
HETATM   26  C   UNL     1     -43.402  56.356 -60.345  1.00  0.00     0.000 C 
HETATM   27  C   UNL     1     -43.110  57.814 -60.016  1.00  0.00     0.002 C 
HETATM   28  C   UNL     1     -42.153  57.929 -58.835  1.00  0.00     0.027 C 
ENDBRANCH  19  23
ENDBRANCH   4  18
TORSDOF 7
ENDMDL
MODEL 2
REMARK VINA RESULT:      -7.8      1.715      2.741
REMARK  7 active torsions:
REMARK  status: ('A' for Active; 'I' for Inactive)
REMARK       I    between atoms: N_2  and  C_3 
REMARK    1  A    between atoms: N_2  and  C_17 
REMARK       I    between atoms: C_3  and  N_4 
REMARK    2  A    between atoms: N_4  and  C_5 
REMARK    3  A    between atoms: N_6  and  C_7 
REMARK    4  A    between atoms: C_17  and  C_18 
REMARK    5  A    between atoms: C_18  and  C_19 
REMARK    6  A    between atoms: C_19  and  O_20 
REMARK    7  A    between atoms: C_19  and  C_21 
ROOT
HETATM    1  C   UNL     1     -43.172  57.039 -53.487  1.00  0.00     0.154 C 
HETATM    2  N   UNL     1     -42.487  56.457 -54.632  1.00  0.00    -0.343 N 
HETATM    3  C   UNL     1     -43.102  56.599 -55.879  1.00  0.00     0.301 C 
HETATM    4  N   UNL     1     -42.443  55.947 -56.912  1.00  0.00    -0.194 NA
HETATM    5  O   UNL     1     -44.153  57.225 -56.011  1.00  0.00    -0.254 OA
HETATM    6  H   UNL     1     -42.178  55.018 -56.604  1.00  0.00     0.140 HD
ENDROOT
BRANCH   2   7
HETATM    7  C   UNL     1     -41.069  56.140 -54.460  1.00  0.00     0.129 C 
BRANCH   7   8
HETATM    8  C   UNL     1     -40.794  54.876 -53.635  1.00  0.00     0.056 C 
BRANCH   8   9
HETATM    9  C   UNL     1     -40.744  53.557 -54.425  1.00  0.00     0.152 C 
BRANCH   9  10
HETATM   10  O   UNL     1     -42.039  53.325 -54.989  1.00  0.00    -0.391 OA
HETATM   11  H   UNL     1     -42.009  52.458 -55.430  1.00  0.00     0.210 HD
ENDBRANCH   9  10
BRANCH   9  12
HETATM   12  C   UNL     1     -40.287  52.290 -53.724  1.00  0.00    -0.030 A 
HETATM   13  C   UNL     1     -39.994  52.336 -52.347  1.00  0.00     0.010 A 
HETATM   14  C   UNL     1     -39.608  51.192 -51.646  1.00  0.00     0.001 A 
HETATM   15  C   UNL     1     -39.511  49.974 -52.308  1.00  0.00     0.000 A 
HETATM   16  C   UNL     1     -39.813  49.901 -53.665  1.00  0.00     0.001 A 
HETATM   17  C   UNL     1     -40.211  51.046 -54.363  1.00  0.00     0.010 A 
ENDBRANCH   9  12
ENDBRANCH   8   9
ENDBRANCH   7   8
ENDBRANCH   2   7
BRANCH   4  18
HETATM   18  C   UNL     1     -43.060  55.965 -58.156  1.00  0.00     0.109 A 
HETATM   19  N   UNL     1     -42.955  56.977 -59.094  1.00  0.00    -0.254 N 
HETATM   20  N   UNL     1     -43.732  56.737 -60.181  1.00  0.00    -0.183 NA
HETATM   21  C   UNL     1     -44.263  55.538 -59.948  1.00  0.00     0.142 A 
HETATM   22  C   UNL     1     -43.842  54.990 -58.727  1.00  0.00     0.065 A 
BRANCH  19  23
HETATM   23  C   UNL     1     -41.914  58.010 -59.152  1.00  0.00     0.111 C 
HETATM   24  C   UNL     1     -41.759  58.675 -60.541  1.00  0.00     0.027 C 
HETATM   25  C   UNL     1     -42.788  59.774 -60.828  1.00  0.00     0.002 C 
HETATM   26  C   UNL     1     -42.889  60.786 -59.693  1.00  0.00     0.000 C 
HETATM   27  C   UNL     1     -43.122  60.106 -58.351  1.00  0.00     0.002 C 
HETATM   28  C   UNL     1     -42.034  59.079 -58.059  1.00  0.00     0.027 C 
ENDBRANCH  19  23
ENDBRANCH   4  18
TORSDOF 7
ENDMDL
MODEL 3
REMARK VINA RESULT:      -7.8      1.779      2.850
REMARK  7 active torsions:
REMARK  status: ('A' for Active; 'I' for Inactive)
REMARK       I    between atoms: N_2  and  C_3 
REMARK    1  A    between atoms: N_2  and  C_17 
REMARK       I    between atoms: C_3  and  N_4 
REMARK    2  A    between atoms: N_4  and  C_5 
REMARK    3  A    between atoms: N_6  and  C_7 
REMARK    4  A    between atoms: C_17  and  C_18 
REMARK    5  A    between atoms: C_18  and  C_19 
REMARK    6  A    between atoms: C_19  and  O_20 
REMARK    7  A    between atoms: C_19  and  C_21 
ROOT
HETATM    1  C   UNL     1     -43.327  56.461 -54.005  1.00  0.00     0.154 C 
HETATM    2  N   UNL     1     -43.293  56.049 -55.401  1.00  0.00    -0.343 N 
HETATM    3  C   UNL     1     -43.794  56.953 -56.342  1.00  0.00     0.301 C 
HETATM    4  N   UNL     1     -43.813  56.465 -57.641  1.00  0.00    -0.194 NA
HETATM    5  O   UNL     1     -44.206  58.064 -56.011  1.00  0.00    -0.254 OA
HETATM    6  H   UNL     1     -44.177  55.518 -57.635  1.00  0.00     0.140 HD
ENDROOT
BRANCH   2   7
HETATM    7  C   UNL     1     -42.400  54.941 -55.739  1.00  0.00     0.129 C 
BRANCH   7   8
HETATM    8  C   UNL     1     -42.245  53.887 -54.633  1.00  0.00     0.056 C 
BRANCH   8   9
HETATM    9  C   UNL     1     -40.825  53.711 -54.069  1.00  0.00     0.152 C 
BRANCH   9  10
HETATM   10  O   UNL     1     -39.892  54.140 -55.067  1.00  0.00    -0.391 OA
HETATM   11  H   UNL     1     -39.470  53.342 -55.429  1.00  0.00     0.210 HD
ENDBRANCH   9  10
BRANCH   9  12
HETATM   12  C   UNL     1     -40.394  52.349 -53.558  1.00  0.00    -0.030 A 
HETATM   13  C   UNL     1     -40.428  51.246 -54.434  1.00  0.00     0.010 A 
HETATM   14  C   UNL     1     -40.005  49.979 -54.026  1.00  0.00     0.001 A 
HETATM   15  C   UNL     1     -39.536  49.789 -52.732  1.00  0.00     0.000 A 
HETATM   16  C   UNL     1     -39.478  50.868 -51.854  1.00  0.00     0.001 A 
HETATM   17  C   UNL     1     -39.890  52.139 -52.268  1.00  0.00     0.010 A 
ENDBRANCH   9  12
ENDBRANCH   8   9
ENDBRANCH   7   8
ENDBRANCH   2   7
BRANCH   4  18
HETATM   18  C   UNL     1     -44.396  57.277 -58.605  1.00  0.00     0.109 A 
HETATM   19  N   UNL     1     -43.767  58.315 -59.270  1.00  0.00    -0.254 N 
HETATM   20  N   UNL     1     -44.620  58.967 -60.102  1.00  0.00    -0.183 NA
HETATM   21  C   UNL     1     -45.760  58.285 -60.005  1.00  0.00     0.142 A 
HETATM   22  C   UNL     1     -45.664  57.196 -59.127  1.00  0.00     0.065 A 
BRANCH  19  23
HETATM   23  C   UNL     1     -42.320  58.525 -59.395  1.00  0.00     0.111 C 
HETATM   24  C   UNL     1     -41.865  58.979 -60.803  1.00  0.00     0.027 C 
HETATM   25  C   UNL     1     -42.050  60.478 -61.069  1.00  0.00     0.002 C 
HETATM   26  C   UNL     1     -41.475  61.341 -59.952  1.00  0.00     0.000 C 
HETATM   27  C   UNL     1     -42.004  60.922 -58.587  1.00  0.00     0.002 C 
HETATM   28  C   UNL     1     -41.729  59.447 -58.321  1.00  0.00     0.027 C 
ENDBRANCH  19  23
ENDBRANCH   4  18
TORSDOF 7
ENDMDL
MODEL 4
REMARK VINA RESULT:      -7.7      1.973      3.259
REMARK  7 active torsions:
REMARK  status: ('A' for Active; 'I' for Inactive)
REMARK       I    between atoms: N_2  and  C_3 
REMARK    1  A    between atoms: N_2  and  C_17 
REMARK       I    between atoms: C_3  and  N_4 
REMARK    2  A    between atoms: N_4  and  C_5 
REMARK    3  A    between atoms: N_6  and  C_7 
REMARK    4  A    between atoms: C_17  and  C_18 
REMARK    5  A    between atoms: C_18  and  C_19 
REMARK    6  A    between atoms: C_19  and  O_20 
REMARK    7  A    between atoms: C_19  and  C_21 
ROOT
HETATM    1  C   UNL     1     -43.833  58.202 -53.960  1.00  0.00     0.154 C 
HETATM    2  N   UNL     1     -42.903  57.588 -54.897  1.00  0.00    -0.343 N 
HETATM    3  C   UNL     1     -43.007  57.972 -56.237  1.00  0.00     0.301 C 
HETATM    4  N   UNL     1     -42.152  57.286 -57.089  1.00  0.00    -0.194 NA
HETATM    5  O   UNL     1     -43.817  58.822 -56.603  1.00  0.00    -0.254 OA
HETATM    6  H   UNL     1     -42.179  56.298 -56.863  1.00  0.00     0.140 HD
ENDROOT
BRANCH   2   7
HETATM    7  C   UNL     1     -41.715  56.955 -54.326  1.00  0.00     0.129 C 
BRANCH   7   8
HETATM    8  C   UNL     1     -41.994  56.047 -53.120  1.00  0.00     0.056 C 
BRANCH   8   9
HETATM    9  C   UNL     1     -42.446  54.614 -53.449  1.00  0.00     0.152 C 
BRANCH   9  10
HETATM   10  O   UNL     1     -43.637  54.340 -52.703  1.00  0.00    -0.391 OA
HETATM   11  H   UNL     1     -43.385  54.297 -51.764  1.00  0.00     0.210 HD
ENDBRANCH   9  10
BRANCH   9  12
HETATM   12  C   UNL     1     -41.475  53.466 -53.249  1.00  0.00    -0.030 A 
HETATM   13  C   UNL     1     -41.225  52.584 -54.319  1.00  0.00     0.010 A 
HETATM   14  C   UNL     1     -40.311  51.535 -54.199  1.00  0.00     0.001 A 
HETATM   15  C   UNL     1     -39.623  51.349 -53.007  1.00  0.00     0.000 A 
HETATM   16  C   UNL     1     -39.840  52.219 -51.941  1.00  0.00     0.001 A 
HETATM   17  C   UNL     1     -40.747  53.276 -52.067  1.00  0.00     0.010 A 
ENDBRANCH   9  12
ENDBRANCH   8   9
ENDBRANCH   7   8
ENDBRANCH   2   7
BRANCH   4  18
HETATM   18  C   UNL     1     -42.280  57.549 -58.447  1.00  0.00     0.109 A 
HETATM   19  N   UNL     1     -43.143  56.903 -59.315  1.00  0.00    -0.254 N 
HETATM   20  N   UNL     1     -42.986  57.334 -60.592  1.00  0.00    -0.183 NA
HETATM   21  C   UNL     1     -42.074  58.301 -60.504  1.00  0.00     0.142 A 
HETATM   22  C   UNL     1     -41.637  58.511 -59.188  1.00  0.00     0.065 A 
BRANCH  19  23
HETATM   23  C   UNL     1     -44.330  56.121 -58.948  1.00  0.00     0.111 C 
HETATM   24  C   UNL     1     -45.640  56.944 -58.898  1.00  0.00     0.027 C 
HETATM   25  C   UNL     1     -46.286  57.178 -60.269  1.00  0.00     0.002 C 
HETATM   26  C   UNL     1     -46.423  55.890 -61.073  1.00  0.00     0.000 C 
HETATM   27  C   UNL     1     -45.099  55.144 -61.173  1.00  0.00     0.002 C 
HETATM   28  C   UNL     1     -44.527  54.855 -59.790  1.00  0.00     0.027 C 
ENDBRANCH  19  23
ENDBRANCH   4  18
TORSDOF 7
ENDMDL
MODEL 5
REMARK VINA RESULT:      -7.6      1.485      2.024
REMARK  7 active torsions:
REMARK  status: ('A' for Active; 'I' for Inactive)
REMARK       I    between atoms: N_2  and  C_3 
REMARK    1  A    between atoms: N_2  and  C_17 
REMARK       I    between atoms: C_3  and  N_4 
REMARK    2  A    between atoms: N_4  and  C_5 
REMARK    3  A    between atoms: N_6  and  C_7 
REMARK    4  A    between atoms: C_17  and  C_18 
REMARK    5  A    between atoms: C_18  and  C_19 
REMARK    6  A    between atoms: C_19  and  O_20 
REMARK    7  A    between atoms: C_19  and  C_21 
ROOT
HETATM    1  C   UNL     1     -43.563  56.378 -52.214  1.00  0.00     0.154 C 
HETATM    2  N   UNL     1     -42.613  56.658 -53.280  1.00  0.00    -0.343 N 
HETATM    3  C   UNL     1     -42.962  57.657 -54.194  1.00  0.00     0.301 C 
HETATM    4  N   UNL     1     -42.056  57.813 -55.234  1.00  0.00    -0.194 NA
HETATM    5  O   UNL     1     -44.004  58.300 -54.078  1.00  0.00    -0.254 OA
HETATM    6  H   UNL     1     -41.795  56.900 -55.589  1.00  0.00     0.140 HD
ENDROOT
BRANCH   2   7
HETATM    7  C   UNL     1     -41.244  56.182 -53.085  1.00  0.00     0.129 C 
BRANCH   7   8
HETATM    8  C   UNL     1     -41.135  54.705 -52.684  1.00  0.00     0.056 C 
BRANCH   8   9
HETATM    9  C   UNL     1     -40.538  53.764 -53.745  1.00  0.00     0.152 C 
BRANCH   9  10
HETATM   10  O   UNL     1     -41.407  53.768 -54.883  1.00  0.00    -0.391 OA
HETATM   11  H   UNL     1     -41.265  52.929 -55.357  1.00  0.00     0.210 HD
ENDBRANCH   9  10
BRANCH   9  12
HETATM   12  C   UNL     1     -40.234  52.325 -53.373  1.00  0.00    -0.030 A 
HETATM   13  C   UNL     1     -40.336  51.325 -54.360  1.00  0.00     0.010 A 
HETATM   14  C   UNL     1     -40.030  49.992 -54.080  1.00  0.00     0.001 A 
HETATM   15  C   UNL     1     -39.611  49.631 -52.805  1.00  0.00     0.000 A 
HETATM   16  C   UNL     1     -39.486  50.604 -51.818  1.00  0.00     0.001 A 
HETATM   17  C   UNL     1     -39.782  51.942 -52.104  1.00  0.00     0.010 A 
ENDBRANCH   9  12
ENDBRANCH   8   9
ENDBRANCH   7   8
ENDBRANCH   2   7
BRANCH   4  18
HETATM   18  C   UNL     1     -42.398  58.719 -56.230  1.00  0.00     0.109 A 
HETATM   19  N   UNL     1     -43.101  58.419 -57.384  1.00  0.00    -0.254 N 
HETATM   20  N   UNL     1     -43.217  59.501 -58.196  1.00  0.00    -0.183 NA
HETATM   21  C   UNL     1     -42.649  60.491 -57.509  1.00  0.00     0.142 A 
HETATM   22  C   UNL     1     -42.167  60.072 -56.260  1.00  0.00     0.065 A 
BRANCH  19  23
HETATM   23  C   UNL     1     -43.940  57.238 -57.615  1.00  0.00     0.111 C 
HETATM   24  C   UNL     1     -45.138  57.487 -58.563  1.00  0.00     0.027 C 
HETATM   25  C   UNL     1     -44.778  57.454 -60.052  1.00  0.00     0.002 C 
HETATM   26  C   UNL     1     -43.972  56.216 -60.427  1.00  0.00     0.000 C 
HETATM   27  C   UNL     1     -42.754  56.042 -59.529  1.00  0.00     0.002 C 
HETATM   28  C   UNL     1     -43.158  55.995 -58.060  1.00  0.00     0.027 C 
ENDBRANCH  19  23
ENDBRANCH   4  18
TORSDOF 7
ENDMDL
MODEL 6
REMARK VINA RESULT:      -7.6      1.991      2.981
REMARK  7 active torsions:
REMARK  status: ('A' for Active; 'I' for Inactive)
REMARK       I    between atoms: N_2  and  C_3 
REMARK    1  A    between atoms: N_2  and  C_17 
REMARK       I    between atoms: C_3  and  N_4 
REMARK    2  A    between atoms: N_4  and  C_5 
REMARK    3  A    between atoms: N_6  and  C_7 
REMARK    4  A    between atoms: C_17  and  C_18 
REMARK    5  A    between atoms: C_18  and  C_19 
REMARK    6  A    between atoms: C_19  and  O_20 
REMARK    7  A    between atoms: C_19  and  C_21 
ROOT
HETATM    1  C   UNL     1     -44.378  59.813 -52.760  1.00  0.00     0.154 C 
HETATM    2  N   UNL     1     -44.855  58.661 -53.510  1.00  0.00    -0.343 N 
HETATM    3  C   UNL     1     -45.041  58.833 -54.885  1.00  0.00     0.301 C 
HETATM    4  N   UNL     1     -45.580  57.725 -55.526  1.00  0.00    -0.194 NA
HETATM    5  O   UNL     1     -44.772  59.895 -55.443  1.00  0.00    -0.254 OA
HETATM    6  H   UNL     1     -46.349  57.363 -54.973  1.00  0.00     0.140 HD
ENDROOT
BRANCH   2   7
HETATM    7  C   UNL     1     -44.718  57.354 -52.869  1.00  0.00     0.129 C 
BRANCH   7   8
HETATM    8  C   UNL     1     -43.308  56.752 -52.946  1.00  0.00     0.056 C 
BRANCH   8   9
HETATM    9  C   UNL     1     -43.092  55.687 -54.034  1.00  0.00     0.152 C 
BRANCH   9  10
HETATM   10  O   UNL     1     -44.359  55.095 -54.337  1.00  0.00    -0.391 OA
HETATM   11  H   UNL     1     -44.270  54.648 -55.197  1.00  0.00     0.210 HD
ENDBRANCH   9  10
BRANCH   9  12
HETATM   12  C   UNL     1     -42.084  54.577 -53.796  1.00  0.00    -0.030 A 
HETATM   13  C   UNL     1     -41.334  54.087 -54.883  1.00  0.00     0.010 A 
HETATM   14  C   UNL     1     -40.367  53.094 -54.710  1.00  0.00     0.001 A 
HETATM   15  C   UNL     1     -40.126  52.574 -53.445  1.00  0.00     0.000 A 
HETATM   16  C   UNL     1     -40.843  53.056 -52.353  1.00  0.00     0.001 A 
HETATM   17  C   UNL     1     -41.803  54.058 -52.525  1.00  0.00     0.010 A 
ENDBRANCH   9  12
ENDBRANCH   8   9
ENDBRANCH   7   8
ENDBRANCH   2   7
BRANCH   4  18
HETATM   18  C   UNL     1     -45.884  57.869 -56.873  1.00  0.00     0.109 A 
HETATM   19  N   UNL     1     -45.008  57.659 -57.923  1.00  0.00    -0.254 N 
HETATM   20  N   UNL     1     -45.580  57.950 -59.120  1.00  0.00    -0.183 NA
HETATM   21  C   UNL     1     -46.836  58.271 -58.814  1.00  0.00     0.142 A 
HETATM   22  C   UNL     1     -47.094  58.190 -57.438  1.00  0.00     0.065 A 
BRANCH  19  23
HETATM   23  C   UNL     1     -43.755  56.896 -57.878  1.00  0.00     0.111 C 
HETATM   24  C   UNL     1     -43.509  56.009 -59.122  1.00  0.00     0.027 C 
HETATM   25  C   UNL     1     -42.941  56.764 -60.329  1.00  0.00     0.002 C 
HETATM   26  C   UNL     1     -41.735  57.621 -59.962  1.00  0.00     0.000 C 
HETATM   27  C   UNL     1     -42.034  58.542 -58.787  1.00  0.00     0.002 C 
HETATM   28  C   UNL     1     -42.516  57.749 -57.578  1.00  0.00     0.027 C 
ENDBRANCH  19  23
ENDBRANCH   4  18
TORSDOF 7
ENDMDL
MODEL 7
REMARK VINA RESULT:      -7.6      1.849      2.925
REMARK  7 active torsions:
REMARK  status: ('A' for Active; 'I' for Inactive)
REMARK       I    between atoms: N_2  and  C_3 
REMARK    1  A    between atoms: N_2  and  C_17 
REMARK       I    between atoms: C_3  and  N_4 
REMARK    2  A    between atoms: N_4  and  C_5 
REMARK    3  A    between atoms: N_6  and  C_7 
REMARK    4  A    between atoms: C_17  and  C_18 
REMARK    5  A    between atoms: C_18  and  C_19 
REMARK    6  A    between atoms: C_19  and  O_20 
REMARK    7  A    between atoms: C_19  and  C_21 
ROOT
HETATM    1  C   UNL     1     -43.187  56.609 -53.775  1.00  0.00     0.154 C 
HETATM    2  N   UNL     1     -43.204  55.926 -55.061  1.00  0.00    -0.343 N 
HETATM    3  C   UNL     1     -43.141  56.727 -56.205  1.00  0.00     0.301 C 
HETATM    4  N   UNL     1     -43.249  56.022 -57.396  1.00  0.00    -0.194 NA
HETATM    5  O   UNL     1     -43.031  57.950 -56.130  1.00  0.00    -0.254 OA
HETATM    6  H   UNL     1     -44.003  55.348 -57.316  1.00  0.00     0.140 HD
ENDROOT
BRANCH   2   7
HETATM    7  C   UNL     1     -42.886  54.498 -55.054  1.00  0.00     0.129 C 
BRANCH   7   8
HETATM    8  C   UNL     1     -42.224  54.000 -53.762  1.00  0.00     0.056 C 
BRANCH   8   9
HETATM    9  C   UNL     1     -40.732  53.640 -53.868  1.00  0.00     0.152 C 
BRANCH   9  10
HETATM   10  O   UNL     1     -40.302  53.914 -55.205  1.00  0.00    -0.391 OA
HETATM   11  H   UNL     1     -41.101  54.053 -55.742  1.00  0.00     0.210 HD
ENDBRANCH   9  10
BRANCH   9  12
HETATM   12  C   UNL     1     -40.279  52.242 -53.490  1.00  0.00    -0.030 A 
HETATM   13  C   UNL     1     -39.872  51.988 -52.166  1.00  0.00     0.010 A 
HETATM   14  C   UNL     1     -39.483  50.711 -51.756  1.00  0.00     0.001 A 
HETATM   15  C   UNL     1     -39.496  49.659 -52.664  1.00  0.00     0.000 A 
HETATM   16  C   UNL     1     -39.911  49.883 -53.974  1.00  0.00     0.001 A 
HETATM   17  C   UNL     1     -40.312  51.160 -54.379  1.00  0.00     0.010 A 
ENDBRANCH   9  12
ENDBRANCH   8   9
ENDBRANCH   7   8
ENDBRANCH   2   7
BRANCH   4  18
HETATM   18  C   UNL     1     -43.296  56.771 -58.564  1.00  0.00     0.109 A 
HETATM   19  N   UNL     1     -44.444  57.102 -59.263  1.00  0.00    -0.254 N 
HETATM   20  N   UNL     1     -44.158  57.782 -60.403  1.00  0.00    -0.183 NA
HETATM   21  C   UNL     1     -42.835  57.937 -60.372  1.00  0.00     0.142 A 
HETATM   22  C   UNL     1     -42.254  57.371 -59.228  1.00  0.00     0.065 A 
BRANCH  19  23
HETATM   23  C   UNL     1     -45.818  57.081 -58.749  1.00  0.00     0.111 C 
HETATM   24  C   UNL     1     -46.159  58.258 -57.803  1.00  0.00     0.027 C 
HETATM   25  C   UNL     1     -46.508  59.563 -58.527  1.00  0.00     0.002 C 
HETATM   26  C   UNL     1     -47.550  59.360 -59.621  1.00  0.00     0.000 C 
HETATM   27  C   UNL     1     -47.147  58.250 -60.583  1.00  0.00     0.002 C 
HETATM   28  C   UNL     1     -46.889  56.946 -59.839  1.00  0.00     0.027 C 
ENDBRANCH  19  23
ENDBRANCH   4  18
TORSDOF 7
ENDMDL
MODEL 8
REMARK VINA RESULT:      -7.3      1.927      3.113
REMARK  7 active torsions:
REMARK  status: ('A' for Active; 'I' for Inactive)
REMARK       I    between atoms: N_2  and  C_3 
REMARK    1  A    between atoms: N_2  and  C_17 
REMARK       I    between atoms: C_3  and  N_4 
REMARK    2  A    between atoms: N_4  and  C_5 
REMARK    3  A    between atoms: N_6  and  C_7 
REMARK    4  A    between atoms: C_17  and  C_18 
REMARK    5  A    between atoms: C_18  and  C_19 
REMARK    6  A    between atoms: C_19  and  O_20 
REMARK    7  A    between atoms: C_19  and  C_21 
ROOT
HETATM    1  C   UNL     1     -44.319  57.288 -51.741  1.00  0.00     0.154 C 
HETATM    2  N   UNL     1     -43.220  57.050 -52.665  1.00  0.00    -0.343 N 
HETATM    3  C   UNL     1     -43.534  57.002 -54.026  1.00  0.00     0.301 C 
HETATM    4  N   UNL     1     -42.458  56.685 -54.844  1.00  0.00    -0.194 NA
HETATM    5  O   UNL     1     -44.679  57.197 -54.430  1.00  0.00    -0.254 OA
HETATM    6  H   UNL     1     -41.947  55.909 -54.436  1.00  0.00     0.140 HD
ENDROOT
BRANCH   2   7
HETATM    7  C   UNL     1     -41.868  57.276 -52.153  1.00  0.00     0.129 C 
BRANCH   7   8
HETATM    8  C   UNL     1     -41.333  56.157 -51.249  1.00  0.00     0.056 C 
BRANCH   8   9
HETATM    9  C   UNL     1     -41.945  54.763 -51.474  1.00  0.00     0.152 C 
BRANCH   9  10
HETATM   10  O   UNL     1     -42.287  54.215 -50.197  1.00  0.00    -0.391 OA
HETATM   11  H   UNL     1     -43.009  53.579 -50.341  1.00  0.00     0.210 HD
ENDBRANCH   9  10
BRANCH   9  12
HETATM   12  C   UNL     1     -41.156  53.725 -52.251  1.00  0.00    -0.030 A 
HETATM   13  C   UNL     1     -40.307  52.845 -51.552  1.00  0.00     0.010 A 
HETATM   14  C   UNL     1     -39.589  51.847 -52.214  1.00  0.00     0.001 A 
HETATM   15  C   UNL     1     -39.710  51.704 -53.590  1.00  0.00     0.000 A 
HETATM   16  C   UNL     1     -40.557  52.551 -54.300  1.00  0.00     0.001 A 
HETATM   17  C   UNL     1     -41.284  53.543 -53.634  1.00  0.00     0.010 A 
ENDBRANCH   9  12
ENDBRANCH   8   9
ENDBRANCH   7   8
ENDBRANCH   2   7
BRANCH   4  18
HETATM   18  C   UNL     1     -42.728  56.522 -56.197  1.00  0.00     0.109 A 
HETATM   19  N   UNL     1     -42.850  57.543 -57.122  1.00  0.00    -0.254 N 
HETATM   20  N   UNL     1     -43.187  57.070 -58.350  1.00  0.00    -0.183 NA
HETATM   21  C   UNL     1     -43.202  55.746 -58.199  1.00  0.00     0.142 A 
HETATM   22  C   UNL     1     -42.876  55.348 -56.895  1.00  0.00     0.065 A 
BRANCH  19  23
HETATM   23  C   UNL     1     -42.357  58.917 -56.979  1.00  0.00     0.111 C 
HETATM   24  C   UNL     1     -41.738  59.507 -58.270  1.00  0.00     0.027 C 
HETATM   25  C   UNL     1     -42.767  60.039 -59.272  1.00  0.00     0.002 C 
HETATM   26  C   UNL     1     -43.782  60.972 -58.622  1.00  0.00     0.000 C 
HETATM   27  C   UNL     1     -44.434  60.333 -57.402  1.00  0.00     0.002 C 
HETATM   28  C   UNL     1     -43.385  59.891 -56.389  1.00  0.00     0.027 C 
ENDBRANCH  19  23
ENDBRANCH   4  18
TORSDOF 7
ENDMDL
MODEL 9
REMARK VINA RESULT:      -7.3      3.657      5.156
REMARK  7 active torsions:
REMARK  status: ('A' for Active; 'I' for Inactive)
REMARK       I    between atoms: N_2  and  C_3 
REMARK    1  A    between atoms: N_2  and  C_17 
REMARK       I    between atoms: C_3  and  N_4 
REMARK    2  A    between atoms: N_4  and  C_5 
REMARK    3  A    between atoms: N_6  and  C_7 
REMARK    4  A    between atoms: C_17  and  C_18 
REMARK    5  A    between atoms: C_18  and  C_19 
REMARK    6  A    between atoms: C_19  and  O_20 
REMARK    7  A    between atoms: C_19  and  C_21 
ROOT
HETATM    1  C   UNL     1     -41.402  54.994 -49.670  1.00  0.00     0.154 C 
HETATM    2  N   UNL     1     -42.208  55.464 -50.787  1.00  0.00    -0.343 N 
HETATM    3  C   UNL     1     -41.930  56.745 -51.275  1.00  0.00     0.301 C 
HETATM    4  N   UNL     1     -42.791  57.166 -52.280  1.00  0.00    -0.194 NA
HETATM    5  O   UNL     1     -41.018  57.426 -50.812  1.00  0.00    -0.254 OA
HETATM    6  H   UNL     1     -43.745  56.943 -52.017  1.00  0.00     0.140 HD
ENDROOT
BRANCH   2   7
HETATM    7  C   UNL     1     -42.938  54.450 -51.547  1.00  0.00     0.129 C 
BRANCH   7   8
HETATM    8  C   UNL     1     -42.350  54.145 -52.932  1.00  0.00     0.056 C 
BRANCH   8   9
HETATM    9  C   UNL     1     -40.839  53.855 -52.970  1.00  0.00     0.152 C 
BRANCH   9  10
HETATM   10  O   UNL     1     -40.269  54.599 -54.052  1.00  0.00    -0.391 OA
HETATM   11  H   UNL     1     -39.305  54.599 -53.924  1.00  0.00     0.210 HD
ENDBRANCH   9  10
BRANCH   9  12
HETATM   12  C   UNL     1     -40.364  52.417 -53.067  1.00  0.00    -0.030 A 
HETATM   13  C   UNL     1     -39.871  51.778 -51.913  1.00  0.00     0.010 A 
HETATM   14  C   UNL     1     -39.457  50.444 -51.940  1.00  0.00     0.001 A 
HETATM   15  C   UNL     1     -39.531  49.720 -53.123  1.00  0.00     0.000 A 
HETATM   16  C   UNL     1     -40.031  50.326 -54.273  1.00  0.00     0.001 A 
HETATM   17  C   UNL     1     -40.456  51.658 -54.241  1.00  0.00     0.010 A 
ENDBRANCH   9  12
ENDBRANCH   8   9
ENDBRANCH   7   8
ENDBRANCH   2   7
BRANCH   4  18
HETATM   18  C   UNL     1     -42.631  58.468 -52.734  1.00  0.00     0.109 A 
HETATM   19  N   UNL     1     -43.293  59.580 -52.243  1.00  0.00    -0.254 N 
HETATM   20  N   UNL     1     -42.976  60.701 -52.940  1.00  0.00    -0.183 NA
HETATM   21  C   UNL     1     -42.059  60.296 -53.818  1.00  0.00     0.142 A 
HETATM   22  C   UNL     1     -41.771  58.928 -53.702  1.00  0.00     0.065 A 
BRANCH  19  23
HETATM   23  C   UNL     1     -43.971  59.692 -50.947  1.00  0.00     0.111 C 
HETATM   24  C   UNL     1     -43.851  61.087 -50.287  1.00  0.00     0.027 C 
HETATM   25  C   UNL     1     -44.838  62.126 -50.831  1.00  0.00     0.002 C 
HETATM   26  C   UNL     1     -46.270  61.605 -50.862  1.00  0.00     0.000 C 
HETATM   27  C   UNL     1     -46.369  60.271 -51.589  1.00  0.00     0.002 C 
HETATM   28  C   UNL     1     -45.436  59.238 -50.969  1.00  0.00     0.027 C 
ENDBRANCH  19  23
ENDBRANCH   4  18
TORSDOF 7
ENDMDL
MODEL 10
REMARK VINA RESULT:      -7.1      2.359      3.842
REMARK  7 active torsions:
REMARK  status: ('A' for Active; 'I' for Inactive)
REMARK       I    between atoms: N_2  and  C_3 
REMARK    1  A    between atoms: N_2  and  C_17 
REMARK       I    between atoms: C_3  and  N_4 
REMARK    2  A    between atoms: N_4  and  C_5 
REMARK    3  A    between atoms: N_6  and  C_7 
REMARK    4  A    between atoms: C_17  and  C_18 
REMARK    5  A    between atoms: C_18  and  C_19 
REMARK    6  A    between atoms: C_19  and  O_20 
REMARK    7  A    between atoms: C_19  and  C_21 
ROOT
HETATM    1  C   UNL     1     -44.776  58.920 -54.032  1.00  0.00     0.154 C 
HETATM    2  N   UNL     1     -44.475  57.759 -54.856  1.00  0.00    -0.343 N 
HETATM    3  C   UNL     1     -44.188  57.995 -56.204  1.00  0.00     0.301 C 
HETATM    4  N   UNL     1     -43.997  56.841 -56.952  1.00  0.00    -0.194 NA
HETATM    5  O   UNL     1     -44.148  59.135 -56.663  1.00  0.00    -0.254 OA
HETATM    6  H   UNL     1     -44.722  56.170 -56.720  1.00  0.00     0.140 HD
ENDROOT
BRANCH   2   7
HETATM    7  C   UNL     1     -44.109  56.529 -54.154  1.00  0.00     0.129 C 
BRANCH   7   8
HETATM    8  C   UNL     1     -43.326  56.748 -52.852  1.00  0.00     0.056 C 
BRANCH   8   9
HETATM    9  C   UNL     1     -41.797  56.612 -52.959  1.00  0.00     0.152 C 
BRANCH   9  10
HETATM   10  O   UNL     1     -41.309  57.691 -53.763  1.00  0.00    -0.391 OA
HETATM   11  H   UNL     1     -40.957  57.302 -54.583  1.00  0.00     0.210 HD
ENDBRANCH   9  10
BRANCH   9  12
HETATM   12  C   UNL     1     -41.203  55.315 -53.475  1.00  0.00    -0.030 A 
HETATM   13  C   UNL     1     -41.234  54.171 -52.654  1.00  0.00     0.010 A 
HETATM   14  C   UNL     1     -40.736  52.943 -53.096  1.00  0.00     0.001 A 
HETATM   15  C   UNL     1     -40.200  52.833 -54.373  1.00  0.00     0.000 A 
HETATM   16  C   UNL     1     -40.174  53.946 -55.209  1.00  0.00     0.001 A 
HETATM   17  C   UNL     1     -40.684  55.172 -54.769  1.00  0.00     0.010 A 
ENDBRANCH   9  12
ENDBRANCH   8   9
ENDBRANCH   7   8
ENDBRANCH   2   7
BRANCH   4  18
HETATM   18  C   UNL     1     -43.810  57.007 -58.318  1.00  0.00     0.109 A 
HETATM   19  N   UNL     1     -44.804  56.949 -59.280  1.00  0.00    -0.254 N 
HETATM   20  N   UNL     1     -44.297  57.079 -60.533  1.00  0.00    -0.183 NA
HETATM   21  C   UNL     1     -42.996  57.291 -60.342  1.00  0.00     0.142 A 
HETATM   22  C   UNL     1     -42.646  57.305 -58.984  1.00  0.00     0.065 A 
BRANCH  19  23
HETATM   23  C   UNL     1     -46.247  57.091 -59.056  1.00  0.00     0.111 C 
HETATM   24  C   UNL     1     -46.760  58.550 -59.136  1.00  0.00     0.027 C 
HETATM   25  C   UNL     1     -46.986  59.058 -60.564  1.00  0.00     0.002 C 
HETATM   26  C   UNL     1     -47.817  58.090 -61.399  1.00  0.00     0.000 C 
HETATM   27  C   UNL     1     -47.241  56.681 -61.367  1.00  0.00     0.002 C 
HETATM   28  C   UNL     1     -47.108  56.175 -59.936  1.00  0.00     0.027 C 
ENDBRANCH  19  23
ENDBRANCH   4  18
TORSDOF 7
ENDMDL
