MODEL 1
REMARK VINA RESULT:      -8.4      0.000      0.000
REMARK  5 active torsions:
REMARK  status: ('A' for Active; 'I' for Inactive)
REMARK    1  A    between atoms: O_2  and  C_3 
REMARK    2  A    between atoms: C_5  and  C_15 
REMARK    3  A    between atoms: C_8  and  C_9 
REMARK       I    between atoms: C_15  and  N_17 
REMARK    4  A    between atoms: N_17  and  C_18 
REMARK    5  A    between atoms: C_20  and  C_21 
ROOT
HETATM    1  C   UNL     1     -43.340  56.434 -59.390  1.00  0.00     0.080 A 
HETATM    2  C   UNL     1     -43.235  55.492 -58.358  1.00  0.00     0.054 A 
HETATM    3  C   UNL     1     -42.838  55.879 -57.070  1.00  0.00     0.034 A 
HETATM    4  C   UNL     1     -42.557  57.220 -56.805  1.00  0.00     0.018 A 
HETATM    5  C   UNL     1     -42.649  58.164 -57.831  1.00  0.00     0.016 A 
HETATM    6  C   UNL     1     -43.035  57.788 -59.130  1.00  0.00     0.010 A 
ENDROOT
BRANCH   3   7
HETATM    7  C   UNL     1     -42.776  54.834 -56.011  1.00  0.00     0.252 C 
HETATM    8  O   UNL     1     -43.607  53.931 -56.000  1.00  0.00    -0.268 OA
HETATM    9  N   UNL     1     -41.742  54.940 -55.101  1.00  0.00    -0.352 N 
HETATM   10  H   UNL     1     -40.993  55.600 -55.270  1.00  0.00     0.163 HD
BRANCH   9  11
HETATM   11  C   UNL     1     -41.582  53.999 -54.034  1.00  0.00     0.094 A 
HETATM   12  C   UNL     1     -41.024  54.447 -52.715  1.00  0.00     0.037 A 
HETATM   13  C   UNL     1     -40.203  53.540 -53.600  1.00  0.00     0.043 A 
BRANCH  13  14
HETATM   14  C   UNL     1     -39.973  52.104 -53.189  1.00  0.00    -0.052 A 
HETATM   15  C   UNL     1     -39.720  51.755 -51.851  1.00  0.00     0.007 A 
HETATM   16  C   UNL     1     -39.518  50.424 -51.472  1.00  0.00     0.001 A 
HETATM   17  C   UNL     1     -39.574  49.412 -52.425  1.00  0.00     0.000 A 
HETATM   18  C   UNL     1     -39.834  49.730 -53.756  1.00  0.00     0.001 A 
HETATM   19  C   UNL     1     -40.034  51.061 -54.128  1.00  0.00     0.007 A 
ENDBRANCH  13  14
ENDBRANCH   9  11
ENDBRANCH   3   7
BRANCH   1  20
HETATM   20  O   UNL     1     -43.726  56.112 -60.668  1.00  0.00    -0.355 OA
HETATM   21  C   UNL     1     -44.830  55.227 -60.818  1.00  0.00     0.210 C 
ENDBRANCH   1  20
BRANCH   6  22
HETATM   22  C   UNL     1     -43.116  58.810 -60.167  1.00  0.00     0.013 A 
HETATM   23  C   UNL     1     -44.227  59.490 -60.720  1.00  0.00     0.152 A 
HETATM   24  N   UNL     1     -43.880  60.366 -61.668  1.00  0.00    -0.187 NA
HETATM   25  N   UNL     1     -42.543  60.269 -61.707  1.00  0.00    -0.289 N 
HETATM   26  H   UNL     1     -42.038  60.866 -62.354  1.00  0.00     0.188 HD
HETATM   27  C   UNL     1     -42.036  59.347 -60.838  1.00  0.00     0.123 A 
ENDBRANCH   6  22
TORSDOF 5
ENDMDL
MODEL 2
REMARK VINA RESULT:      -8.0      1.103      2.294
REMARK  5 active torsions:
REMARK  status: ('A' for Active; 'I' for Inactive)
REMARK    1  A    between atoms: O_2  and  C_3 
REMARK    2  A    between atoms: C_5  and  C_15 
REMARK    3  A    between atoms: C_8  and  C_9 
REMARK       I    between atoms: C_15  and  N_17 
REMARK    4  A    between atoms: N_17  and  C_18 
REMARK    5  A    between atoms: C_20  and  C_21 
ROOT
HETATM    1  C   UNL     1     -42.488  58.215 -57.847  1.00  0.00     0.080 A 
HETATM    2  C   UNL     1     -42.482  57.200 -56.881  1.00  0.00     0.054 A 
HETATM    3  C   UNL     1     -42.866  55.892 -57.211  1.00  0.00     0.034 A 
HETATM    4  C   UNL     1     -43.246  55.591 -58.519  1.00  0.00     0.018 A 
HETATM    5  C   UNL     1     -43.265  56.599 -59.486  1.00  0.00     0.016 A 
HETATM    6  C   UNL     1     -42.892  57.917 -59.166  1.00  0.00     0.010 A 
ENDROOT
BRANCH   3   7
HETATM    7  C   UNL     1     -42.808  54.854 -56.145  1.00  0.00     0.252 C 
HETATM    8  O   UNL     1     -43.631  53.944 -56.139  1.00  0.00    -0.268 OA
HETATM    9  N   UNL     1     -41.787  54.974 -55.223  1.00  0.00    -0.352 N 
HETATM   10  H   UNL     1     -41.041  55.639 -55.386  1.00  0.00     0.163 HD
BRANCH   9  11
HETATM   11  C   UNL     1     -41.631  54.040 -54.148  1.00  0.00     0.094 A 
HETATM   12  C   UNL     1     -41.079  54.498 -52.830  1.00  0.00     0.037 A 
HETATM   13  C   UNL     1     -40.255  53.584 -53.705  1.00  0.00     0.043 A 
BRANCH  13  14
HETATM   14  C   UNL     1     -40.028  52.151 -53.282  1.00  0.00    -0.052 A 
HETATM   15  C   UNL     1     -40.051  51.099 -54.213  1.00  0.00     0.007 A 
HETATM   16  C   UNL     1     -39.829  49.775 -53.821  1.00  0.00     0.001 A 
HETATM   17  C   UNL     1     -39.571  49.477 -52.487  1.00  0.00     0.000 A 
HETATM   18  C   UNL     1     -39.531  50.502 -51.546  1.00  0.00     0.001 A 
HETATM   19  C   UNL     1     -39.754  51.823 -51.944  1.00  0.00     0.007 A 
ENDBRANCH  13  14
ENDBRANCH   9  11
ENDBRANCH   3   7
BRANCH   1  20
HETATM   20  O   UNL     1     -42.119  59.510 -57.581  1.00  0.00    -0.355 OA
HETATM   21  C   UNL     1     -42.740  60.158 -56.476  1.00  0.00     0.210 C 
ENDBRANCH   1  20
BRANCH   6  22
HETATM   22  C   UNL     1     -42.929  58.935 -60.210  1.00  0.00     0.013 A 
HETATM   23  C   UNL     1     -41.903  59.474 -61.022  1.00  0.00     0.152 A 
HETATM   24  N   UNL     1     -42.348  60.405 -61.871  1.00  0.00    -0.187 NA
HETATM   25  N   UNL     1     -43.666  60.449 -61.624  1.00  0.00    -0.289 N 
HETATM   26  H   UNL     1     -44.236  61.085 -62.171  1.00  0.00     0.188 HD
HETATM   27  C   UNL     1     -44.063  59.597 -60.634  1.00  0.00     0.123 A 
ENDBRANCH   6  22
TORSDOF 5
ENDMDL
MODEL 3
REMARK VINA RESULT:      -7.8      6.263      7.126
REMARK  5 active torsions:
REMARK  status: ('A' for Active; 'I' for Inactive)
REMARK    1  A    between atoms: O_2  and  C_3 
REMARK    2  A    between atoms: C_5  and  C_15 
REMARK    3  A    between atoms: C_8  and  C_9 
REMARK       I    between atoms: C_15  and  N_17 
REMARK    4  A    between atoms: N_17  and  C_18 
REMARK    5  A    between atoms: C_20  and  C_21 
ROOT
HETATM    1  C   UNL     1     -42.015  59.237 -50.896  1.00  0.00     0.080 A 
HETATM    2  C   UNL     1     -41.855  57.852 -51.037  1.00  0.00     0.054 A 
HETATM    3  C   UNL     1     -42.949  57.030 -51.343  1.00  0.00     0.034 A 
HETATM    4  C   UNL     1     -44.212  57.596 -51.524  1.00  0.00     0.018 A 
HETATM    5  C   UNL     1     -44.382  58.975 -51.375  1.00  0.00     0.016 A 
HETATM    6  C   UNL     1     -43.296  59.809 -51.058  1.00  0.00     0.010 A 
ENDROOT
BRANCH   3   7
HETATM    7  C   UNL     1     -42.706  55.570 -51.509  1.00  0.00     0.252 C 
HETATM    8  O   UNL     1     -43.405  54.923 -52.282  1.00  0.00    -0.268 OA
HETATM    9  N   UNL     1     -41.663  55.034 -50.779  1.00  0.00    -0.352 N 
HETATM   10  H   UNL     1     -41.017  55.649 -50.301  1.00  0.00     0.163 HD
BRANCH   9  11
HETATM   11  C   UNL     1     -41.336  53.641 -50.850  1.00  0.00     0.094 A 
HETATM   12  C   UNL     1     -40.330  53.057 -49.902  1.00  0.00     0.037 A 
HETATM   13  C   UNL     1     -39.986  53.183 -51.367  1.00  0.00     0.043 A 
BRANCH  13  14
HETATM   14  C   UNL     1     -39.879  51.939 -52.218  1.00  0.00    -0.052 A 
HETATM   15  C   UNL     1     -39.996  51.995 -53.617  1.00  0.00     0.007 A 
HETATM   16  C   UNL     1     -39.886  50.844 -54.404  1.00  0.00     0.001 A 
HETATM   17  C   UNL     1     -39.648  49.611 -53.805  1.00  0.00     0.000 A 
HETATM   18  C   UNL     1     -39.517  49.529 -52.421  1.00  0.00     0.001 A 
HETATM   19  C   UNL     1     -39.628  50.683 -51.641  1.00  0.00     0.007 A 
ENDBRANCH  13  14
ENDBRANCH   9  11
ENDBRANCH   3   7
BRANCH   1  20
HETATM   20  O   UNL     1     -40.980  60.089 -50.600  1.00  0.00    -0.355 OA
HETATM   21  C   UNL     1     -39.668  59.542 -50.562  1.00  0.00     0.210 C 
ENDBRANCH   1  20
BRANCH   6  22
HETATM   22  C   UNL     1     -43.524  61.242 -50.913  1.00  0.00     0.013 A 
HETATM   23  C   UNL     1     -43.838  62.026 -49.777  1.00  0.00     0.152 A 
HETATM   24  N   UNL     1     -43.973  63.324 -50.063  1.00  0.00    -0.187 NA
HETATM   25  N   UNL     1     -43.720  63.382 -51.379  1.00  0.00    -0.289 N 
HETATM   26  H   UNL     1     -43.745  64.288 -51.833  1.00  0.00     0.188 HD
HETATM   27  C   UNL     1     -43.456  62.164 -51.938  1.00  0.00     0.123 A 
ENDBRANCH   6  22
TORSDOF 5
ENDMDL
MODEL 4
REMARK VINA RESULT:      -7.7      2.872      9.756
REMARK  5 active torsions:
REMARK  status: ('A' for Active; 'I' for Inactive)
REMARK    1  A    between atoms: O_2  and  C_3 
REMARK    2  A    between atoms: C_5  and  C_15 
REMARK    3  A    between atoms: C_8  and  C_9 
REMARK       I    between atoms: C_15  and  N_17 
REMARK    4  A    between atoms: N_17  and  C_18 
REMARK    5  A    between atoms: C_20  and  C_21 
ROOT
HETATM    1  C   UNL     1     -41.083  53.496 -52.451  1.00  0.00     0.080 A 
HETATM    2  C   UNL     1     -41.467  54.698 -53.061  1.00  0.00     0.054 A 
HETATM    3  C   UNL     1     -41.134  54.963 -54.397  1.00  0.00     0.034 A 
HETATM    4  C   UNL     1     -40.424  54.016 -55.136  1.00  0.00     0.018 A 
HETATM    5  C   UNL     1     -40.028  52.820 -54.532  1.00  0.00     0.016 A 
HETATM    6  C   UNL     1     -40.346  52.545 -53.190  1.00  0.00     0.010 A 
ENDROOT
BRANCH   3   7
HETATM    7  C   UNL     1     -41.599  56.246 -54.994  1.00  0.00     0.252 C 
HETATM    8  O   UNL     1     -41.495  57.286 -54.353  1.00  0.00    -0.268 OA
HETATM    9  N   UNL     1     -42.105  56.179 -56.278  1.00  0.00    -0.352 N 
HETATM   10  H   UNL     1     -41.999  55.328 -56.815  1.00  0.00     0.163 HD
BRANCH   9  11
HETATM   11  C   UNL     1     -42.589  57.345 -56.955  1.00  0.00     0.094 A 
HETATM   12  C   UNL     1     -43.757  57.239 -57.891  1.00  0.00     0.037 A 
HETATM   13  C   UNL     1     -42.383  57.521 -58.447  1.00  0.00     0.043 A 
BRANCH  13  14
HETATM   14  C   UNL     1     -42.073  58.886 -59.017  1.00  0.00    -0.052 A 
HETATM   15  C   UNL     1     -41.677  59.953 -58.193  1.00  0.00     0.007 A 
HETATM   16  C   UNL     1     -41.381  61.212 -58.724  1.00  0.00     0.001 A 
HETATM   17  C   UNL     1     -41.467  61.428 -60.096  1.00  0.00     0.000 A 
HETATM   18  C   UNL     1     -41.846  60.384 -60.936  1.00  0.00     0.001 A 
HETATM   19  C   UNL     1     -42.141  59.129 -60.399  1.00  0.00     0.007 A 
ENDBRANCH  13  14
ENDBRANCH   9  11
ENDBRANCH   3   7
BRANCH   1  20
HETATM   20  O   UNL     1     -41.384  53.182 -51.149  1.00  0.00    -0.355 OA
HETATM   21  C   UNL     1     -41.276  54.219 -50.180  1.00  0.00     0.210 C 
ENDBRANCH   1  20
BRANCH   6  22
HETATM   22  C   UNL     1     -39.911  51.283 -52.604  1.00  0.00     0.013 A 
HETATM   23  C   UNL     1     -39.506  50.956 -51.288  1.00  0.00     0.152 A 
HETATM   24  N   UNL     1     -39.175  49.669 -51.151  1.00  0.00    -0.187 NA
HETATM   25  N   UNL     1     -39.389  49.160 -52.373  1.00  0.00    -0.289 N 
HETATM   26  H   UNL     1     -39.221  48.170 -52.517  1.00  0.00     0.188 HD
HETATM   27  C   UNL     1     -39.820  50.083 -53.281  1.00  0.00     0.123 A 
ENDBRANCH   6  22
TORSDOF 5
ENDMDL
MODEL 5
REMARK VINA RESULT:      -7.7      1.445      2.129
REMARK  5 active torsions:
REMARK  status: ('A' for Active; 'I' for Inactive)
REMARK    1  A    between atoms: O_2  and  C_3 
REMARK    2  A    between atoms: C_5  and  C_15 
REMARK    3  A    between atoms: C_8  and  C_9 
REMARK       I    between atoms: C_15  and  N_17 
REMARK    4  A    between atoms: N_17  and  C_18 
REMARK    5  A    between atoms: C_20  and  C_21 
ROOT
HETATM    1  C   UNL     1     -43.768  58.612 -57.538  1.00  0.00     0.080 A 
HETATM    2  C   UNL     1     -43.623  57.762 -56.433  1.00  0.00     0.054 A 
HETATM    3  C   UNL     1     -43.237  56.424 -56.602  1.00  0.00     0.034 A 
HETATM    4  C   UNL     1     -42.981  55.934 -57.884  1.00  0.00     0.018 A 
HETATM    5  C   UNL     1     -43.133  56.772 -58.991  1.00  0.00     0.016 A 
HETATM    6  C   UNL     1     -43.530  58.113 -58.836  1.00  0.00     0.010 A 
ENDROOT
BRANCH   3   7
HETATM    7  C   UNL     1     -43.072  55.582 -55.386  1.00  0.00     0.252 C 
HETATM    8  O   UNL     1     -43.923  55.618 -54.503  1.00  0.00    -0.268 OA
HETATM    9  N   UNL     1     -41.952  54.774 -55.344  1.00  0.00    -0.352 N 
HETATM   10  H   UNL     1     -41.387  54.658 -56.176  1.00  0.00     0.163 HD
BRANCH   9  11
HETATM   11  C   UNL     1     -41.681  53.924 -54.223  1.00  0.00     0.094 A 
HETATM   12  C   UNL     1     -40.966  54.470 -53.022  1.00  0.00     0.037 A 
HETATM   13  C   UNL     1     -40.268  53.471 -53.913  1.00  0.00     0.043 A 
BRANCH  13  14
HETATM   14  C   UNL     1     -40.012  52.071 -53.406  1.00  0.00    -0.052 A 
HETATM   15  C   UNL     1     -39.735  51.819 -52.051  1.00  0.00     0.007 A 
HETATM   16  C   UNL     1     -39.510  50.521 -51.583  1.00  0.00     0.001 A 
HETATM   17  C   UNL     1     -39.565  49.444 -52.462  1.00  0.00     0.000 A 
HETATM   18  C   UNL     1     -39.848  49.664 -53.807  1.00  0.00     0.001 A 
HETATM   19  C   UNL     1     -40.072  50.963 -54.269  1.00  0.00     0.007 A 
ENDBRANCH  13  14
ENDBRANCH   9  11
ENDBRANCH   3   7
BRANCH   1  20
HETATM   20  O   UNL     1     -44.140  59.930 -57.430  1.00  0.00    -0.355 OA
HETATM   21  C   UNL     1     -45.400  60.212 -56.834  1.00  0.00     0.210 C 
ENDBRANCH   1  20
BRANCH   6  22
HETATM   22  C   UNL     1     -43.675  58.949 -60.022  1.00  0.00     0.013 A 
HETATM   23  C   UNL     1     -42.722  59.681 -60.769  1.00  0.00     0.152 A 
HETATM   24  N   UNL     1     -43.262  60.332 -61.804  1.00  0.00    -0.187 NA
HETATM   25  N   UNL     1     -44.560  59.998 -61.739  1.00  0.00    -0.289 N 
HETATM   26  H   UNL     1     -45.185  60.365 -62.449  1.00  0.00     0.188 HD
HETATM   27  C   UNL     1     -44.862  59.182 -60.688  1.00  0.00     0.123 A 
ENDBRANCH   6  22
TORSDOF 5
ENDMDL
MODEL 6
REMARK VINA RESULT:      -7.2      5.113      6.071
REMARK  5 active torsions:
REMARK  status: ('A' for Active; 'I' for Inactive)
REMARK    1  A    between atoms: O_2  and  C_3 
REMARK    2  A    between atoms: C_5  and  C_15 
REMARK    3  A    between atoms: C_8  and  C_9 
REMARK       I    between atoms: C_15  and  N_17 
REMARK    4  A    between atoms: N_17  and  C_18 
REMARK    5  A    between atoms: C_20  and  C_21 
ROOT
HETATM    1  C   UNL     1     -43.588  59.684 -52.132  1.00  0.00     0.080 A 
HETATM    2  C   UNL     1     -42.691  58.610 -52.046  1.00  0.00     0.054 A 
HETATM    3  C   UNL     1     -42.954  57.400 -52.702  1.00  0.00     0.034 A 
HETATM    4  C   UNL     1     -44.116  57.262 -53.464  1.00  0.00     0.018 A 
HETATM    5  C   UNL     1     -45.020  58.324 -53.546  1.00  0.00     0.016 A 
HETATM    6  C   UNL     1     -44.774  59.540 -52.884  1.00  0.00     0.010 A 
ENDROOT
BRANCH   3   7
HETATM    7  C   UNL     1     -41.945  56.309 -52.595  1.00  0.00     0.252 C 
HETATM    8  O   UNL     1     -41.538  55.966 -51.490  1.00  0.00    -0.268 OA
HETATM    9  N   UNL     1     -41.544  55.724 -53.780  1.00  0.00    -0.352 N 
HETATM   10  H   UNL     1     -42.045  55.928 -54.635  1.00  0.00     0.163 HD
BRANCH   9  11
HETATM   11  C   UNL     1     -40.574  54.670 -53.806  1.00  0.00     0.094 A 
HETATM   12  C   UNL     1     -40.005  54.205 -55.114  1.00  0.00     0.037 A 
HETATM   13  C   UNL     1     -40.930  53.296 -54.341  1.00  0.00     0.043 A 
BRANCH  13  14
HETATM   14  C   UNL     1     -40.377  52.055 -53.680  1.00  0.00    -0.052 A 
HETATM   15  C   UNL     1     -40.038  52.038 -52.316  1.00  0.00     0.007 A 
HETATM   16  C   UNL     1     -39.537  50.885 -51.704  1.00  0.00     0.001 A 
HETATM   17  C   UNL     1     -39.372  49.719 -52.445  1.00  0.00     0.000 A 
HETATM   18  C   UNL     1     -39.711  49.705 -53.795  1.00  0.00     0.001 A 
HETATM   19  C   UNL     1     -40.211  50.861 -54.400  1.00  0.00     0.007 A 
ENDBRANCH  13  14
ENDBRANCH   9  11
ENDBRANCH   3   7
BRANCH   1  20
HETATM   20  O   UNL     1     -43.380  60.891 -51.513  1.00  0.00    -0.355 OA
HETATM   21  C   UNL     1     -42.652  60.887 -50.290  1.00  0.00     0.210 C 
ENDBRANCH   1  20
BRANCH   6  22
HETATM   22  C   UNL     1     -45.749  60.618 -53.000  1.00  0.00     0.013 A 
HETATM   23  C   UNL     1     -46.822  60.999 -52.160  1.00  0.00     0.152 A 
HETATM   24  N   UNL     1     -47.493  62.058 -52.624  1.00  0.00    -0.187 NA
HETATM   25  N   UNL     1     -46.838  62.374 -53.750  1.00  0.00    -0.289 N 
HETATM   26  H   UNL     1     -47.159  63.175 -54.283  1.00  0.00     0.188 HD
HETATM   27  C   UNL     1     -45.793  61.540 -54.027  1.00  0.00     0.123 A 
ENDBRANCH   6  22
TORSDOF 5
ENDMDL
MODEL 7
REMARK VINA RESULT:      -7.2      4.739      5.652
REMARK  5 active torsions:
REMARK  status: ('A' for Active; 'I' for Inactive)
REMARK    1  A    between atoms: O_2  and  C_3 
REMARK    2  A    between atoms: C_5  and  C_15 
REMARK    3  A    between atoms: C_8  and  C_9 
REMARK       I    between atoms: C_15  and  N_17 
REMARK    4  A    between atoms: N_17  and  C_18 
REMARK    5  A    between atoms: C_20  and  C_21 
ROOT
HETATM    1  C   UNL     1     -42.809  59.265 -52.496  1.00  0.00     0.080 A 
HETATM    2  C   UNL     1     -42.503  57.907 -52.330  1.00  0.00     0.054 A 
HETATM    3  C   UNL     1     -43.313  56.914 -52.898  1.00  0.00     0.034 A 
HETATM    4  C   UNL     1     -44.431  57.278 -53.650  1.00  0.00     0.018 A 
HETATM    5  C   UNL     1     -44.749  58.629 -53.812  1.00  0.00     0.016 A 
HETATM    6  C   UNL     1     -43.951  59.635 -53.239  1.00  0.00     0.010 A 
ENDROOT
BRANCH   3   7
HETATM    7  C   UNL     1     -42.916  55.491 -52.709  1.00  0.00     0.252 C 
HETATM    8  O   UNL     1     -43.349  54.635 -53.473  1.00  0.00    -0.268 OA
HETATM    9  N   UNL     1     -42.041  55.229 -51.673  1.00  0.00    -0.352 N 
HETATM   10  H   UNL     1     -41.585  55.997 -51.197  1.00  0.00     0.163 HD
BRANCH   9  11
HETATM   11  C   UNL     1     -41.591  53.899 -51.389  1.00  0.00     0.094 A 
HETATM   12  C   UNL     1     -40.568  53.665 -50.316  1.00  0.00     0.037 A 
HETATM   13  C   UNL     1     -40.191  53.453 -51.762  1.00  0.00     0.043 A 
BRANCH  13  14
HETATM   14  C   UNL     1     -39.949  52.052 -52.273  1.00  0.00    -0.052 A 
HETATM   15  C   UNL     1     -39.710  50.981 -51.395  1.00  0.00     0.007 A 
HETATM   16  C   UNL     1     -39.497  49.683 -51.869  1.00  0.00     0.001 A 
HETATM   17  C   UNL     1     -39.528  49.428 -53.237  1.00  0.00     0.000 A 
HETATM   18  C   UNL     1     -39.774  50.468 -54.128  1.00  0.00     0.001 A 
HETATM   19  C   UNL     1     -39.985  51.763 -53.647  1.00  0.00     0.007 A 
ENDBRANCH  13  14
ENDBRANCH   9  11
ENDBRANCH   3   7
BRANCH   1  20
HETATM   20  O   UNL     1     -42.050  60.279 -51.965  1.00  0.00    -0.355 OA
HETATM   21  C   UNL     1     -41.800  60.251 -50.565  1.00  0.00     0.210 C 
ENDBRANCH   1  20
BRANCH   6  22
HETATM   22  C   UNL     1     -44.324  61.031 -53.435  1.00  0.00     0.013 A 
HETATM   23  C   UNL     1     -45.107  61.906 -52.646  1.00  0.00     0.152 A 
HETATM   24  N   UNL     1     -45.219  63.127 -53.179  1.00  0.00    -0.187 NA
HETATM   25  N   UNL     1     -44.487  63.045 -54.301  1.00  0.00    -0.289 N 
HETATM   26  H   UNL     1     -44.405  63.873 -54.881  1.00  0.00     0.188 HD
HETATM   27  C   UNL     1     -43.939  61.812 -54.506  1.00  0.00     0.123 A 
ENDBRANCH   6  22
TORSDOF 5
ENDMDL
MODEL 8
REMARK VINA RESULT:      -7.1      6.367     10.075
REMARK  5 active torsions:
REMARK  status: ('A' for Active; 'I' for Inactive)
REMARK    1  A    between atoms: O_2  and  C_3 
REMARK    2  A    between atoms: C_5  and  C_15 
REMARK    3  A    between atoms: C_8  and  C_9 
REMARK       I    between atoms: C_15  and  N_17 
REMARK    4  A    between atoms: N_17  and  C_18 
REMARK    5  A    between atoms: C_20  and  C_21 
ROOT
HETATM    1  C   UNL     1     -41.760  55.524 -52.924  1.00  0.00     0.080 A 
HETATM    2  C   UNL     1     -42.613  56.563 -52.526  1.00  0.00     0.054 A 
HETATM    3  C   UNL     1     -43.480  56.403 -51.435  1.00  0.00     0.034 A 
HETATM    4  C   UNL     1     -43.486  55.201 -50.726  1.00  0.00     0.018 A 
HETATM    5  C   UNL     1     -42.647  54.157 -51.123  1.00  0.00     0.016 A 
HETATM    6  C   UNL     1     -41.780  54.300 -52.221  1.00  0.00     0.010 A 
ENDROOT
BRANCH   3   7
HETATM    7  C   UNL     1     -44.338  57.555 -51.045  1.00  0.00     0.252 C 
HETATM    8  O   UNL     1     -45.527  57.372 -50.805  1.00  0.00    -0.268 OA
HETATM    9  N   UNL     1     -43.714  58.784 -50.953  1.00  0.00    -0.352 N 
HETATM   10  H   UNL     1     -42.703  58.837 -50.990  1.00  0.00     0.163 HD
BRANCH   9  11
HETATM   11  C   UNL     1     -44.436  59.968 -50.594  1.00  0.00     0.094 A 
HETATM   12  C   UNL     1     -44.108  61.276 -51.251  1.00  0.00     0.037 A 
HETATM   13  C   UNL     1     -43.773  61.072 -49.793  1.00  0.00     0.043 A 
BRANCH  13  14
HETATM   14  C   UNL     1     -44.552  61.819 -48.736  1.00  0.00    -0.052 A 
HETATM   15  C   UNL     1     -44.720  61.298 -47.442  1.00  0.00     0.007 A 
HETATM   16  C   UNL     1     -45.433  61.996 -46.463  1.00  0.00     0.001 A 
HETATM   17  C   UNL     1     -45.987  63.238 -46.756  1.00  0.00     0.000 A 
HETATM   18  C   UNL     1     -45.825  63.783 -48.028  1.00  0.00     0.001 A 
HETATM   19  C   UNL     1     -45.112  63.080 -49.002  1.00  0.00     0.007 A 
ENDBRANCH  13  14
ENDBRANCH   9  11
ENDBRANCH   3   7
BRANCH   1  20
HETATM   20  O   UNL     1     -40.890  55.627 -53.981  1.00  0.00    -0.355 OA
HETATM   21  C   UNL     1     -41.439  55.924 -55.259  1.00  0.00     0.210 C 
ENDBRANCH   1  20
BRANCH   6  22
HETATM   22  C   UNL     1     -40.923  53.181 -52.597  1.00  0.00     0.013 A 
HETATM   23  C   UNL     1     -40.813  52.457 -53.807  1.00  0.00     0.152 A 
HETATM   24  N   UNL     1     -39.897  51.486 -53.750  1.00  0.00    -0.187 NA
HETATM   25  N   UNL     1     -39.398  51.601 -52.510  1.00  0.00    -0.289 N 
HETATM   26  H   UNL     1     -38.657  50.967 -52.231  1.00  0.00     0.188 HD
HETATM   27  C   UNL     1     -39.983  52.592 -51.776  1.00  0.00     0.123 A 
ENDBRANCH   6  22
TORSDOF 5
ENDMDL
MODEL 9
REMARK VINA RESULT:      -6.9      8.792     10.876
REMARK  5 active torsions:
REMARK  status: ('A' for Active; 'I' for Inactive)
REMARK    1  A    between atoms: O_2  and  C_3 
REMARK    2  A    between atoms: C_5  and  C_15 
REMARK    3  A    between atoms: C_8  and  C_9 
REMARK       I    between atoms: C_15  and  N_17 
REMARK    4  A    between atoms: N_17  and  C_18 
REMARK    5  A    between atoms: C_20  and  C_21 
ROOT
HETATM    1  C   UNL     1     -45.957  61.248 -47.682  1.00  0.00     0.080 A 
HETATM    2  C   UNL     1     -45.460  60.527 -48.777  1.00  0.00     0.054 A 
HETATM    3  C   UNL     1     -44.528  61.103 -49.653  1.00  0.00     0.034 A 
HETATM    4  C   UNL     1     -44.078  62.404 -49.427  1.00  0.00     0.018 A 
HETATM    5  C   UNL     1     -44.576  63.133 -48.345  1.00  0.00     0.016 A 
HETATM    6  C   UNL     1     -45.519  62.572 -47.464  1.00  0.00     0.010 A 
ENDROOT
BRANCH   3   7
HETATM    7  C   UNL     1     -44.017  60.273 -50.778  1.00  0.00     0.252 C 
HETATM    8  O   UNL     1     -43.668  60.815 -51.821  1.00  0.00    -0.268 OA
HETATM    9  N   UNL     1     -43.945  58.911 -50.556  1.00  0.00    -0.352 N 
HETATM   10  H   UNL     1     -44.079  58.549 -49.620  1.00  0.00     0.163 HD
BRANCH   9  11
HETATM   11  C   UNL     1     -43.476  58.010 -51.565  1.00  0.00     0.094 A 
HETATM   12  C   UNL     1     -44.432  57.457 -52.581  1.00  0.00     0.037 A 
HETATM   13  C   UNL     1     -43.850  56.540 -51.532  1.00  0.00     0.043 A 
BRANCH  13  14
HETATM   14  C   UNL     1     -42.842  55.489 -51.936  1.00  0.00    -0.052 A 
HETATM   15  C   UNL     1     -42.927  54.826 -53.171  1.00  0.00     0.007 A 
HETATM   16  C   UNL     1     -41.987  53.862 -53.547  1.00  0.00     0.001 A 
HETATM   17  C   UNL     1     -40.934  53.546 -52.694  1.00  0.00     0.000 A 
HETATM   18  C   UNL     1     -40.819  54.197 -51.468  1.00  0.00     0.001 A 
HETATM   19  C   UNL     1     -41.763  55.159 -51.099  1.00  0.00     0.007 A 
ENDBRANCH  13  14
ENDBRANCH   9  11
ENDBRANCH   3   7
BRANCH   1  20
HETATM   20  O   UNL     1     -46.867  60.733 -46.792  1.00  0.00    -0.355 OA
HETATM   21  C   UNL     1     -46.467  59.610 -46.016  1.00  0.00     0.210 C 
ENDBRANCH   1  20
BRANCH   6  22
HETATM   22  C   UNL     1     -46.009  63.373 -46.349  1.00  0.00     0.013 A 
HETATM   23  C   UNL     1     -47.225  64.074 -46.169  1.00  0.00     0.152 A 
HETATM   24  N   UNL     1     -47.295  64.698 -44.989  1.00  0.00    -0.187 NA
HETATM   25  N   UNL     1     -46.134  64.379 -44.398  1.00  0.00    -0.289 N 
HETATM   26  H   UNL     1     -45.959  64.730 -43.463  1.00  0.00     0.188 HD
HETATM   27  C   UNL     1     -45.325  63.597 -45.172  1.00  0.00     0.123 A 
ENDBRANCH   6  22
TORSDOF 5
ENDMDL
MODEL 10
REMARK VINA RESULT:      -6.9      2.664      3.681
REMARK  5 active torsions:
REMARK  status: ('A' for Active; 'I' for Inactive)
REMARK    1  A    between atoms: O_2  and  C_3 
REMARK    2  A    between atoms: C_5  and  C_15 
REMARK    3  A    between atoms: C_8  and  C_9 
REMARK       I    between atoms: C_15  and  N_17 
REMARK    4  A    between atoms: N_17  and  C_18 
REMARK    5  A    between atoms: C_20  and  C_21 
ROOT
HETATM    1  C   UNL     1     -45.398  58.041 -57.743  1.00  0.00     0.080 A 
HETATM    2  C   UNL     1     -44.470  57.733 -56.739  1.00  0.00     0.054 A 
HETATM    3  C   UNL     1     -43.418  56.838 -56.983  1.00  0.00     0.034 A 
HETATM    4  C   UNL     1     -43.281  56.256 -58.244  1.00  0.00     0.018 A 
HETATM    5  C   UNL     1     -44.209  56.550 -59.247  1.00  0.00     0.016 A 
HETATM    6  C   UNL     1     -45.274  57.437 -59.013  1.00  0.00     0.010 A 
ENDROOT
BRANCH   3   7
HETATM    7  C   UNL     1     -42.449  56.577 -55.883  1.00  0.00     0.252 C 
HETATM    8  O   UNL     1     -42.173  57.474 -55.092  1.00  0.00    -0.268 OA
HETATM    9  N   UNL     1     -41.930  55.299 -55.810  1.00  0.00    -0.352 N 
HETATM   10  H   UNL     1     -42.330  54.563 -56.379  1.00  0.00     0.163 HD
BRANCH   9  11
HETATM   11  C   UNL     1     -40.984  54.929 -54.800  1.00  0.00     0.094 A 
HETATM   12  C   UNL     1     -40.373  53.559 -54.809  1.00  0.00     0.037 A 
HETATM   13  C   UNL     1     -41.350  53.931 -53.719  1.00  0.00     0.043 A 
BRANCH  13  14
HETATM   14  C   UNL     1     -40.852  54.123 -52.305  1.00  0.00    -0.052 A 
HETATM   15  C   UNL     1     -41.212  55.251 -51.547  1.00  0.00     0.007 A 
HETATM   16  C   UNL     1     -40.759  55.421 -50.236  1.00  0.00     0.001 A 
HETATM   17  C   UNL     1     -39.941  54.460 -49.650  1.00  0.00     0.000 A 
HETATM   18  C   UNL     1     -39.579  53.328 -50.375  1.00  0.00     0.001 A 
HETATM   19  C   UNL     1     -40.035  53.163 -51.685  1.00  0.00     0.007 A 
ENDBRANCH  13  14
ENDBRANCH   9  11
ENDBRANCH   3   7
BRANCH   1  20
HETATM   20  O   UNL     1     -46.444  58.911 -57.561  1.00  0.00    -0.355 OA
HETATM   21  C   UNL     1     -46.129  60.266 -57.262  1.00  0.00     0.210 C 
ENDBRANCH   1  20
BRANCH   6  22
HETATM   22  C   UNL     1     -46.216  57.711 -60.092  1.00  0.00     0.013 A 
HETATM   23  C   UNL     1     -47.240  56.916 -60.660  1.00  0.00     0.152 A 
HETATM   24  N   UNL     1     -47.891  57.537 -61.649  1.00  0.00    -0.187 NA
HETATM   25  N   UNL     1     -47.303  58.742 -61.701  1.00  0.00    -0.289 N 
HETATM   26  H   UNL     1     -47.646  59.414 -62.379  1.00  0.00     0.188 HD
HETATM   27  C   UNL     1     -46.290  58.895 -60.799  1.00  0.00     0.123 A 
ENDBRANCH   6  22
TORSDOF 5
ENDMDL
