MODEL 1
REMARK VINA RESULT:      -8.6      0.000      0.000
REMARK  5 active torsions:
REMARK  status: ('A' for Active; 'I' for Inactive)
REMARK    1  A    between atoms: C_4  and  N_5 
REMARK       I    between atoms: N_5  and  C_6 
REMARK       I    between atoms: C_6  and  N_7 
REMARK    2  A    between atoms: N_7  and  C_8 
REMARK    3  A    between atoms: C_17  and  C_18 
REMARK       I    between atoms: C_18  and  N_19 
REMARK    4  A    between atoms: N_19  and  C_20 
REMARK    5  A    between atoms: C_20  and  C_21 
ROOT
HETATM    1  C   UNL     1     -45.390  59.604 -52.708  1.00  0.00     0.072 C 
HETATM    2  C   UNL     1     -44.650  58.510 -53.393  1.00  0.00     0.056 C 
HETATM    3  N   UNL     1     -43.729  57.768 -52.653  1.00  0.00    -0.228 NA
HETATM    4  C   UNL     1     -43.121  56.908 -53.435  1.00  0.00     0.175 C 
HETATM    5  S   UNL     1     -43.716  56.812 -55.019  1.00  0.00    -0.044 SA
HETATM    6  C   UNL     1     -44.728  58.167 -54.735  1.00  0.00     0.100 C 
ENDROOT
BRANCH   4   7
HETATM    7  N   UNL     1     -42.061  56.155 -52.993  1.00  0.00    -0.287 N 
HETATM    8  C   UNL     1     -42.068  54.786 -52.797  1.00  0.00     0.326 C 
HETATM    9  N   UNL     1     -40.793  54.317 -52.516  1.00  0.00    -0.309 N 
HETATM   10  O   UNL     1     -43.054  54.066 -52.883  1.00  0.00    -0.247 OA
HETATM   11  H   UNL     1     -40.084  55.011 -52.329  1.00  0.00     0.170 HD
HETATM   12  H   UNL     1     -41.188  56.654 -53.023  1.00  0.00     0.172 HD
BRANCH   9  13
HETATM   13  C   UNL     1     -40.383  52.967 -52.412  1.00  0.00     0.037 A 
HETATM   14  C   UNL     1     -40.150  52.130 -53.508  1.00  0.00     0.053 A 
HETATM   15  C   UNL     1     -39.724  50.815 -53.312  1.00  0.00     0.036 A 
HETATM   16 CL   UNL     1     -39.440  49.797 -54.672  1.00  0.00    -0.084 Cl
HETATM   17  C   UNL     1     -39.522  50.317 -52.029  1.00  0.00     0.024 A 
HETATM   18  C   UNL     1     -39.749  51.142 -50.930  1.00  0.00     0.004 A 
HETATM   19  C   UNL     1     -40.178  52.459 -51.122  1.00  0.00     0.029 A 
ENDBRANCH   9  13
ENDBRANCH   4   7
BRANCH   6  20
HETATM   20  C   UNL     1     -45.452  58.811 -55.817  1.00  0.00     0.260 C 
HETATM   21  N   UNL     1     -46.325  57.987 -56.491  1.00  0.00    -0.352 N 
HETATM   22  H   UNL     1     -46.468  57.050 -56.134  1.00  0.00     0.163 HD
HETATM   23  O   UNL     1     -45.276  59.977 -56.154  1.00  0.00    -0.267 OA
BRANCH  21  24
HETATM   24  C   UNL     1     -46.898  58.324 -57.770  1.00  0.00     0.161 C 
BRANCH  24  25
HETATM   25  C   UNL     1     -46.358  57.421 -58.854  1.00  0.00    -0.040 A 
HETATM   26  C   UNL     1     -44.981  57.160 -58.942  1.00  0.00     0.012 A 
HETATM   27  C   UNL     1     -44.482  56.330 -59.949  1.00  0.00     0.043 A 
HETATM   28  C   UNL     1     -45.354  55.758 -60.867  1.00  0.00     0.116 A 
HETATM   29  F   UNL     1     -44.869  54.970 -61.836  1.00  0.00    -0.206 F 
HETATM   30  C   UNL     1     -46.721  55.988 -60.791  1.00  0.00     0.043 A 
HETATM   31  C   UNL     1     -47.224  56.807 -59.780  1.00  0.00     0.012 A 
ENDBRANCH  24  25
ENDBRANCH  21  24
ENDBRANCH   6  20
TORSDOF 5
ENDMDL
MODEL 2
REMARK VINA RESULT:      -8.5      5.442      9.556
REMARK  5 active torsions:
REMARK  status: ('A' for Active; 'I' for Inactive)
REMARK    1  A    between atoms: C_4  and  N_5 
REMARK       I    between atoms: N_5  and  C_6 
REMARK       I    between atoms: C_6  and  N_7 
REMARK    2  A    between atoms: N_7  and  C_8 
REMARK    3  A    between atoms: C_17  and  C_18 
REMARK       I    between atoms: C_18  and  N_19 
REMARK    4  A    between atoms: N_19  and  C_20 
REMARK    5  A    between atoms: C_20  and  C_21 
ROOT
HETATM    1  C   UNL     1     -44.663  57.639 -55.402  1.00  0.00     0.072 C 
HETATM    2  C   UNL     1     -44.305  57.525 -53.963  1.00  0.00     0.056 C 
HETATM    3  N   UNL     1     -44.520  58.629 -53.137  1.00  0.00    -0.228 NA
HETATM    4  C   UNL     1     -44.074  58.375 -51.930  1.00  0.00     0.175 C 
HETATM    5  S   UNL     1     -43.544  56.786 -51.666  1.00  0.00    -0.044 SA
HETATM    6  C   UNL     1     -43.710  56.440 -53.338  1.00  0.00     0.100 C 
ENDROOT
BRANCH   4   7
HETATM    7  N   UNL     1     -44.027  59.344 -50.958  1.00  0.00    -0.287 N 
HETATM    8  C   UNL     1     -45.115  59.868 -50.286  1.00  0.00     0.326 C 
HETATM    9  N   UNL     1     -44.708  60.698 -49.251  1.00  0.00    -0.309 N 
HETATM   10  O   UNL     1     -46.287  59.623 -50.540  1.00  0.00    -0.247 OA
HETATM   11  H   UNL     1     -43.729  60.941 -49.222  1.00  0.00     0.170 HD
HETATM   12  H   UNL     1     -43.096  59.501 -50.609  1.00  0.00     0.172 HD
BRANCH   9  13
HETATM   13  C   UNL     1     -45.525  61.284 -48.255  1.00  0.00     0.037 A 
HETATM   14  C   UNL     1     -46.395  62.355 -48.482  1.00  0.00     0.053 A 
HETATM   15  C   UNL     1     -47.182  62.855 -47.443  1.00  0.00     0.036 A 
HETATM   16 CL   UNL     1     -48.249  64.174 -47.738  1.00  0.00    -0.084 Cl
HETATM   17  C   UNL     1     -47.118  62.296 -46.171  1.00  0.00     0.024 A 
HETATM   18  C   UNL     1     -46.258  61.228 -45.933  1.00  0.00     0.004 A 
HETATM   19  C   UNL     1     -45.465  60.726 -46.971  1.00  0.00     0.029 A 
ENDBRANCH   9  13
ENDBRANCH   4   7
BRANCH   6  20
HETATM   20  C   UNL     1     -43.210  55.200 -53.907  1.00  0.00     0.260 C 
HETATM   21  N   UNL     1     -41.846  55.039 -53.818  1.00  0.00    -0.352 N 
HETATM   22  H   UNL     1     -41.318  55.726 -53.293  1.00  0.00     0.163 HD
HETATM   23  O   UNL     1     -43.921  54.377 -54.473  1.00  0.00    -0.267 OA
BRANCH  21  24
HETATM   24  C   UNL     1     -41.118  54.056 -54.581  1.00  0.00     0.161 C 
BRANCH  24  25
HETATM   25  C   UNL     1     -40.553  52.986 -53.676  1.00  0.00    -0.040 A 
HETATM   26  C   UNL     1     -40.170  51.741 -54.199  1.00  0.00     0.012 A 
HETATM   27  C   UNL     1     -39.653  50.750 -53.361  1.00  0.00     0.043 A 
HETATM   28  C   UNL     1     -39.516  51.001 -52.001  1.00  0.00     0.116 A 
HETATM   29  F   UNL     1     -39.030  50.043 -51.199  1.00  0.00    -0.206 F 
HETATM   30  C   UNL     1     -39.873  52.229 -51.462  1.00  0.00     0.043 A 
HETATM   31  C   UNL     1     -40.378  53.225 -52.298  1.00  0.00     0.012 A 
ENDBRANCH  24  25
ENDBRANCH  21  24
ENDBRANCH   6  20
TORSDOF 5
ENDMDL
MODEL 3
REMARK VINA RESULT:      -8.2      3.382      9.005
REMARK  5 active torsions:
REMARK  status: ('A' for Active; 'I' for Inactive)
REMARK    1  A    between atoms: C_4  and  N_5 
REMARK       I    between atoms: N_5  and  C_6 
REMARK       I    between atoms: C_6  and  N_7 
REMARK    2  A    between atoms: N_7  and  C_8 
REMARK    3  A    between atoms: C_17  and  C_18 
REMARK       I    between atoms: C_18  and  N_19 
REMARK    4  A    between atoms: N_19  and  C_20 
REMARK    5  A    between atoms: C_20  and  C_21 
ROOT
HETATM    1  C   UNL     1     -41.226  58.120 -50.873  1.00  0.00     0.072 C 
HETATM    2  C   UNL     1     -42.149  57.363 -51.760  1.00  0.00     0.056 C 
HETATM    3  N   UNL     1     -42.996  58.083 -52.605  1.00  0.00    -0.228 NA
HETATM    4  C   UNL     1     -43.787  57.259 -53.249  1.00  0.00     0.175 C 
HETATM    5  S   UNL     1     -43.463  55.609 -53.026  1.00  0.00    -0.044 SA
HETATM    6  C   UNL     1     -42.315  55.987 -51.809  1.00  0.00     0.100 C 
ENDROOT
BRANCH   4   7
HETATM    7  N   UNL     1     -44.819  57.713 -54.033  1.00  0.00    -0.287 N 
HETATM    8  C   UNL     1     -44.726  58.061 -55.368  1.00  0.00     0.326 C 
HETATM    9  N   UNL     1     -45.981  58.311 -55.905  1.00  0.00    -0.309 N 
HETATM   10  O   UNL     1     -43.687  58.122 -56.011  1.00  0.00    -0.247 OA
HETATM   11  H   UNL     1     -46.750  58.372 -55.254  1.00  0.00     0.170 HD
HETATM   12  H   UNL     1     -45.721  57.570 -53.611  1.00  0.00     0.172 HD
BRANCH   9  13
HETATM   13  C   UNL     1     -46.297  58.539 -57.265  1.00  0.00     0.037 A 
HETATM   14  C   UNL     1     -46.561  57.525 -58.191  1.00  0.00     0.053 A 
HETATM   15  C   UNL     1     -46.888  57.845 -59.511  1.00  0.00     0.036 A 
HETATM   16 CL   UNL     1     -47.212  56.585 -60.640  1.00  0.00    -0.084 Cl
HETATM   17  C   UNL     1     -46.961  59.171 -59.924  1.00  0.00     0.024 A 
HETATM   18  C   UNL     1     -46.703  60.189 -59.010  1.00  0.00     0.004 A 
HETATM   19  C   UNL     1     -46.372  59.873 -57.688  1.00  0.00     0.029 A 
ENDBRANCH   9  13
ENDBRANCH   4   7
BRANCH   6  20
HETATM   20  C   UNL     1     -41.725  54.952 -50.978  1.00  0.00     0.260 C 
HETATM   21  N   UNL     1     -40.552  54.425 -51.468  1.00  0.00    -0.352 N 
HETATM   22  H   UNL     1     -40.146  54.850 -52.294  1.00  0.00     0.163 HD
HETATM   23  O   UNL     1     -42.241  54.529 -49.949  1.00  0.00    -0.267 OA
BRANCH  21  24
HETATM   24  C   UNL     1     -39.976  53.196 -50.982  1.00  0.00     0.161 C 
BRANCH  24  25
HETATM   25  C   UNL     1     -39.936  52.153 -52.074  1.00  0.00    -0.040 A 
HETATM   26  C   UNL     1     -40.250  52.497 -53.398  1.00  0.00     0.012 A 
HETATM   27  C   UNL     1     -40.219  51.531 -54.407  1.00  0.00     0.043 A 
HETATM   28  C   UNL     1     -39.873  50.221 -54.097  1.00  0.00     0.116 A 
HETATM   29  F   UNL     1     -39.855  49.296 -55.066  1.00  0.00    -0.206 F 
HETATM   30  C   UNL     1     -39.544  49.859 -52.798  1.00  0.00     0.043 A 
HETATM   31  C   UNL     1     -39.563  50.824 -51.791  1.00  0.00     0.012 A 
ENDBRANCH  24  25
ENDBRANCH  21  24
ENDBRANCH   6  20
TORSDOF 5
ENDMDL
MODEL 4
REMARK VINA RESULT:      -8.0      5.414      9.674
REMARK  5 active torsions:
REMARK  status: ('A' for Active; 'I' for Inactive)
REMARK    1  A    between atoms: C_4  and  N_5 
REMARK       I    between atoms: N_5  and  C_6 
REMARK       I    between atoms: C_6  and  N_7 
REMARK    2  A    between atoms: N_7  and  C_8 
REMARK    3  A    between atoms: C_17  and  C_18 
REMARK       I    between atoms: C_18  and  N_19 
REMARK    4  A    between atoms: N_19  and  C_20 
REMARK    5  A    between atoms: C_20  and  C_21 
ROOT
HETATM    1  C   UNL     1     -42.908  54.872 -56.342  1.00  0.00     0.072 C 
HETATM    2  C   UNL     1     -43.081  56.338 -56.160  1.00  0.00     0.056 C 
HETATM    3  N   UNL     1     -43.177  57.140 -57.298  1.00  0.00    -0.228 NA
HETATM    4  C   UNL     1     -43.244  58.403 -56.948  1.00  0.00     0.175 C 
HETATM    5  S   UNL     1     -43.370  58.693 -55.283  1.00  0.00    -0.044 SA
HETATM    6  C   UNL     1     -43.101  57.031 -54.959  1.00  0.00     0.100 C 
ENDROOT
BRANCH   4   7
HETATM    7  N   UNL     1     -43.195  59.413 -57.877  1.00  0.00    -0.287 N 
HETATM    8  C   UNL     1     -42.079  60.166 -58.193  1.00  0.00     0.326 C 
HETATM    9  N   UNL     1     -42.323  60.981 -59.289  1.00  0.00    -0.309 N 
HETATM   10  O   UNL     1     -41.005  60.115 -57.610  1.00  0.00    -0.247 OA
HETATM   11  H   UNL     1     -43.281  61.049 -59.601  1.00  0.00     0.170 HD
HETATM   12  H   UNL     1     -44.000  59.427 -58.481  1.00  0.00     0.172 HD
BRANCH   9  13
HETATM   13  C   UNL     1     -41.383  61.769 -59.993  1.00  0.00     0.037 A 
HETATM   14  C   UNL     1     -40.401  62.555 -59.381  1.00  0.00     0.053 A 
HETATM   15  C   UNL     1     -39.498  63.284 -60.157  1.00  0.00     0.036 A 
HETATM   16 CL   UNL     1     -38.293  64.246 -59.389  1.00  0.00    -0.084 Cl
HETATM   17  C   UNL     1     -39.556  63.239 -61.546  1.00  0.00     0.024 A 
HETATM   18  C   UNL     1     -40.528  62.458 -62.167  1.00  0.00     0.004 A 
HETATM   19  C   UNL     1     -41.436  61.729 -61.393  1.00  0.00     0.029 A 
ENDBRANCH   9  13
ENDBRANCH   4   7
BRANCH   6  20
HETATM   20  C   UNL     1     -42.877  56.550 -53.607  1.00  0.00     0.260 C 
HETATM   21  N   UNL     1     -41.599  56.100 -53.364  1.00  0.00    -0.352 N 
HETATM   22  H   UNL     1     -40.904  56.225 -54.090  1.00  0.00     0.163 HD
HETATM   23  O   UNL     1     -43.755  56.491 -52.753  1.00  0.00    -0.267 OA
BRANCH  21  24
HETATM   24  C   UNL     1     -41.249  55.305 -52.214  1.00  0.00     0.161 C 
BRANCH  24  25
HETATM   25  C   UNL     1     -40.698  53.963 -52.638  1.00  0.00    -0.040 A 
HETATM   26  C   UNL     1     -40.691  53.593 -53.991  1.00  0.00     0.012 A 
HETATM   27  C   UNL     1     -40.186  52.350 -54.382  1.00  0.00     0.043 A 
HETATM   28  C   UNL     1     -39.688  51.476 -53.423  1.00  0.00     0.116 A 
HETATM   29  F   UNL     1     -39.215  50.281 -53.802  1.00  0.00    -0.206 F 
HETATM   30  C   UNL     1     -39.671  51.825 -52.081  1.00  0.00     0.043 A 
HETATM   31  C   UNL     1     -40.162  53.070 -51.688  1.00  0.00     0.012 A 
ENDBRANCH  24  25
ENDBRANCH  21  24
ENDBRANCH   6  20
TORSDOF 5
ENDMDL
MODEL 5
REMARK VINA RESULT:      -8.0      4.680      9.095
REMARK  5 active torsions:
REMARK  status: ('A' for Active; 'I' for Inactive)
REMARK    1  A    between atoms: C_4  and  N_5 
REMARK       I    between atoms: N_5  and  C_6 
REMARK       I    between atoms: C_6  and  N_7 
REMARK    2  A    between atoms: N_7  and  C_8 
REMARK    3  A    between atoms: C_17  and  C_18 
REMARK       I    between atoms: C_18  and  N_19 
REMARK    4  A    between atoms: N_19  and  C_20 
REMARK    5  A    between atoms: C_20  and  C_21 
ROOT
HETATM    1  C   UNL     1     -44.301  56.766 -51.179  1.00  0.00     0.072 C 
HETATM    2  C   UNL     1     -43.124  57.565 -51.615  1.00  0.00     0.056 C 
HETATM    3  N   UNL     1     -43.336  58.638 -52.482  1.00  0.00    -0.228 NA
HETATM    4  C   UNL     1     -42.187  59.172 -52.819  1.00  0.00     0.175 C 
HETATM    5  S   UNL     1     -40.830  58.556 -52.009  1.00  0.00    -0.044 SA
HETATM    6  C   UNL     1     -41.795  57.329 -51.300  1.00  0.00     0.100 C 
ENDROOT
BRANCH   4   7
HETATM    7  N   UNL     1     -42.098  60.149 -53.780  1.00  0.00    -0.287 N 
HETATM    8  C   UNL     1     -42.068  59.939 -55.146  1.00  0.00     0.326 C 
HETATM    9  N   UNL     1     -42.151  61.140 -55.836  1.00  0.00    -0.309 N 
HETATM   10  O   UNL     1     -42.002  58.845 -55.691  1.00  0.00    -0.247 OA
HETATM   11  H   UNL     1     -42.056  61.985 -55.291  1.00  0.00     0.170 HD
HETATM   12  H   UNL     1     -42.274  61.071 -53.416  1.00  0.00     0.172 HD
BRANCH   9  13
HETATM   13  C   UNL     1     -42.305  61.314 -57.231  1.00  0.00     0.037 A 
HETATM   14  C   UNL     1     -41.292  61.766 -58.084  1.00  0.00     0.053 A 
HETATM   15  C   UNL     1     -41.527  61.885 -59.455  1.00  0.00     0.036 A 
HETATM   16 CL   UNL     1     -40.270  62.442 -60.492  1.00  0.00    -0.084 Cl
HETATM   17  C   UNL     1     -42.766  61.555 -59.995  1.00  0.00     0.024 A 
HETATM   18  C   UNL     1     -43.781  61.102 -59.156  1.00  0.00     0.004 A 
HETATM   19  C   UNL     1     -43.550  60.984 -57.782  1.00  0.00     0.029 A 
ENDBRANCH   9  13
ENDBRANCH   4   7
BRANCH   6  20
HETATM   20  C   UNL     1     -41.198  56.229 -50.562  1.00  0.00     0.260 C 
HETATM   21  N   UNL     1     -40.800  55.167 -51.340  1.00  0.00    -0.352 N 
HETATM   22  H   UNL     1     -40.859  55.265 -52.347  1.00  0.00     0.163 HD
HETATM   23  O   UNL     1     -41.096  56.207 -49.340  1.00  0.00    -0.267 OA
BRANCH  21  24
HETATM   24  C   UNL     1     -40.482  53.869 -50.799  1.00  0.00     0.161 C 
BRANCH  24  25
HETATM   25  C   UNL     1     -40.265  52.865 -51.908  1.00  0.00    -0.040 A 
HETATM   26  C   UNL     1     -39.712  51.605 -51.628  1.00  0.00     0.012 A 
HETATM   27  C   UNL     1     -39.506  50.679 -52.654  1.00  0.00     0.043 A 
HETATM   28  C   UNL     1     -39.854  51.008 -53.959  1.00  0.00     0.116 A 
HETATM   29  F   UNL     1     -39.646  50.121 -54.942  1.00  0.00    -0.206 F 
HETATM   30  C   UNL     1     -40.417  52.241 -54.258  1.00  0.00     0.043 A 
HETATM   31  C   UNL     1     -40.635  53.163 -53.234  1.00  0.00     0.012 A 
ENDBRANCH  24  25
ENDBRANCH  21  24
ENDBRANCH   6  20
TORSDOF 5
ENDMDL
MODEL 6
REMARK VINA RESULT:      -7.9      5.119      8.895
REMARK  5 active torsions:
REMARK  status: ('A' for Active; 'I' for Inactive)
REMARK    1  A    between atoms: C_4  and  N_5 
REMARK       I    between atoms: N_5  and  C_6 
REMARK       I    between atoms: C_6  and  N_7 
REMARK    2  A    between atoms: N_7  and  C_8 
REMARK    3  A    between atoms: C_17  and  C_18 
REMARK       I    between atoms: C_18  and  N_19 
REMARK    4  A    between atoms: N_19  and  C_20 
REMARK    5  A    between atoms: C_20  and  C_21 
ROOT
HETATM    1  C   UNL     1     -45.763  58.333 -56.174  1.00  0.00     0.072 C 
HETATM    2  C   UNL     1     -45.027  58.384 -54.882  1.00  0.00     0.056 C 
HETATM    3  N   UNL     1     -45.341  59.401 -53.980  1.00  0.00    -0.228 NA
HETATM    4  C   UNL     1     -44.544  59.335 -52.941  1.00  0.00     0.175 C 
HETATM    5  S   UNL     1     -43.514  57.988 -52.893  1.00  0.00    -0.044 SA
HETATM    6  C   UNL     1     -43.995  57.549 -54.480  1.00  0.00     0.100 C 
ENDROOT
BRANCH   4   7
HETATM    7  N   UNL     1     -44.538  60.308 -51.972  1.00  0.00    -0.287 N 
HETATM    8  C   UNL     1     -45.327  60.323 -50.837  1.00  0.00     0.326 C 
HETATM    9  N   UNL     1     -44.953  61.351 -49.984  1.00  0.00    -0.309 N 
HETATM   10  O   UNL     1     -46.225  59.528 -50.591  1.00  0.00    -0.247 OA
HETATM   11  H   UNL     1     -44.301  62.030 -50.348  1.00  0.00     0.170 HD
HETATM   12  H   UNL     1     -43.744  60.923 -52.041  1.00  0.00     0.172 HD
BRANCH   9  13
HETATM   13  C   UNL     1     -45.421  61.583 -48.669  1.00  0.00     0.037 A 
HETATM   14  C   UNL     1     -44.760  61.158 -47.513  1.00  0.00     0.053 A 
HETATM   15  C   UNL     1     -45.285  61.453 -46.252  1.00  0.00     0.036 A 
HETATM   16 CL   UNL     1     -44.457  60.924 -44.837  1.00  0.00    -0.084 Cl
HETATM   17  C   UNL     1     -46.468  62.173 -46.126  1.00  0.00     0.024 A 
HETATM   18  C   UNL     1     -47.134  62.603 -47.271  1.00  0.00     0.004 A 
HETATM   19  C   UNL     1     -46.613  62.308 -48.534  1.00  0.00     0.029 A 
ENDBRANCH   9  13
ENDBRANCH   4   7
BRANCH   6  20
HETATM   20  C   UNL     1     -43.313  56.497 -55.213  1.00  0.00     0.260 C 
HETATM   21  N   UNL     1     -43.730  55.222 -54.905  1.00  0.00    -0.352 N 
HETATM   22  H   UNL     1     -44.524  55.117 -54.284  1.00  0.00     0.163 HD
HETATM   23  O   UNL     1     -42.400  56.703 -56.006  1.00  0.00    -0.267 OA
BRANCH  21  24
HETATM   24  C   UNL     1     -42.990  54.041 -55.270  1.00  0.00     0.161 C 
BRANCH  24  25
HETATM   25  C   UNL     1     -42.058  53.627 -54.155  1.00  0.00    -0.040 A 
HETATM   26  C   UNL     1     -40.916  52.858 -54.430  1.00  0.00     0.012 A 
HETATM   27  C   UNL     1     -40.057  52.471 -53.398  1.00  0.00     0.043 A 
HETATM   28  C   UNL     1     -40.337  52.850 -52.091  1.00  0.00     0.116 A 
HETATM   29  F   UNL     1     -39.516  52.467 -51.103  1.00  0.00    -0.206 F 
HETATM   30  C   UNL     1     -41.451  53.622 -51.795  1.00  0.00     0.043 A 
HETATM   31  C   UNL     1     -42.303  54.021 -52.825  1.00  0.00     0.012 A 
ENDBRANCH  24  25
ENDBRANCH  21  24
ENDBRANCH   6  20
TORSDOF 5
ENDMDL
MODEL 7
REMARK VINA RESULT:      -7.9      6.115      9.762
REMARK  5 active torsions:
REMARK  status: ('A' for Active; 'I' for Inactive)
REMARK    1  A    between atoms: C_4  and  N_5 
REMARK       I    between atoms: N_5  and  C_6 
REMARK       I    between atoms: C_6  and  N_7 
REMARK    2  A    between atoms: N_7  and  C_8 
REMARK    3  A    between atoms: C_17  and  C_18 
REMARK       I    between atoms: C_18  and  N_19 
REMARK    4  A    between atoms: N_19  and  C_20 
REMARK    5  A    between atoms: C_20  and  C_21 
ROOT
HETATM    1  C   UNL     1     -40.861  55.691 -50.208  1.00  0.00     0.072 C 
HETATM    2  C   UNL     1     -41.523  56.665 -51.117  1.00  0.00     0.056 C 
HETATM    3  N   UNL     1     -41.814  57.939 -50.626  1.00  0.00    -0.228 NA
HETATM    4  C   UNL     1     -42.464  58.627 -51.534  1.00  0.00     0.175 C 
HETATM    5  S   UNL     1     -42.610  57.882 -53.050  1.00  0.00    -0.044 SA
HETATM    6  C   UNL     1     -41.951  56.432 -52.415  1.00  0.00     0.100 C 
ENDROOT
BRANCH   4   7
HETATM    7  N   UNL     1     -43.001  59.860 -51.257  1.00  0.00    -0.287 N 
HETATM    8  C   UNL     1     -44.264  60.095 -50.745  1.00  0.00     0.326 C 
HETATM    9  N   UNL     1     -44.429  61.434 -50.421  1.00  0.00    -0.309 N 
HETATM   10  O   UNL     1     -45.124  59.242 -50.570  1.00  0.00    -0.247 OA
HETATM   11  H   UNL     1     -43.712  62.069 -50.738  1.00  0.00     0.170 HD
HETATM   12  H   UNL     1     -42.313  60.594 -51.256  1.00  0.00     0.172 HD
BRANCH   9  13
HETATM   13  C   UNL     1     -45.519  62.018 -49.734  1.00  0.00     0.037 A 
HETATM   14  C   UNL     1     -45.743  61.888 -48.360  1.00  0.00     0.053 A 
HETATM   15  C   UNL     1     -46.835  62.520 -47.761  1.00  0.00     0.036 A 
HETATM   16 CL   UNL     1     -47.097  62.351 -46.067  1.00  0.00    -0.084 Cl
HETATM   17  C   UNL     1     -47.712  63.290 -48.518  1.00  0.00     0.024 A 
HETATM   18  C   UNL     1     -47.498  63.429 -49.886  1.00  0.00     0.004 A 
HETATM   19  C   UNL     1     -46.407  62.795 -50.490  1.00  0.00     0.029 A 
ENDBRANCH   9  13
ENDBRANCH   4   7
BRANCH   6  20
HETATM   20  C   UNL     1     -41.954  55.200 -53.184  1.00  0.00     0.260 C 
HETATM   21  N   UNL     1     -40.704  54.718 -53.497  1.00  0.00    -0.352 N 
HETATM   22  H   UNL     1     -39.899  55.186 -53.099  1.00  0.00     0.163 HD
HETATM   23  O   UNL     1     -42.975  54.647 -53.579  1.00  0.00    -0.267 OA
BRANCH  21  24
HETATM   24  C   UNL     1     -40.477  53.706 -54.499  1.00  0.00     0.161 C 
BRANCH  24  25
HETATM   25  C   UNL     1     -40.181  52.371 -53.856  1.00  0.00    -0.040 A 
HETATM   26  C   UNL     1     -39.874  52.294 -52.488  1.00  0.00     0.012 A 
HETATM   27  C   UNL     1     -39.595  51.060 -51.895  1.00  0.00     0.043 A 
HETATM   28  C   UNL     1     -39.623  49.903 -52.665  1.00  0.00     0.116 A 
HETATM   29  F   UNL     1     -39.345  48.723 -52.094  1.00  0.00    -0.206 F 
HETATM   30  C   UNL     1     -39.939  49.952 -54.015  1.00  0.00     0.043 A 
HETATM   31  C   UNL     1     -40.230  51.181 -54.608  1.00  0.00     0.012 A 
ENDBRANCH  24  25
ENDBRANCH  21  24
ENDBRANCH   6  20
TORSDOF 5
ENDMDL
MODEL 8
REMARK VINA RESULT:      -7.9      5.203      9.388
REMARK  5 active torsions:
REMARK  status: ('A' for Active; 'I' for Inactive)
REMARK    1  A    between atoms: C_4  and  N_5 
REMARK       I    between atoms: N_5  and  C_6 
REMARK       I    between atoms: C_6  and  N_7 
REMARK    2  A    between atoms: N_7  and  C_8 
REMARK    3  A    between atoms: C_17  and  C_18 
REMARK       I    between atoms: C_18  and  N_19 
REMARK    4  A    between atoms: N_19  and  C_20 
REMARK    5  A    between atoms: C_20  and  C_21 
ROOT
HETATM    1  C   UNL     1     -44.087  56.452 -54.524  1.00  0.00     0.072 C 
HETATM    2  C   UNL     1     -43.293  57.678 -54.246  1.00  0.00     0.056 C 
HETATM    3  N   UNL     1     -43.251  58.676 -55.221  1.00  0.00    -0.228 NA
HETATM    4  C   UNL     1     -42.445  59.638 -54.839  1.00  0.00     0.175 C 
HETATM    5  S   UNL     1     -41.841  59.501 -53.260  1.00  0.00    -0.044 SA
HETATM    6  C   UNL     1     -42.519  57.932 -53.124  1.00  0.00     0.100 C 
ENDROOT
BRANCH   4   7
HETATM    7  N   UNL     1     -42.106  60.671 -55.677  1.00  0.00    -0.287 N 
HETATM    8  C   UNL     1     -41.600  60.541 -56.957  1.00  0.00     0.326 C 
HETATM    9  N   UNL     1     -41.529  61.773 -57.592  1.00  0.00    -0.309 N 
HETATM   10  O   UNL     1     -41.277  59.485 -57.485  1.00  0.00    -0.247 OA
HETATM   11  H   UNL     1     -41.684  62.589 -57.019  1.00  0.00     0.170 HD
HETATM   12  H   UNL     1     -42.459  61.560 -55.363  1.00  0.00     0.172 HD
BRANCH   9  13
HETATM   13  C   UNL     1     -41.214  62.017 -58.949  1.00  0.00     0.037 A 
HETATM   14  C   UNL     1     -42.026  61.641 -60.024  1.00  0.00     0.053 A 
HETATM   15  C   UNL     1     -41.646  61.944 -61.333  1.00  0.00     0.036 A 
HETATM   16 CL   UNL     1     -42.657  61.476 -62.647  1.00  0.00    -0.084 Cl
HETATM   17  C   UNL     1     -40.460  62.626 -61.589  1.00  0.00     0.024 A 
HETATM   18  C   UNL     1     -39.645  63.007 -60.527  1.00  0.00     0.004 A 
HETATM   19  C   UNL     1     -40.021  62.703 -59.215  1.00  0.00     0.029 A 
ENDBRANCH   9  13
ENDBRANCH   4   7
BRANCH   6  20
HETATM   20  C   UNL     1     -42.210  57.069 -51.996  1.00  0.00     0.260 C 
HETATM   21  N   UNL     1     -41.264  56.104 -52.257  1.00  0.00    -0.352 N 
HETATM   22  H   UNL     1     -40.796  56.126 -53.155  1.00  0.00     0.163 HD
HETATM   23  O   UNL     1     -42.772  57.144 -50.909  1.00  0.00    -0.267 OA
BRANCH  21  24
HETATM   24  C   UNL     1     -41.042  54.967 -51.399  1.00  0.00     0.161 C 
BRANCH  24  25
HETATM   25  C   UNL     1     -40.602  53.766 -52.205  1.00  0.00    -0.040 A 
HETATM   26  C   UNL     1     -39.963  52.685 -51.579  1.00  0.00     0.012 A 
HETATM   27  C   UNL     1     -39.552  51.577 -52.325  1.00  0.00     0.043 A 
HETATM   28  C   UNL     1     -39.780  51.547 -53.695  1.00  0.00     0.116 A 
HETATM   29  F   UNL     1     -39.374  50.487 -54.408  1.00  0.00    -0.206 F 
HETATM   30  C   UNL     1     -40.423  52.596 -54.335  1.00  0.00     0.043 A 
HETATM   31  C   UNL     1     -40.846  53.698 -53.591  1.00  0.00     0.012 A 
ENDBRANCH  24  25
ENDBRANCH  21  24
ENDBRANCH   6  20
TORSDOF 5
ENDMDL
MODEL 9
REMARK VINA RESULT:      -7.9      4.116      9.103
REMARK  5 active torsions:
REMARK  status: ('A' for Active; 'I' for Inactive)
REMARK    1  A    between atoms: C_4  and  N_5 
REMARK       I    between atoms: N_5  and  C_6 
REMARK       I    between atoms: C_6  and  N_7 
REMARK    2  A    between atoms: N_7  and  C_8 
REMARK    3  A    between atoms: C_17  and  C_18 
REMARK       I    between atoms: C_18  and  N_19 
REMARK    4  A    between atoms: N_19  and  C_20 
REMARK    5  A    between atoms: C_20  and  C_21 
ROOT
HETATM    1  C   UNL     1     -44.504  57.365 -51.272  1.00  0.00     0.072 C 
HETATM    2  C   UNL     1     -43.950  56.842 -52.550  1.00  0.00     0.056 C 
HETATM    3  N   UNL     1     -44.343  57.452 -53.742  1.00  0.00    -0.228 NA
HETATM    4  C   UNL     1     -43.822  56.812 -54.761  1.00  0.00     0.175 C 
HETATM    5  S   UNL     1     -42.720  55.585 -54.369  1.00  0.00    -0.044 SA
HETATM    6  C   UNL     1     -43.109  55.751 -52.707  1.00  0.00     0.100 C 
ENDROOT
BRANCH   4   7
HETATM    7  N   UNL     1     -44.169  57.113 -56.056  1.00  0.00    -0.287 N 
HETATM    8  C   UNL     1     -43.678  58.170 -56.799  1.00  0.00     0.326 C 
HETATM    9  N   UNL     1     -44.097  58.088 -58.119  1.00  0.00    -0.309 N 
HETATM   10  O   UNL     1     -42.949  59.056 -56.371  1.00  0.00    -0.247 OA
HETATM   11  H   UNL     1     -44.807  57.402 -58.328  1.00  0.00     0.170 HD
HETATM   12  H   UNL     1     -44.662  56.363 -56.512  1.00  0.00     0.172 HD
BRANCH   9  13
HETATM   13  C   UNL     1     -43.674  58.895 -59.201  1.00  0.00     0.037 A 
HETATM   14  C   UNL     1     -44.360  60.026 -59.654  1.00  0.00     0.053 A 
HETATM   15  C   UNL     1     -43.855  60.778 -60.716  1.00  0.00     0.036 A 
HETATM   16 CL   UNL     1     -44.712  62.169 -61.262  1.00  0.00    -0.084 Cl
HETATM   17  C   UNL     1     -42.663  60.419 -61.338  1.00  0.00     0.024 A 
HETATM   18  C   UNL     1     -41.970  59.296 -60.894  1.00  0.00     0.004 A 
HETATM   19  C   UNL     1     -42.474  58.539 -59.832  1.00  0.00     0.029 A 
ENDBRANCH   9  13
ENDBRANCH   4   7
BRANCH   6  20
HETATM   20  C   UNL     1     -42.628  54.800 -51.719  1.00  0.00     0.260 C 
HETATM   21  N   UNL     1     -41.258  54.726 -51.616  1.00  0.00    -0.352 N 
HETATM   22  H   UNL     1     -40.703  55.387 -52.148  1.00  0.00     0.163 HD
HETATM   23  O   UNL     1     -43.364  54.075 -51.059  1.00  0.00    -0.267 OA
BRANCH  21  24
HETATM   24  C   UNL     1     -40.575  53.649 -50.943  1.00  0.00     0.161 C 
BRANCH  24  25
HETATM   25  C   UNL     1     -40.244  52.536 -51.911  1.00  0.00    -0.040 A 
HETATM   26  C   UNL     1     -39.804  51.290 -51.438  1.00  0.00     0.012 A 
HETATM   27  C   UNL     1     -39.493  50.264 -52.334  1.00  0.00     0.043 A 
HETATM   28  C   UNL     1     -39.621  50.479 -53.701  1.00  0.00     0.116 A 
HETATM   29  F   UNL     1     -39.311  49.495 -54.556  1.00  0.00    -0.206 F 
HETATM   30  C   UNL     1     -40.069  51.697 -54.192  1.00  0.00     0.043 A 
HETATM   31  C   UNL     1     -40.392  52.720 -53.300  1.00  0.00     0.012 A 
ENDBRANCH  24  25
ENDBRANCH  21  24
ENDBRANCH   6  20
TORSDOF 5
ENDMDL
MODEL 10
REMARK VINA RESULT:      -7.8      4.732      9.461
REMARK  5 active torsions:
REMARK  status: ('A' for Active; 'I' for Inactive)
REMARK    1  A    between atoms: C_4  and  N_5 
REMARK       I    between atoms: N_5  and  C_6 
REMARK       I    between atoms: C_6  and  N_7 
REMARK    2  A    between atoms: N_7  and  C_8 
REMARK    3  A    between atoms: C_17  and  C_18 
REMARK       I    between atoms: C_18  and  N_19 
REMARK    4  A    between atoms: N_19  and  C_20 
REMARK    5  A    between atoms: C_20  and  C_21 
ROOT
HETATM    1  C   UNL     1     -43.246  54.239 -55.531  1.00  0.00     0.072 C 
HETATM    2  C   UNL     1     -43.274  55.672 -55.134  1.00  0.00     0.056 C 
HETATM    3  N   UNL     1     -43.480  56.631 -56.127  1.00  0.00    -0.228 NA
HETATM    4  C   UNL     1     -43.393  57.833 -55.610  1.00  0.00     0.175 C 
HETATM    5  S   UNL     1     -43.241  57.893 -53.922  1.00  0.00    -0.044 SA
HETATM    6  C   UNL     1     -43.056  56.189 -53.866  1.00  0.00     0.100 C 
ENDROOT
BRANCH   4   7
HETATM    7  N   UNL     1     -43.408  58.960 -56.395  1.00  0.00    -0.287 N 
HETATM    8  C   UNL     1     -42.531  59.236 -57.428  1.00  0.00     0.326 C 
HETATM    9  N   UNL     1     -42.926  60.368 -58.126  1.00  0.00    -0.309 N 
HETATM   10  O   UNL     1     -41.547  58.567 -57.717  1.00  0.00    -0.247 OA
HETATM   11  H   UNL     1     -43.665  60.920 -57.716  1.00  0.00     0.170 HD
HETATM   12  H   UNL     1     -44.257  59.490 -56.300  1.00  0.00     0.172 HD
BRANCH   9  13
HETATM   13  C   UNL     1     -42.373  60.865 -59.329  1.00  0.00     0.037 A 
HETATM   14  C   UNL     1     -41.322  61.785 -59.390  1.00  0.00     0.053 A 
HETATM   15  C   UNL     1     -40.823  62.204 -60.625  1.00  0.00     0.036 A 
HETATM   16 CL   UNL     1     -39.527  63.337 -60.684  1.00  0.00    -0.084 Cl
HETATM   17  C   UNL     1     -41.357  61.711 -61.812  1.00  0.00     0.024 A 
HETATM   18  C   UNL     1     -42.403  60.793 -61.764  1.00  0.00     0.004 A 
HETATM   19  C   UNL     1     -42.907  60.374 -60.528  1.00  0.00     0.029 A 
ENDBRANCH   9  13
ENDBRANCH   4   7
BRANCH   6  20
HETATM   20  C   UNL     1     -42.666  55.510 -52.642  1.00  0.00     0.260 C 
HETATM   21  N   UNL     1     -41.320  55.248 -52.537  1.00  0.00    -0.352 N 
HETATM   22  H   UNL     1     -40.704  55.622 -53.249  1.00  0.00     0.163 HD
HETATM   23  O   UNL     1     -43.464  55.143 -51.785  1.00  0.00    -0.267 OA
BRANCH  21  24
HETATM   24  C   UNL     1     -40.769  54.324 -51.577  1.00  0.00     0.161 C 
BRANCH  24  25
HETATM   25  C   UNL     1     -40.364  53.032 -52.248  1.00  0.00    -0.040 A 
HETATM   26  C   UNL     1     -40.492  52.882 -53.637  1.00  0.00     0.012 A 
HETATM   27  C   UNL     1     -40.122  51.685 -54.256  1.00  0.00     0.043 A 
HETATM   28  C   UNL     1     -39.624  50.638 -53.490  1.00  0.00     0.116 A 
HETATM   29  F   UNL     1     -39.281  49.488 -54.087  1.00  0.00    -0.206 F 
HETATM   30  C   UNL     1     -39.474  50.767 -52.117  1.00  0.00     0.043 A 
HETATM   31  C   UNL     1     -39.831  51.965 -51.497  1.00  0.00     0.012 A 
ENDBRANCH  24  25
ENDBRANCH  21  24
ENDBRANCH   6  20
TORSDOF 5
ENDMDL
