MODEL 1
REMARK VINA RESULT:      -8.4      0.000      0.000
REMARK  3 active torsions:
REMARK  status: ('A' for Active; 'I' for Inactive)
REMARK    1  A    between atoms: C_6  and  N_7 
REMARK       I    between atoms: N_7  and  C_8 
REMARK    2  A    between atoms: C_8  and  C_9 
REMARK    3  A    between atoms: C_9  and  C_10 
ROOT
HETATM    1  C   UNL     1     -41.275  54.129 -54.224  1.00  0.00     0.286 C 
HETATM    2  N   UNL     1     -40.381  52.938 -54.576  1.00  0.00    -0.056 N 
HETATM    3  H   UNL     1     -40.740  52.565 -55.481  1.00  0.00     0.278 HD
HETATM    4  H   UNL     1     -39.416  53.244 -54.745  1.00  0.00     0.278 HD
HETATM    5  C   UNL     1     -40.456  51.888 -53.515  1.00  0.00     0.209 C 
HETATM    6  C   UNL     1     -39.952  52.503 -52.191  1.00  0.00     0.115 C 
HETATM    7  N   UNL     1     -40.625  53.760 -51.860  1.00  0.00    -0.353 N 
HETATM    8  C   UNL     1     -40.946  54.694 -52.828  1.00  0.00     0.249 C 
HETATM    9  O   UNL     1     -41.044  55.882 -52.546  1.00  0.00    -0.271 OA
HETATM   10  C   UNL     1     -39.623  50.677 -53.912  1.00  0.00     0.035 C 
HETATM   11  C   UNL     1     -39.691  49.622 -52.807  1.00  0.00     0.002 C 
HETATM   12  C   UNL     1     -39.304  50.185 -51.437  1.00  0.00     0.002 C 
HETATM   13  C   UNL     1     -40.072  51.462 -51.076  1.00  0.00     0.027 C 
HETATM   14  H   UNL     1     -40.402  54.192 -50.965  1.00  0.00     0.163 HD
ENDROOT
BRANCH   1  15
HETATM   15  C   UNL     1     -41.223  55.186 -55.334  1.00  0.00     0.146 C 
BRANCH  15  16
HETATM   16  C   UNL     1     -42.455  55.032 -56.199  1.00  0.00     0.224 C 
HETATM   17  N   UNL     1     -42.475  55.830 -57.319  1.00  0.00    -0.327 N 
HETATM   18  H   UNL     1     -41.622  56.312 -57.577  1.00  0.00     0.169 HD
HETATM   19  O   UNL     1     -43.287  54.177 -55.892  1.00  0.00    -0.273 OA
BRANCH  17  20
HETATM   20  C   UNL     1     -43.555  55.945 -58.232  1.00  0.00     0.040 A 
HETATM   21  C   UNL     1     -44.376  57.089 -58.193  1.00  0.00    -0.035 A 
HETATM   22  C   UNL     1     -45.450  57.196 -59.100  1.00  0.00     0.015 A 
HETATM   23  C   UNL     1     -44.139  58.226 -57.237  1.00  0.00     0.050 C 
HETATM   24  C   UNL     1     -45.727  56.184 -60.025  1.00  0.00    -0.061 A 
HETATM   25  C   UNL     1     -46.855  56.312 -61.007  1.00  0.00     0.048 C 
HETATM   26  C   UNL     1     -44.917  55.051 -60.045  1.00  0.00     0.009 A 
HETATM   27  C   UNL     1     -43.847  54.933 -59.156  1.00  0.00     0.030 A 
ENDBRANCH  17  20
ENDBRANCH  15  16
ENDBRANCH   1  15
TORSDOF 3
ENDMDL
MODEL 2
REMARK VINA RESULT:      -8.3      2.026      7.773
REMARK  3 active torsions:
REMARK  status: ('A' for Active; 'I' for Inactive)
REMARK    1  A    between atoms: C_6  and  N_7 
REMARK       I    between atoms: N_7  and  C_8 
REMARK    2  A    between atoms: C_8  and  C_9 
REMARK    3  A    between atoms: C_9  and  C_10 
ROOT
HETATM    1  C   UNL     1     -42.025  57.275 -54.879  1.00  0.00     0.286 C 
HETATM    2  N   UNL     1     -42.841  56.404 -55.835  1.00  0.00    -0.056 N 
HETATM    3  H   UNL     1     -42.611  55.415 -55.594  1.00  0.00     0.278 HD
HETATM    4  H   UNL     1     -43.848  56.521 -55.667  1.00  0.00     0.278 HD
HETATM    5  C   UNL     1     -42.477  56.691 -57.255  1.00  0.00     0.209 C 
HETATM    6  C   UNL     1     -42.801  58.173 -57.547  1.00  0.00     0.115 C 
HETATM    7  N   UNL     1     -42.212  59.084 -56.565  1.00  0.00    -0.353 N 
HETATM    8  C   UNL     1     -42.161  58.773 -55.218  1.00  0.00     0.249 C 
HETATM    9  O   UNL     1     -42.136  59.656 -54.371  1.00  0.00    -0.271 OA
HETATM   10  C   UNL     1     -43.240  55.766 -58.193  1.00  0.00     0.035 C 
HETATM   11  C   UNL     1     -42.873  56.087 -59.643  1.00  0.00     0.002 C 
HETATM   12  C   UNL     1     -43.070  57.568 -59.981  1.00  0.00     0.002 C 
HETATM   13  C   UNL     1     -42.384  58.505 -58.980  1.00  0.00     0.027 C 
HETATM   14  H   UNL     1     -42.317  60.084 -56.727  1.00  0.00     0.163 HD
ENDROOT
BRANCH   1  15
HETATM   15  C   UNL     1     -42.377  56.949 -53.422  1.00  0.00     0.146 C 
BRANCH  15  16
HETATM   16  C   UNL     1     -42.253  55.454 -53.224  1.00  0.00     0.224 C 
HETATM   17  N   UNL     1     -40.963  54.978 -53.229  1.00  0.00    -0.327 N 
HETATM   18  H   UNL     1     -40.206  55.649 -53.185  1.00  0.00     0.169 HD
HETATM   19  O   UNL     1     -43.275  54.804 -53.000  1.00  0.00    -0.273 OA
BRANCH  17  20
HETATM   20  C   UNL     1     -40.588  53.611 -53.162  1.00  0.00     0.040 A 
HETATM   21  C   UNL     1     -40.161  53.069 -51.933  1.00  0.00    -0.035 A 
HETATM   22  C   UNL     1     -39.786  51.712 -51.874  1.00  0.00     0.015 A 
HETATM   23  C   UNL     1     -40.113  53.875 -50.664  1.00  0.00     0.050 C 
HETATM   24  C   UNL     1     -39.813  50.897 -53.009  1.00  0.00    -0.061 A 
HETATM   25  C   UNL     1     -39.438  49.445 -52.938  1.00  0.00     0.048 C 
HETATM   26  C   UNL     1     -40.225  51.446 -54.222  1.00  0.00     0.009 A 
HETATM   27  C   UNL     1     -40.604  52.788 -54.296  1.00  0.00     0.030 A 
ENDBRANCH  17  20
ENDBRANCH  15  16
ENDBRANCH   1  15
TORSDOF 3
ENDMDL
MODEL 3
REMARK VINA RESULT:      -8.2      4.087      8.270
REMARK  3 active torsions:
REMARK  status: ('A' for Active; 'I' for Inactive)
REMARK    1  A    between atoms: C_6  and  N_7 
REMARK       I    between atoms: N_7  and  C_8 
REMARK    2  A    between atoms: C_8  and  C_9 
REMARK    3  A    between atoms: C_9  and  C_10 
ROOT
HETATM    1  C   UNL     1     -43.124  57.127 -51.566  1.00  0.00     0.286 C 
HETATM    2  N   UNL     1     -44.048  58.078 -50.802  1.00  0.00    -0.056 N 
HETATM    3  H   UNL     1     -44.631  57.477 -50.180  1.00  0.00     0.278 HD
HETATM    4  H   UNL     1     -43.507  58.699 -50.189  1.00  0.00     0.278 HD
HETATM    5  C   UNL     1     -44.916  58.844 -51.746  1.00  0.00     0.209 C 
HETATM    6  C   UNL     1     -44.004  59.684 -52.668  1.00  0.00     0.115 C 
HETATM    7  N   UNL     1     -42.957  58.885 -53.306  1.00  0.00    -0.353 N 
HETATM    8  C   UNL     1     -42.298  57.871 -52.634  1.00  0.00     0.249 C 
HETATM    9  O   UNL     1     -41.161  57.546 -52.948  1.00  0.00    -0.271 OA
HETATM   10  C   UNL     1     -45.882  59.731 -50.973  1.00  0.00     0.035 C 
HETATM   11  C   UNL     1     -46.748  60.524 -51.953  1.00  0.00     0.002 C 
HETATM   12  C   UNL     1     -45.911  61.306 -52.970  1.00  0.00     0.002 C 
HETATM   13  C   UNL     1     -44.869  60.435 -53.681  1.00  0.00     0.027 C 
HETATM   14  H   UNL     1     -42.358  59.350 -53.987  1.00  0.00     0.163 HD
ENDROOT
BRANCH   1  15
HETATM   15  C   UNL     1     -42.262  56.316 -50.589  1.00  0.00     0.146 C 
BRANCH  15  16
HETATM   16  C   UNL     1     -42.106  54.916 -51.139  1.00  0.00     0.224 C 
HETATM   17  N   UNL     1     -40.877  54.650 -51.695  1.00  0.00    -0.327 N 
HETATM   18  H   UNL     1     -40.130  55.318 -51.545  1.00  0.00     0.169 HD
HETATM   19  O   UNL     1     -43.030  54.116 -50.984  1.00  0.00    -0.273 OA
BRANCH  17  20
HETATM   20  C   UNL     1     -40.514  53.451 -52.363  1.00  0.00     0.040 A 
HETATM   21  C   UNL     1     -40.781  53.318 -53.740  1.00  0.00    -0.035 A 
HETATM   22  C   UNL     1     -40.422  52.124 -54.397  1.00  0.00     0.015 A 
HETATM   23  C   UNL     1     -41.413  54.413 -54.555  1.00  0.00     0.050 C 
HETATM   24  C   UNL     1     -39.822  51.064 -53.709  1.00  0.00    -0.061 A 
HETATM   25  C   UNL     1     -39.417  49.804 -54.416  1.00  0.00     0.048 C 
HETATM   26  C   UNL     1     -39.575  51.203 -52.345  1.00  0.00     0.009 A 
HETATM   27  C   UNL     1     -39.921  52.381 -51.681  1.00  0.00     0.030 A 
ENDBRANCH  17  20
ENDBRANCH  15  16
ENDBRANCH   1  15
TORSDOF 3
ENDMDL
MODEL 4
REMARK VINA RESULT:      -8.1      2.731      7.801
REMARK  3 active torsions:
REMARK  status: ('A' for Active; 'I' for Inactive)
REMARK    1  A    between atoms: C_6  and  N_7 
REMARK       I    between atoms: N_7  and  C_8 
REMARK    2  A    between atoms: C_8  and  C_9 
REMARK    3  A    between atoms: C_9  and  C_10 
ROOT
HETATM    1  C   UNL     1     -43.056  57.321 -52.050  1.00  0.00     0.286 C 
HETATM    2  N   UNL     1     -42.745  56.734 -53.429  1.00  0.00    -0.056 N 
HETATM    3  H   UNL     1     -41.713  56.585 -53.454  1.00  0.00     0.278 HD
HETATM    4  H   UNL     1     -43.178  55.809 -53.537  1.00  0.00     0.278 HD
HETATM    5  C   UNL     1     -43.161  57.675 -54.511  1.00  0.00     0.209 C 
HETATM    6  C   UNL     1     -44.687  57.890 -54.405  1.00  0.00     0.115 C 
HETATM    7  N   UNL     1     -45.110  58.276 -53.058  1.00  0.00    -0.353 N 
HETATM    8  C   UNL     1     -44.538  57.725 -51.925  1.00  0.00     0.249 C 
HETATM    9  O   UNL     1     -45.165  57.656 -50.876  1.00  0.00    -0.271 OA
HETATM   10  C   UNL     1     -42.778  57.114 -55.874  1.00  0.00     0.035 C 
HETATM   11  C   UNL     1     -43.230  58.078 -56.972  1.00  0.00     0.002 C 
HETATM   12  C   UNL     1     -44.719  58.423 -56.869  1.00  0.00     0.002 C 
HETATM   13  C   UNL     1     -45.128  58.896 -55.469  1.00  0.00     0.027 C 
HETATM   14  H   UNL     1     -46.092  58.509 -52.921  1.00  0.00     0.163 HD
ENDROOT
BRANCH   1  15
HETATM   15  C   UNL     1     -42.592  56.366 -50.943  1.00  0.00     0.146 C 
BRANCH  15  16
HETATM   16  C   UNL     1     -42.415  54.989 -51.543  1.00  0.00     0.224 C 
HETATM   17  N   UNL     1     -41.108  54.621 -51.763  1.00  0.00    -0.327 N 
HETATM   18  H   UNL     1     -40.376  55.194 -51.360  1.00  0.00     0.169 HD
HETATM   19  O   UNL     1     -43.413  54.287 -51.712  1.00  0.00    -0.273 OA
BRANCH  17  20
HETATM   20  C   UNL     1     -40.682  53.428 -52.403  1.00  0.00     0.040 A 
HETATM   21  C   UNL     1     -40.244  52.341 -51.622  1.00  0.00    -0.035 A 
HETATM   22  C   UNL     1     -39.819  51.160 -52.263  1.00  0.00     0.015 A 
HETATM   23  C   UNL     1     -40.234  52.374 -50.117  1.00  0.00     0.050 C 
HETATM   24  C   UNL     1     -39.808  51.051 -53.657  1.00  0.00    -0.061 A 
HETATM   25  C   UNL     1     -39.380  49.784 -54.338  1.00  0.00     0.048 C 
HETATM   26  C   UNL     1     -40.232  52.137 -54.420  1.00  0.00     0.009 A 
HETATM   27  C   UNL     1     -40.659  53.312 -53.799  1.00  0.00     0.030 A 
ENDBRANCH  17  20
ENDBRANCH  15  16
ENDBRANCH   1  15
TORSDOF 3
ENDMDL
MODEL 5
REMARK VINA RESULT:      -8.0      2.611      7.700
REMARK  3 active torsions:
REMARK  status: ('A' for Active; 'I' for Inactive)
REMARK    1  A    between atoms: C_6  and  N_7 
REMARK       I    between atoms: N_7  and  C_8 
REMARK    2  A    between atoms: C_8  and  C_9 
REMARK    3  A    between atoms: C_9  and  C_10 
ROOT
HETATM    1  C   UNL     1     -41.814  57.832 -53.290  1.00  0.00     0.286 C 
HETATM    2  N   UNL     1     -42.618  57.348 -54.498  1.00  0.00    -0.056 N 
HETATM    3  H   UNL     1     -42.444  56.322 -54.569  1.00  0.00     0.278 HD
HETATM    4  H   UNL     1     -43.626  57.465 -54.336  1.00  0.00     0.278 HD
HETATM    5  C   UNL     1     -42.169  58.039 -55.744  1.00  0.00     0.209 C 
HETATM    6  C   UNL     1     -42.412  59.555 -55.570  1.00  0.00     0.115 C 
HETATM    7  N   UNL     1     -41.834  60.081 -54.333  1.00  0.00    -0.353 N 
HETATM    8  C   UNL     1     -41.865  59.366 -53.149  1.00  0.00     0.249 C 
HETATM    9  O   UNL     1     -41.845  59.941 -52.068  1.00  0.00    -0.271 OA
HETATM   10  C   UNL     1     -42.923  57.496 -56.950  1.00  0.00     0.035 C 
HETATM   11  C   UNL     1     -42.468  58.228 -58.213  1.00  0.00     0.002 C 
HETATM   12  C   UNL     1     -42.582  59.749 -58.079  1.00  0.00     0.002 C 
HETATM   13  C   UNL     1     -41.907  60.290 -56.813  1.00  0.00     0.027 C 
HETATM   14  H   UNL     1     -41.886  61.086 -54.178  1.00  0.00     0.163 HD
ENDROOT
BRANCH   1  15
HETATM   15  C   UNL     1     -42.254  57.091 -52.020  1.00  0.00     0.146 C 
BRANCH  15  16
HETATM   16  C   UNL     1     -42.152  55.603 -52.275  1.00  0.00     0.224 C 
HETATM   17  N   UNL     1     -40.871  55.138 -52.458  1.00  0.00    -0.327 N 
HETATM   18  H   UNL     1     -40.101  55.759 -52.241  1.00  0.00     0.169 HD
HETATM   19  O   UNL     1     -43.179  54.925 -52.222  1.00  0.00    -0.273 OA
BRANCH  17  20
HETATM   20  C   UNL     1     -40.517  53.809 -52.808  1.00  0.00     0.040 A 
HETATM   21  C   UNL     1     -40.543  53.419 -54.162  1.00  0.00    -0.035 A 
HETATM   22  C   UNL     1     -40.195  52.096 -54.503  1.00  0.00     0.015 A 
HETATM   23  C   UNL     1     -40.903  54.367 -55.273  1.00  0.00     0.050 C 
HETATM   24  C   UNL     1     -39.840  51.160 -53.527  1.00  0.00    -0.061 A 
HETATM   25  C   UNL     1     -39.444  49.760 -53.895  1.00  0.00     0.048 C 
HETATM   26  C   UNL     1     -39.830  51.554 -52.190  1.00  0.00     0.009 A 
HETATM   27  C   UNL     1     -40.169  52.861 -51.837  1.00  0.00     0.030 A 
ENDBRANCH  17  20
ENDBRANCH  15  16
ENDBRANCH   1  15
TORSDOF 3
ENDMDL
MODEL 6
REMARK VINA RESULT:      -7.9      4.002      5.227
REMARK  3 active torsions:
REMARK  status: ('A' for Active; 'I' for Inactive)
REMARK    1  A    between atoms: C_6  and  N_7 
REMARK       I    between atoms: N_7  and  C_8 
REMARK    2  A    between atoms: C_8  and  C_9 
REMARK    3  A    between atoms: C_9  and  C_10 
ROOT
HETATM    1  C   UNL     1     -41.356  54.397 -50.265  1.00  0.00     0.286 C 
HETATM    2  N   UNL     1     -40.826  54.543 -51.693  1.00  0.00    -0.056 N 
HETATM    3  H   UNL     1     -41.478  55.195 -52.179  1.00  0.00     0.278 HD
HETATM    4  H   UNL     1     -39.903  54.994 -51.695  1.00  0.00     0.278 HD
HETATM    5  C   UNL     1     -40.802  53.220 -52.387  1.00  0.00     0.209 C 
HETATM    6  C   UNL     1     -39.853  52.282 -51.607  1.00  0.00     0.115 C 
HETATM    7  N   UNL     1     -40.168  52.223 -50.178  1.00  0.00    -0.353 N 
HETATM    8  C   UNL     1     -40.562  53.343 -49.469  1.00  0.00     0.249 C 
HETATM    9  O   UNL     1     -40.360  53.425 -48.264  1.00  0.00    -0.271 OA
HETATM   10  C   UNL     1     -40.344  53.388 -53.829  1.00  0.00     0.035 C 
HETATM   11  C   UNL     1     -40.304  52.024 -54.518  1.00  0.00     0.002 C 
HETATM   12  C   UNL     1     -39.462  51.004 -53.745  1.00  0.00     0.002 C 
HETATM   13  C   UNL     1     -39.856  50.903 -52.266  1.00  0.00     0.027 C 
HETATM   14  H   UNL     1     -39.636  51.570 -49.606  1.00  0.00     0.163 HD
ENDROOT
BRANCH   1  15
HETATM   15  C   UNL     1     -41.413  55.764 -49.572  1.00  0.00     0.146 C 
BRANCH  15  16
HETATM   16  C   UNL     1     -41.769  56.810 -50.605  1.00  0.00     0.224 C 
HETATM   17  N   UNL     1     -43.116  56.945 -50.846  1.00  0.00    -0.327 N 
HETATM   18  H   UNL     1     -43.763  56.488 -50.215  1.00  0.00     0.169 HD
HETATM   19  O   UNL     1     -40.865  57.497 -51.083  1.00  0.00    -0.273 OA
BRANCH  17  20
HETATM   20  C   UNL     1     -43.699  57.782 -51.834  1.00  0.00     0.040 A 
HETATM   21  C   UNL     1     -43.921  57.272 -53.128  1.00  0.00    -0.035 A 
HETATM   22  C   UNL     1     -44.496  58.108 -54.107  1.00  0.00     0.015 A 
HETATM   23  C   UNL     1     -43.595  55.854 -53.510  1.00  0.00     0.050 C 
HETATM   24  C   UNL     1     -44.835  59.435 -53.825  1.00  0.00    -0.061 A 
HETATM   25  C   UNL     1     -45.472  60.316 -54.860  1.00  0.00     0.048 C 
HETATM   26  C   UNL     1     -44.599  59.932 -52.545  1.00  0.00     0.009 A 
HETATM   27  C   UNL     1     -44.034  59.115 -51.564  1.00  0.00     0.030 A 
ENDBRANCH  17  20
ENDBRANCH  15  16
ENDBRANCH   1  15
TORSDOF 3
ENDMDL
MODEL 7
REMARK VINA RESULT:      -7.9     14.212     15.343
REMARK  3 active torsions:
REMARK  status: ('A' for Active; 'I' for Inactive)
REMARK    1  A    between atoms: C_6  and  N_7 
REMARK       I    between atoms: N_7  and  C_8 
REMARK    2  A    between atoms: C_8  and  C_9 
REMARK    3  A    between atoms: C_9  and  C_10 
ROOT
HETATM    1  C   UNL     1     -36.416  41.118 -51.616  1.00  0.00     0.286 C 
HETATM    2  N   UNL     1     -35.933  39.675 -51.459  1.00  0.00    -0.056 N 
HETATM    3  H   UNL     1     -36.700  39.165 -50.970  1.00  0.00     0.278 HD
HETATM    4  H   UNL     1     -35.818  39.227 -52.376  1.00  0.00     0.278 HD
HETATM    5  C   UNL     1     -34.677  39.623 -50.652  1.00  0.00     0.209 C 
HETATM    6  C   UNL     1     -33.588  40.424 -51.399  1.00  0.00     0.115 C 
HETATM    7  N   UNL     1     -34.029  41.771 -51.764  1.00  0.00    -0.353 N 
HETATM    8  C   UNL     1     -35.316  42.026 -52.201  1.00  0.00     0.249 C 
HETATM    9  O   UNL     1     -35.552  42.976 -52.937  1.00  0.00    -0.271 OA
HETATM   10  C   UNL     1     -34.247  38.178 -50.438  1.00  0.00     0.035 C 
HETATM   11  C   UNL     1     -32.949  38.142 -49.630  1.00  0.00     0.002 C 
HETATM   12  C   UNL     1     -31.847  39.001 -50.257  1.00  0.00     0.002 C 
HETATM   13  C   UNL     1     -32.307  40.431 -50.564  1.00  0.00     0.027 C 
HETATM   14  H   UNL     1     -33.345  42.390 -52.195  1.00  0.00     0.163 HD
ENDROOT
BRANCH   1  15
HETATM   15  C   UNL     1     -37.726  41.162 -52.414  1.00  0.00     0.146 C 
BRANCH  15  16
HETATM   16  C   UNL     1     -37.453  40.646 -53.810  1.00  0.00     0.224 C 
HETATM   17  N   UNL     1     -37.624  41.575 -54.809  1.00  0.00    -0.327 N 
HETATM   18  H   UNL     1     -37.740  42.546 -54.546  1.00  0.00     0.169 HD
HETATM   19  O   UNL     1     -37.034  39.495 -53.941  1.00  0.00    -0.273 OA
BRANCH  17  20
HETATM   20  C   UNL     1     -37.528  41.316 -56.202  1.00  0.00     0.040 A 
HETATM   21  C   UNL     1     -36.402  41.773 -56.914  1.00  0.00    -0.035 A 
HETATM   22  C   UNL     1     -36.313  41.517 -58.297  1.00  0.00     0.015 A 
HETATM   23  C   UNL     1     -35.265  42.507 -56.254  1.00  0.00     0.050 C 
HETATM   24  C   UNL     1     -37.324  40.833 -58.979  1.00  0.00    -0.061 A 
HETATM   25  C   UNL     1     -37.215  40.538 -60.447  1.00  0.00     0.048 C 
HETATM   26  C   UNL     1     -38.439  40.397 -58.267  1.00  0.00     0.009 A 
HETATM   27  C   UNL     1     -38.540  40.640 -56.895  1.00  0.00     0.030 A 
ENDBRANCH  17  20
ENDBRANCH  15  16
ENDBRANCH   1  15
TORSDOF 3
ENDMDL
MODEL 8
REMARK VINA RESULT:      -7.9      2.217      3.059
REMARK  3 active torsions:
REMARK  status: ('A' for Active; 'I' for Inactive)
REMARK    1  A    between atoms: C_6  and  N_7 
REMARK       I    between atoms: N_7  and  C_8 
REMARK    2  A    between atoms: C_8  and  C_9 
REMARK    3  A    between atoms: C_9  and  C_10 
ROOT
HETATM    1  C   UNL     1     -41.769  55.225 -51.701  1.00  0.00     0.286 C 
HETATM    2  N   UNL     1     -40.937  54.559 -52.799  1.00  0.00    -0.056 N 
HETATM    3  H   UNL     1     -41.445  54.733 -53.692  1.00  0.00     0.278 HD
HETATM    4  H   UNL     1     -40.020  55.012 -52.888  1.00  0.00     0.278 HD
HETATM    5  C   UNL     1     -40.811  53.091 -52.550  1.00  0.00     0.209 C 
HETATM    6  C   UNL     1     -40.089  52.890 -51.200  1.00  0.00     0.115 C 
HETATM    7  N   UNL     1     -40.707  53.648 -50.110  1.00  0.00    -0.353 N 
HETATM    8  C   UNL     1     -41.205  54.924 -50.298  1.00  0.00     0.249 C 
HETATM    9  O   UNL     1     -41.265  55.717 -49.367  1.00  0.00    -0.271 OA
HETATM   10  C   UNL     1     -40.047  52.427 -53.687  1.00  0.00     0.035 C 
HETATM   11  C   UNL     1     -39.908  50.930 -53.407  1.00  0.00     0.002 C 
HETATM   12  C   UNL     1     -39.291  50.648 -52.034  1.00  0.00     0.002 C 
HETATM   13  C   UNL     1     -39.998  51.394 -50.896  1.00  0.00     0.027 C 
HETATM   14  H   UNL     1     -40.335  53.512 -49.172  1.00  0.00     0.163 HD
ENDROOT
BRANCH   1  15
HETATM   15  C   UNL     1     -41.925  56.725 -51.982  1.00  0.00     0.146 C 
BRANCH  15  16
HETATM   16  C   UNL     1     -41.667  56.965 -53.453  1.00  0.00     0.224 C 
HETATM   17  N   UNL     1     -42.776  56.849 -54.258  1.00  0.00    -0.327 N 
HETATM   18  H   UNL     1     -43.685  56.793 -53.814  1.00  0.00     0.169 HD
HETATM   19  O   UNL     1     -40.539  57.314 -53.804  1.00  0.00    -0.273 OA
BRANCH  17  20
HETATM   20  C   UNL     1     -42.780  56.929 -55.675  1.00  0.00     0.040 A 
HETATM   21  C   UNL     1     -42.894  55.748 -56.434  1.00  0.00    -0.035 A 
HETATM   22  C   UNL     1     -42.893  55.833 -57.841  1.00  0.00     0.015 A 
HETATM   23  C   UNL     1     -43.044  54.389 -55.806  1.00  0.00     0.050 C 
HETATM   24  C   UNL     1     -42.766  57.061 -58.498  1.00  0.00    -0.061 A 
HETATM   25  C   UNL     1     -42.792  57.151 -59.996  1.00  0.00     0.048 C 
HETATM   26  C   UNL     1     -42.642  58.221 -57.737  1.00  0.00     0.009 A 
HETATM   27  C   UNL     1     -42.645  58.153 -56.342  1.00  0.00     0.030 A 
ENDBRANCH  17  20
ENDBRANCH  15  16
ENDBRANCH   1  15
TORSDOF 3
ENDMDL
MODEL 9
REMARK VINA RESULT:      -7.8      1.837      2.660
REMARK  3 active torsions:
REMARK  status: ('A' for Active; 'I' for Inactive)
REMARK    1  A    between atoms: C_6  and  N_7 
REMARK       I    between atoms: N_7  and  C_8 
REMARK    2  A    between atoms: C_8  and  C_9 
REMARK    3  A    between atoms: C_9  and  C_10 
ROOT
HETATM    1  C   UNL     1     -41.306  54.334 -51.784  1.00  0.00     0.286 C 
HETATM    2  N   UNL     1     -40.727  53.763 -53.080  1.00  0.00    -0.056 N 
HETATM    3  H   UNL     1     -41.369  54.068 -53.843  1.00  0.00     0.278 HD
HETATM    4  H   UNL     1     -39.810  54.177 -53.284  1.00  0.00     0.278 HD
HETATM    5  C   UNL     1     -40.664  52.271 -53.020  1.00  0.00     0.209 C 
HETATM    6  C   UNL     1     -39.734  51.874 -51.852  1.00  0.00     0.115 C 
HETATM    7  N   UNL     1     -40.098  52.526 -50.593  1.00  0.00    -0.353 N 
HETATM    8  C   UNL     1     -40.529  53.839 -50.547  1.00  0.00     0.249 C 
HETATM    9  O   UNL     1     -40.370  54.517 -49.540  1.00  0.00    -0.271 OA
HETATM   10  C   UNL     1     -40.158  51.711 -54.341  1.00  0.00     0.035 C 
HETATM   11  C   UNL     1     -40.079  50.186 -54.256  1.00  0.00     0.002 C 
HETATM   12  C   UNL     1     -39.254  49.711 -53.056  1.00  0.00     0.002 C 
HETATM   13  C   UNL     1     -39.698  50.349 -51.735  1.00  0.00     0.027 C 
HETATM   14  H   UNL     1     -39.579  52.260 -49.758  1.00  0.00     0.163 HD
ENDROOT
BRANCH   1  15
HETATM   15  C   UNL     1     -41.402  55.863 -51.867  1.00  0.00     0.146 C 
BRANCH  15  16
HETATM   16  C   UNL     1     -41.491  56.257 -53.325  1.00  0.00     0.224 C 
HETATM   17  N   UNL     1     -42.745  56.140 -53.877  1.00  0.00    -0.327 N 
HETATM   18  H   UNL     1     -43.528  55.978 -53.255  1.00  0.00     0.169 HD
HETATM   19  O   UNL     1     -40.488  56.716 -53.873  1.00  0.00    -0.273 OA
BRANCH  17  20
HETATM   20  C   UNL     1     -43.069  56.351 -55.242  1.00  0.00     0.040 A 
HETATM   21  C   UNL     1     -43.793  57.502 -55.612  1.00  0.00    -0.035 A 
HETATM   22  C   UNL     1     -44.115  57.706 -56.969  1.00  0.00     0.015 A 
HETATM   23  C   UNL     1     -44.219  58.548 -54.617  1.00  0.00     0.050 C 
HETATM   24  C   UNL     1     -43.746  56.783 -57.953  1.00  0.00    -0.061 A 
HETATM   25  C   UNL     1     -44.067  57.014 -59.400  1.00  0.00     0.048 C 
HETATM   26  C   UNL     1     -43.041  55.643 -57.574  1.00  0.00     0.009 A 
HETATM   27  C   UNL     1     -42.711  55.429 -56.234  1.00  0.00     0.030 A 
ENDBRANCH  17  20
ENDBRANCH  15  16
ENDBRANCH   1  15
TORSDOF 3
ENDMDL
MODEL 10
REMARK VINA RESULT:      -7.7     13.946     15.581
REMARK  3 active torsions:
REMARK  status: ('A' for Active; 'I' for Inactive)
REMARK    1  A    between atoms: C_6  and  N_7 
REMARK       I    between atoms: N_7  and  C_8 
REMARK    2  A    between atoms: C_8  and  C_9 
REMARK    3  A    between atoms: C_9  and  C_10 
ROOT
HETATM    1  C   UNL     1     -35.215  41.329 -54.111  1.00  0.00     0.286 C 
HETATM    2  N   UNL     1     -33.714  41.171 -53.858  1.00  0.00    -0.056 N 
HETATM    3  H   UNL     1     -33.327  40.696 -54.702  1.00  0.00     0.278 HD
HETATM    4  H   UNL     1     -33.256  42.088 -53.800  1.00  0.00     0.278 HD
HETATM    5  C   UNL     1     -33.467  40.346 -52.637  1.00  0.00     0.209 C 
HETATM    6  C   UNL     1     -34.093  41.074 -51.427  1.00  0.00     0.115 C 
HETATM    7  N   UNL     1     -35.493  41.439 -51.650  1.00  0.00    -0.353 N 
HETATM    8  C   UNL     1     -35.944  41.894 -52.876  1.00  0.00     0.249 C 
HETATM    9  O   UNL     1     -36.921  42.628 -52.952  1.00  0.00    -0.271 OA
HETATM   10  C   UNL     1     -31.973  40.133 -52.438  1.00  0.00     0.035 C 
HETATM   11  C   UNL     1     -31.736  39.306 -51.174  1.00  0.00     0.002 C 
HETATM   12  C   UNL     1     -32.417  39.913 -49.943  1.00  0.00     0.002 C 
HETATM   13  C   UNL     1     -33.902  40.220 -50.173  1.00  0.00     0.027 C 
HETATM   14  H   UNL     1     -36.001  41.857 -50.872  1.00  0.00     0.163 HD
ENDROOT
BRANCH   1  15
HETATM   15  C   UNL     1     -35.461  42.145 -55.387  1.00  0.00     0.146 C 
BRANCH  15  16
HETATM   16  C   UNL     1     -35.691  41.184 -56.532  1.00  0.00     0.224 C 
HETATM   17  N   UNL     1     -36.989  41.125 -56.983  1.00  0.00    -0.327 N 
HETATM   18  H   UNL     1     -37.640  41.829 -56.656  1.00  0.00     0.169 HD
HETATM   19  O   UNL     1     -34.719  40.602 -57.016  1.00  0.00    -0.273 OA
BRANCH  17  20
HETATM   20  C   UNL     1     -37.479  40.236 -57.974  1.00  0.00     0.040 A 
HETATM   21  C   UNL     1     -37.617  40.687 -59.302  1.00  0.00    -0.035 A 
HETATM   22  C   UNL     1     -38.108  39.800 -60.281  1.00  0.00     0.015 A 
HETATM   23  C   UNL     1     -37.234  42.077 -59.731  1.00  0.00     0.050 C 
HETATM   24  C   UNL     1     -38.475  38.490 -59.961  1.00  0.00    -0.061 A 
HETATM   25  C   UNL     1     -38.973  37.539 -61.010  1.00  0.00     0.048 C 
HETATM   26  C   UNL     1     -38.347  38.059 -58.643  1.00  0.00     0.009 A 
HETATM   27  C   UNL     1     -37.858  38.924 -57.661  1.00  0.00     0.030 A 
ENDBRANCH  17  20
ENDBRANCH  15  16
ENDBRANCH   1  15
TORSDOF 3
ENDMDL
