MODEL 1
REMARK VINA RESULT:      -8.5      0.000      0.000
REMARK  2 active torsions:
REMARK  status: ('A' for Active; 'I' for Inactive)
REMARK    1  A    between atoms: C_11  and  N_12 
REMARK    2  A    between atoms: N_12  and  C_13 
ROOT
HETATM    1  C   UNL     1     -39.172  49.787 -53.935  1.00  0.00     0.010 C 
HETATM    2  C   UNL     1     -40.064  50.941 -53.482  1.00  0.00    -0.014 C 
HETATM    3  C   UNL     1     -39.439  51.667 -52.275  1.00  0.00     0.051 C 
HETATM    4  C   UNL     1     -40.179  52.940 -51.990  1.00  0.00    -0.008 A 
HETATM    5  C   UNL     1     -41.030  53.595 -52.863  1.00  0.00    -0.028 A 
HETATM    6  C   UNL     1     -41.618  54.780 -52.252  1.00  0.00     0.053 A 
HETATM    7  C   UNL     1     -41.098  54.963 -50.973  1.00  0.00     0.114 A 
HETATM    8  N   UNL     1     -41.383  55.956 -50.119  1.00  0.00    -0.234 NA
HETATM    9  C   UNL     1     -42.267  56.814 -50.616  1.00  0.00     0.236 A 
HETATM   10  N   UNL     1     -42.865  56.759 -51.812  1.00  0.00    -0.223 NA
HETATM   11  C   UNL     1     -42.578  55.745 -52.667  1.00  0.00     0.143 A 
HETATM   12  S   UNL     1     -40.001  53.746 -50.510  1.00  0.00    -0.073 SA
HETATM   13  C   UNL     1     -41.292  53.045 -54.238  1.00  0.00     0.041 C 
HETATM   14  C   UNL     1     -40.308  51.933 -54.635  1.00  0.00     0.009 C 
ENDROOT
BRANCH  11  15
HETATM   15  N   UNL     1     -43.213  55.681 -53.917  1.00  0.00    -0.340 N 
HETATM   16  H   UNL     1     -44.061  55.142 -53.915  1.00  0.00     0.167 HD
BRANCH  15  17
HETATM   17  C   UNL     1     -42.986  56.346 -55.138  1.00  0.00     0.036 A 
HETATM   18  C   UNL     1     -43.100  55.602 -56.327  1.00  0.00     0.069 A 
HETATM   19  C   UNL     1     -42.860  56.227 -57.535  1.00  0.00     0.107 A 
HETATM   20  C   UNL     1     -42.505  57.550 -57.606  1.00  0.00     0.105 A 
HETATM   21  O   UNL     1     -42.940  55.643 -58.761  1.00  0.00    -0.323 OA
HETATM   22  O   UNL     1     -42.318  57.972 -58.884  1.00  0.00    -0.323 OA
HETATM   23  C   UNL     1     -42.366  58.315 -56.472  1.00  0.00     0.042 A 
HETATM   24  C   UNL     1     -42.594  56.758 -59.612  1.00  0.00     0.352 A 
HETATM   25  C   UNL     1     -42.603  57.701 -55.235  1.00  0.00     0.032 A 
ENDBRANCH  15  17
ENDBRANCH  11  15
TORSDOF 2
ENDMDL
MODEL 2
REMARK VINA RESULT:      -8.4      1.817      2.715
REMARK  2 active torsions:
REMARK  status: ('A' for Active; 'I' for Inactive)
REMARK    1  A    between atoms: C_11  and  N_12 
REMARK    2  A    between atoms: N_12  and  C_13 
ROOT
HETATM    1  C   UNL     1     -39.734  51.040 -53.729  1.00  0.00     0.010 C 
HETATM    2  C   UNL     1     -40.626  52.244 -54.022  1.00  0.00    -0.014 C 
HETATM    3  C   UNL     1     -41.173  52.845 -52.713  1.00  0.00     0.051 C 
HETATM    4  C   UNL     1     -41.837  54.162 -52.980  1.00  0.00    -0.008 A 
HETATM    5  C   UNL     1     -41.673  54.938 -54.115  1.00  0.00    -0.028 A 
HETATM    6  C   UNL     1     -42.499  56.137 -54.071  1.00  0.00     0.053 A 
HETATM    7  C   UNL     1     -43.175  56.204 -52.856  1.00  0.00     0.114 A 
HETATM    8  N   UNL     1     -44.007  57.172 -52.445  1.00  0.00    -0.234 NA
HETATM    9  C   UNL     1     -44.154  58.132 -53.351  1.00  0.00     0.236 A 
HETATM   10  N   UNL     1     -43.589  58.194 -54.563  1.00  0.00    -0.223 NA
HETATM   11  C   UNL     1     -42.757  57.205 -54.975  1.00  0.00     0.143 A 
HETATM   12  S   UNL     1     -42.875  54.870 -51.842  1.00  0.00    -0.073 SA
HETATM   13  C   UNL     1     -40.766  54.488 -55.227  1.00  0.00     0.041 C 
HETATM   14  C   UNL     1     -39.860  53.314 -54.823  1.00  0.00     0.009 C 
ENDROOT
BRANCH  11  15
HETATM   15  N   UNL     1     -42.172  57.267 -56.249  1.00  0.00    -0.340 N 
HETATM   16  H   UNL     1     -41.179  57.422 -56.232  1.00  0.00     0.167 HD
BRANCH  15  17
HETATM   17  C   UNL     1     -42.666  57.000 -57.541  1.00  0.00     0.036 A 
HETATM   18  C   UNL     1     -43.361  55.793 -57.747  1.00  0.00     0.069 A 
HETATM   19  C   UNL     1     -43.835  55.500 -59.010  1.00  0.00     0.107 A 
HETATM   20  C   UNL     1     -43.639  56.348 -60.070  1.00  0.00     0.105 A 
HETATM   21  O   UNL     1     -44.527  54.382 -59.359  1.00  0.00    -0.323 OA
HETATM   22  O   UNL     1     -44.185  55.876 -61.223  1.00  0.00    -0.323 OA
HETATM   23  C   UNL     1     -42.954  57.531 -59.924  1.00  0.00     0.042 A 
HETATM   24  C   UNL     1     -44.746  54.629 -60.765  1.00  0.00     0.352 A 
HETATM   25  C   UNL     1     -42.462  57.848 -58.650  1.00  0.00     0.032 A 
ENDBRANCH  15  17
ENDBRANCH  11  15
TORSDOF 2
ENDMDL
MODEL 3
REMARK VINA RESULT:      -8.1      3.448      6.665
REMARK  2 active torsions:
REMARK  status: ('A' for Active; 'I' for Inactive)
REMARK    1  A    between atoms: C_11  and  N_12 
REMARK    2  A    between atoms: N_12  and  C_13 
ROOT
HETATM    1  C   UNL     1     -44.108  57.235 -58.788  1.00  0.00     0.010 C 
HETATM    2  C   UNL     1     -43.435  57.108 -57.424  1.00  0.00    -0.014 C 
HETATM    3  C   UNL     1     -44.407  57.517 -56.300  1.00  0.00     0.051 C 
HETATM    4  C   UNL     1     -43.837  57.158 -54.960  1.00  0.00    -0.008 A 
HETATM    5  C   UNL     1     -42.807  56.262 -54.730  1.00  0.00    -0.028 A 
HETATM    6  C   UNL     1     -42.471  56.181 -53.315  1.00  0.00     0.053 A 
HETATM    7  C   UNL     1     -43.337  56.981 -52.575  1.00  0.00     0.114 A 
HETATM    8  N   UNL     1     -43.350  57.142 -51.243  1.00  0.00    -0.234 NA
HETATM    9  C   UNL     1     -42.404  56.432 -50.638  1.00  0.00     0.236 A 
HETATM   10  N   UNL     1     -41.492  55.640 -51.215  1.00  0.00    -0.223 NA
HETATM   11  C   UNL     1     -41.479  55.492 -52.563  1.00  0.00     0.143 A 
HETATM   12  S   UNL     1     -44.461  57.827 -53.533  1.00  0.00    -0.073 SA
HETATM   13  C   UNL     1     -42.144  55.545 -55.874  1.00  0.00     0.041 C 
HETATM   14  C   UNL     1     -42.924  55.673 -57.193  1.00  0.00     0.009 C 
ENDROOT
BRANCH  11  15
HETATM   15  N   UNL     1     -40.517  54.668 -53.168  1.00  0.00    -0.340 N 
HETATM   16  H   UNL     1     -39.758  55.174 -53.590  1.00  0.00     0.167 HD
BRANCH  15  17
HETATM   17  C   UNL     1     -40.319  53.273 -53.171  1.00  0.00     0.036 A 
HETATM   18  C   UNL     1     -40.058  52.641 -51.941  1.00  0.00     0.069 A 
HETATM   19  C   UNL     1     -39.838  51.277 -51.922  1.00  0.00     0.107 A 
HETATM   20  C   UNL     1     -39.858  50.526 -53.069  1.00  0.00     0.105 A 
HETATM   21  O   UNL     1     -39.584  50.529 -50.814  1.00  0.00    -0.323 OA
HETATM   22  O   UNL     1     -39.621  49.209 -52.834  1.00  0.00    -0.323 OA
HETATM   23  C   UNL     1     -40.093  51.100 -54.296  1.00  0.00     0.042 A 
HETATM   24  C   UNL     1     -39.448  49.217 -51.402  1.00  0.00     0.352 A 
HETATM   25  C   UNL     1     -40.317  52.483 -54.340  1.00  0.00     0.032 A 
ENDBRANCH  15  17
ENDBRANCH  11  15
TORSDOF 2
ENDMDL
MODEL 4
REMARK VINA RESULT:      -8.0      1.545      2.488
REMARK  2 active torsions:
REMARK  status: ('A' for Active; 'I' for Inactive)
REMARK    1  A    between atoms: C_11  and  N_12 
REMARK    2  A    between atoms: N_12  and  C_13 
ROOT
HETATM    1  C   UNL     1     -39.152  51.271 -52.471  1.00  0.00     0.010 C 
HETATM    2  C   UNL     1     -40.311  52.215 -52.782  1.00  0.00    -0.014 C 
HETATM    3  C   UNL     1     -40.333  53.393 -51.788  1.00  0.00     0.051 C 
HETATM    4  C   UNL     1     -41.306  54.440 -52.240  1.00  0.00    -0.008 A 
HETATM    5  C   UNL     1     -41.829  54.565 -53.516  1.00  0.00    -0.028 A 
HETATM    6  C   UNL     1     -42.780  55.665 -53.601  1.00  0.00     0.053 A 
HETATM    7  C   UNL     1     -42.844  56.334 -52.382  1.00  0.00     0.114 A 
HETATM    8  N   UNL     1     -43.589  57.409 -52.087  1.00  0.00    -0.234 NA
HETATM    9  C   UNL     1     -44.320  57.817 -53.119  1.00  0.00     0.236 A 
HETATM   10  N   UNL     1     -44.379  57.266 -54.338  1.00  0.00    -0.223 NA
HETATM   11  C   UNL     1     -43.629  56.173 -54.624  1.00  0.00     0.143 A 
HETATM   12  S   UNL     1     -41.853  55.645 -51.181  1.00  0.00    -0.073 SA
HETATM   13  C   UNL     1     -41.438  53.602 -54.602  1.00  0.00     0.041 C 
HETATM   14  C   UNL     1     -40.223  52.737 -54.228  1.00  0.00     0.009 C 
ENDROOT
BRANCH  11  15
HETATM   15  N   UNL     1     -43.698  55.590 -55.899  1.00  0.00    -0.340 N 
HETATM   16  H   UNL     1     -44.222  54.733 -55.925  1.00  0.00     0.167 HD
BRANCH  15  17
HETATM   17  C   UNL     1     -43.313  56.040 -57.177  1.00  0.00     0.036 A 
HETATM   18  C   UNL     1     -42.851  57.364 -57.300  1.00  0.00     0.069 A 
HETATM   19  C   UNL     1     -42.490  57.835 -58.547  1.00  0.00     0.107 A 
HETATM   20  C   UNL     1     -42.579  57.052 -59.669  1.00  0.00     0.105 A 
HETATM   21  O   UNL     1     -42.019  59.082 -58.819  1.00  0.00    -0.323 OA
HETATM   22  O   UNL     1     -42.174  57.701 -60.792  1.00  0.00    -0.323 OA
HETATM   23  C   UNL     1     -43.039  55.758 -59.603  1.00  0.00     0.042 A 
HETATM   24  C   UNL     1     -41.821  58.989 -60.246  1.00  0.00     0.352 A 
HETATM   25  C   UNL     1     -43.413  55.259 -58.347  1.00  0.00     0.032 A 
ENDBRANCH  15  17
ENDBRANCH  11  15
TORSDOF 2
ENDMDL
MODEL 5
REMARK VINA RESULT:      -7.8     14.573     16.555
REMARK  2 active torsions:
REMARK  status: ('A' for Active; 'I' for Inactive)
REMARK    1  A    between atoms: C_11  and  N_12 
REMARK    2  A    between atoms: N_12  and  C_13 
ROOT
HETATM    1  C   UNL     1     -29.598  37.969 -55.879  1.00  0.00     0.010 C 
HETATM    2  C   UNL     1     -30.996  38.566 -55.737  1.00  0.00    -0.014 C 
HETATM    3  C   UNL     1     -31.313  38.860 -54.258  1.00  0.00     0.051 C 
HETATM    4  C   UNL     1     -32.571  39.668 -54.143  1.00  0.00    -0.008 A 
HETATM    5  C   UNL     1     -33.169  40.387 -55.164  1.00  0.00    -0.028 A 
HETATM    6  C   UNL     1     -34.403  41.022 -54.722  1.00  0.00     0.053 A 
HETATM    7  C   UNL     1     -34.601  40.784 -53.365  1.00  0.00     0.114 A 
HETATM    8  N   UNL     1     -35.613  41.228 -52.605  1.00  0.00    -0.234 NA
HETATM    9  C   UNL     1     -36.480  41.960 -53.295  1.00  0.00     0.236 A 
HETATM   10  N   UNL     1     -36.435  42.255 -54.600  1.00  0.00    -0.223 NA
HETATM   11  C   UNL     1     -35.413  41.794 -55.363  1.00  0.00     0.143 A 
HETATM   12  S   UNL     1     -33.394  39.806 -52.668  1.00  0.00    -0.073 SA
HETATM   13  C   UNL     1     -32.567  40.408 -56.542  1.00  0.00     0.041 C 
HETATM   14  C   UNL     1     -31.135  39.849 -56.579  1.00  0.00     0.009 C 
ENDROOT
BRANCH  11  15
HETATM   15  N   UNL     1     -35.370  42.095 -56.733  1.00  0.00    -0.340 N 
HETATM   16  H   UNL     1     -34.653  42.755 -56.981  1.00  0.00     0.167 HD
BRANCH  15  17
HETATM   17  C   UNL     1     -36.024  41.545 -57.853  1.00  0.00     0.036 A 
HETATM   18  C   UNL     1     -35.810  40.184 -58.141  1.00  0.00     0.069 A 
HETATM   19  C   UNL     1     -36.422  39.628 -59.247  1.00  0.00     0.107 A 
HETATM   20  C   UNL     1     -37.225  40.369 -60.077  1.00  0.00     0.105 A 
HETATM   21  O   UNL     1     -36.317  38.332 -59.646  1.00  0.00    -0.323 OA
HETATM   22  O   UNL     1     -37.732  39.636 -61.103  1.00  0.00    -0.323 OA
HETATM   23  C   UNL     1     -37.453  41.705 -59.847  1.00  0.00     0.042 A 
HETATM   24  C   UNL     1     -37.152  38.345 -60.824  1.00  0.00     0.352 A 
HETATM   25  C   UNL     1     -36.839  42.291 -58.730  1.00  0.00     0.032 A 
ENDBRANCH  15  17
ENDBRANCH  11  15
TORSDOF 2
ENDMDL
MODEL 6
REMARK VINA RESULT:      -7.8      2.140      2.519
REMARK  2 active torsions:
REMARK  status: ('A' for Active; 'I' for Inactive)
REMARK    1  A    between atoms: C_11  and  N_12 
REMARK    2  A    between atoms: N_12  and  C_13 
ROOT
HETATM    1  C   UNL     1     -40.038  50.922 -54.283  1.00  0.00     0.010 C 
HETATM    2  C   UNL     1     -40.660  52.301 -54.071  1.00  0.00    -0.014 C 
HETATM    3  C   UNL     1     -40.464  52.766 -52.615  1.00  0.00     0.051 C 
HETATM    4  C   UNL     1     -40.847  54.209 -52.471  1.00  0.00    -0.008 A 
HETATM    5  C   UNL     1     -40.983  55.119 -53.505  1.00  0.00    -0.028 A 
HETATM    6  C   UNL     1     -41.410  56.425 -53.019  1.00  0.00     0.053 A 
HETATM    7  C   UNL     1     -41.493  56.411 -51.630  1.00  0.00     0.114 A 
HETATM    8  N   UNL     1     -41.829  57.433 -50.830  1.00  0.00    -0.234 NA
HETATM    9  C   UNL     1     -42.102  58.540 -51.510  1.00  0.00     0.236 A 
HETATM   10  N   UNL     1     -42.085  58.699 -52.839  1.00  0.00    -0.223 NA
HETATM   11  C   UNL     1     -41.754  57.657 -53.642  1.00  0.00     0.143 A 
HETATM   12  S   UNL     1     -41.128  54.895 -50.947  1.00  0.00    -0.073 SA
HETATM   13  C   UNL     1     -40.745  54.702 -54.930  1.00  0.00     0.041 C 
HETATM   14  C   UNL     1     -40.059  53.331 -55.047  1.00  0.00     0.009 C 
ENDROOT
BRANCH  11  15
HETATM   15  N   UNL     1     -41.745  57.821 -55.036  1.00  0.00    -0.340 N 
HETATM   16  H   UNL     1     -40.824  57.915 -55.427  1.00  0.00     0.167 HD
BRANCH  15  17
HETATM   17  C   UNL     1     -42.753  57.725 -56.015  1.00  0.00     0.036 A 
HETATM   18  C   UNL     1     -43.949  58.436 -55.804  1.00  0.00     0.069 A 
HETATM   19  C   UNL     1     -44.961  58.340 -56.740  1.00  0.00     0.107 A 
HETATM   20  C   UNL     1     -44.834  57.563 -57.863  1.00  0.00     0.105 A 
HETATM   21  O   UNL     1     -46.163  58.972 -56.677  1.00  0.00    -0.323 OA
HETATM   22  O   UNL     1     -45.938  57.607 -58.654  1.00  0.00    -0.323 OA
HETATM   23  C   UNL     1     -43.692  56.838 -58.106  1.00  0.00     0.042 A 
HETATM   24  C   UNL     1     -46.778  58.502 -57.897  1.00  0.00     0.352 A 
HETATM   25  C   UNL     1     -42.653  56.919 -57.169  1.00  0.00     0.032 A 
ENDBRANCH  15  17
ENDBRANCH  11  15
TORSDOF 2
ENDMDL
MODEL 7
REMARK VINA RESULT:      -7.7      3.001      6.349
REMARK  2 active torsions:
REMARK  status: ('A' for Active; 'I' for Inactive)
REMARK    1  A    between atoms: C_11  and  N_12 
REMARK    2  A    between atoms: N_12  and  C_13 
ROOT
HETATM    1  C   UNL     1     -42.814  56.731 -60.325  1.00  0.00     0.010 C 
HETATM    2  C   UNL     1     -42.425  56.737 -58.848  1.00  0.00    -0.014 C 
HETATM    3  C   UNL     1     -42.555  58.155 -58.259  1.00  0.00     0.051 C 
HETATM    4  C   UNL     1     -42.417  58.116 -56.767  1.00  0.00    -0.008 A 
HETATM    5  C   UNL     1     -42.545  56.992 -55.970  1.00  0.00    -0.028 A 
HETATM    6  C   UNL     1     -42.308  57.299 -54.566  1.00  0.00     0.053 A 
HETATM    7  C   UNL     1     -42.087  58.664 -54.408  1.00  0.00     0.114 A 
HETATM    8  N   UNL     1     -41.857  59.320 -53.261  1.00  0.00    -0.234 NA
HETATM    9  C   UNL     1     -41.850  58.510 -52.208  1.00  0.00     0.236 A 
HETATM   10  N   UNL     1     -42.025  57.183 -52.206  1.00  0.00    -0.223 NA
HETATM   11  C   UNL     1     -42.247  56.527 -53.372  1.00  0.00     0.143 A 
HETATM   12  S   UNL     1     -42.112  59.526 -55.876  1.00  0.00    -0.073 SA
HETATM   13  C   UNL     1     -42.846  55.650 -56.578  1.00  0.00     0.041 C 
HETATM   14  C   UNL     1     -43.290  55.744 -58.047  1.00  0.00     0.009 C 
ENDROOT
BRANCH  11  15
HETATM   15  N   UNL     1     -42.421  55.134 -53.370  1.00  0.00    -0.340 N 
HETATM   16  H   UNL     1     -43.311  54.836 -53.732  1.00  0.00     0.167 HD
BRANCH  15  17
HETATM   17  C   UNL     1     -41.546  54.062 -53.110  1.00  0.00     0.036 A 
HETATM   18  C   UNL     1     -41.404  53.069 -54.097  1.00  0.00     0.069 A 
HETATM   19  C   UNL     1     -40.568  51.997 -53.855  1.00  0.00     0.107 A 
HETATM   20  C   UNL     1     -39.881  51.868 -52.675  1.00  0.00     0.105 A 
HETATM   21  O   UNL     1     -40.325  50.970 -54.714  1.00  0.00    -0.323 OA
HETATM   22  O   UNL     1     -39.114  50.747 -52.638  1.00  0.00    -0.323 OA
HETATM   23  C   UNL     1     -39.998  52.802 -51.674  1.00  0.00     0.042 A 
HETATM   24  C   UNL     1     -39.401  50.181 -53.933  1.00  0.00     0.352 A 
HETATM   25  C   UNL     1     -40.843  53.899 -51.897  1.00  0.00     0.032 A 
ENDBRANCH  15  17
ENDBRANCH  11  15
TORSDOF 2
ENDMDL
MODEL 8
REMARK VINA RESULT:      -7.6      3.778      5.694
REMARK  2 active torsions:
REMARK  status: ('A' for Active; 'I' for Inactive)
REMARK    1  A    between atoms: C_11  and  N_12 
REMARK    2  A    between atoms: N_12  and  C_13 
ROOT
HETATM    1  C   UNL     1     -39.942  53.914 -48.344  1.00  0.00     0.010 C 
HETATM    2  C   UNL     1     -40.519  54.503 -49.629  1.00  0.00    -0.014 C 
HETATM    3  C   UNL     1     -40.084  53.671 -50.851  1.00  0.00     0.051 C 
HETATM    4  C   UNL     1     -40.845  54.096 -52.071  1.00  0.00    -0.008 A 
HETATM    5  C   UNL     1     -42.021  54.826 -52.080  1.00  0.00    -0.028 A 
HETATM    6  C   UNL     1     -42.470  55.104 -53.438  1.00  0.00     0.053 A 
HETATM    7  C   UNL     1     -41.622  54.490 -54.354  1.00  0.00     0.114 A 
HETATM    8  N   UNL     1     -41.729  54.503 -55.691  1.00  0.00    -0.234 NA
HETATM    9  C   UNL     1     -42.780  55.201 -56.107  1.00  0.00     0.236 A 
HETATM   10  N   UNL     1     -43.667  55.859 -55.351  1.00  0.00    -0.223 NA
HETATM   11  C   UNL     1     -43.545  55.849 -54.000  1.00  0.00     0.143 A 
HETATM   12  S   UNL     1     -40.323  53.666 -53.625  1.00  0.00    -0.073 SA
HETATM   13  C   UNL     1     -42.655  55.275 -50.792  1.00  0.00     0.041 C 
HETATM   14  C   UNL     1     -42.056  54.583 -49.557  1.00  0.00     0.009 C 
ENDROOT
BRANCH  11  15
HETATM   15  N   UNL     1     -44.469  56.547 -53.207  1.00  0.00    -0.340 N 
HETATM   16  H   UNL     1     -45.332  56.052 -53.060  1.00  0.00     0.167 HD
BRANCH  15  17
HETATM   17  C   UNL     1     -44.376  57.730 -52.448  1.00  0.00     0.036 A 
HETATM   18  C   UNL     1     -45.251  57.885 -51.357  1.00  0.00     0.069 A 
HETATM   19  C   UNL     1     -45.194  59.047 -50.612  1.00  0.00     0.107 A 
HETATM   20  C   UNL     1     -44.315  60.055 -50.913  1.00  0.00     0.105 A 
HETATM   21  O   UNL     1     -45.965  59.335 -49.529  1.00  0.00    -0.323 OA
HETATM   22  O   UNL     1     -44.416  61.107 -50.059  1.00  0.00    -0.323 OA
HETATM   23  C   UNL     1     -43.451  59.958 -51.978  1.00  0.00     0.042 A 
HETATM   24  C   UNL     1     -45.465  60.644 -49.184  1.00  0.00     0.352 A 
HETATM   25  C   UNL     1     -43.493  58.788 -52.750  1.00  0.00     0.032 A 
ENDBRANCH  15  17
ENDBRANCH  11  15
TORSDOF 2
ENDMDL
MODEL 9
REMARK VINA RESULT:      -7.5      3.291      6.809
REMARK  2 active torsions:
REMARK  status: ('A' for Active; 'I' for Inactive)
REMARK    1  A    between atoms: C_11  and  N_12 
REMARK    2  A    between atoms: N_12  and  C_13 
ROOT
HETATM    1  C   UNL     1     -41.572  60.329 -50.236  1.00  0.00     0.010 C 
HETATM    2  C   UNL     1     -42.071  59.373 -51.317  1.00  0.00    -0.014 C 
HETATM    3  C   UNL     1     -41.783  59.943 -52.720  1.00  0.00     0.051 C 
HETATM    4  C   UNL     1     -42.043  58.904 -53.769  1.00  0.00    -0.008 A 
HETATM    5  C   UNL     1     -42.144  57.540 -53.553  1.00  0.00    -0.028 A 
HETATM    6  C   UNL     1     -42.444  56.822 -54.784  1.00  0.00     0.053 A 
HETATM    7  C   UNL     1     -42.476  57.709 -55.857  1.00  0.00     0.114 A 
HETATM    8  N   UNL     1     -42.698  57.413 -57.145  1.00  0.00    -0.234 NA
HETATM    9  C   UNL     1     -42.906  56.115 -57.338  1.00  0.00     0.236 A 
HETATM   10  N   UNL     1     -42.927  55.152 -56.409  1.00  0.00    -0.223 NA
HETATM   11  C   UNL     1     -42.711  55.462 -55.106  1.00  0.00     0.143 A 
HETATM   12  S   UNL     1     -42.210  59.328 -55.402  1.00  0.00    -0.073 SA
HETATM   13  C   UNL     1     -41.995  56.970 -52.170  1.00  0.00     0.041 C 
HETATM   14  C   UNL     1     -41.426  57.982 -51.162  1.00  0.00     0.009 C 
ENDROOT
BRANCH  11  15
HETATM   15  N   UNL     1     -42.742  54.453 -54.131  1.00  0.00    -0.340 N 
HETATM   16  H   UNL     1     -43.661  54.269 -53.767  1.00  0.00     0.167 HD
BRANCH  15  17
HETATM   17  C   UNL     1     -41.774  53.540 -53.670  1.00  0.00     0.036 A 
HETATM   18  C   UNL     1     -41.447  52.449 -54.497  1.00  0.00     0.069 A 
HETATM   19  C   UNL     1     -40.517  51.528 -54.057  1.00  0.00     0.107 A 
HETATM   20  C   UNL     1     -39.911  51.643 -52.832  1.00  0.00     0.105 A 
HETATM   21  O   UNL     1     -40.096  50.433 -54.745  1.00  0.00    -0.323 OA
HETATM   22  O   UNL     1     -39.028  50.638 -52.591  1.00  0.00    -0.323 OA
HETATM   23  C   UNL     1     -40.208  52.681 -51.981  1.00  0.00     0.042 A 
HETATM   24  C   UNL     1     -39.151  49.874 -53.808  1.00  0.00     0.352 A 
HETATM   25  C   UNL     1     -41.151  53.627 -52.407  1.00  0.00     0.032 A 
ENDBRANCH  15  17
ENDBRANCH  11  15
TORSDOF 2
ENDMDL
MODEL 10
REMARK VINA RESULT:      -7.4      4.208      6.174
REMARK  2 active torsions:
REMARK  status: ('A' for Active; 'I' for Inactive)
REMARK    1  A    between atoms: C_11  and  N_12 
REMARK    2  A    between atoms: N_12  and  C_13 
ROOT
HETATM    1  C   UNL     1     -40.039  52.367 -50.984  1.00  0.00     0.010 C 
HETATM    2  C   UNL     1     -40.743  53.560 -51.627  1.00  0.00    -0.014 C 
HETATM    3  C   UNL     1     -40.878  53.354 -53.148  1.00  0.00     0.051 C 
HETATM    4  C   UNL     1     -41.781  54.396 -53.738  1.00  0.00    -0.008 A 
HETATM    5  C   UNL     1     -42.675  55.186 -53.036  1.00  0.00    -0.028 A 
HETATM    6  C   UNL     1     -43.364  56.124 -53.912  1.00  0.00     0.053 A 
HETATM    7  C   UNL     1     -42.979  55.913 -55.232  1.00  0.00     0.114 A 
HETATM    8  N   UNL     1     -43.418  56.568 -56.318  1.00  0.00    -0.234 NA
HETATM    9  C   UNL     1     -44.310  57.505 -56.017  1.00  0.00     0.236 A 
HETATM   10  N   UNL     1     -44.759  57.835 -54.800  1.00  0.00    -0.223 NA
HETATM   11  C   UNL     1     -44.302  57.175 -53.707  1.00  0.00     0.143 A 
HETATM   12  S   UNL     1     -41.812  54.687 -55.408  1.00  0.00    -0.073 SA
HETATM   13  C   UNL     1     -42.812  55.051 -51.545  1.00  0.00     0.041 C 
HETATM   14  C   UNL     1     -42.128  53.789 -50.992  1.00  0.00     0.009 C 
ENDROOT
BRANCH  11  15
HETATM   15  N   UNL     1     -44.767  57.527 -52.430  1.00  0.00    -0.340 N 
HETATM   16  H   UNL     1     -45.307  56.807 -51.983  1.00  0.00     0.167 HD
BRANCH  15  17
HETATM   17  C   UNL     1     -44.501  58.622 -51.585  1.00  0.00     0.036 A 
HETATM   18  C   UNL     1     -45.577  59.183 -50.872  1.00  0.00     0.069 A 
HETATM   19  C   UNL     1     -45.345  60.272 -50.055  1.00  0.00     0.107 A 
HETATM   20  C   UNL     1     -44.097  60.826 -49.928  1.00  0.00     0.105 A 
HETATM   21  O   UNL     1     -46.278  60.912 -49.300  1.00  0.00    -0.323 OA
HETATM   22  O   UNL     1     -44.081  61.885 -49.076  1.00  0.00    -0.323 OA
HETATM   23  C   UNL     1     -43.017  60.325 -50.615  1.00  0.00     0.042 A 
HETATM   24  C   UNL     1     -45.468  61.935 -48.682  1.00  0.00     0.352 A 
HETATM   25  C   UNL     1     -43.230  59.220 -51.452  1.00  0.00     0.032 A 
ENDBRANCH  15  17
ENDBRANCH  11  15
TORSDOF 2
ENDMDL
