MODEL 1
REMARK VINA RESULT:      -7.5      0.000      0.000
REMARK  6 active torsions:
REMARK  status: ('A' for Active; 'I' for Inactive)
REMARK    1  A    between atoms: C_5  and  N_6 
REMARK    2  A    between atoms: N_6  and  C_7 
REMARK    3  A    between atoms: C_7  and  C_8 
REMARK    4  A    between atoms: N_10  and  C_12 
REMARK    5  A    between atoms: C_12  and  C_13 
REMARK    6  A    between atoms: C_14  and  O_15 
ROOT
HETATM    1  C   UNL     1     -42.784  57.139 -55.508  1.00  0.00     0.026 C 
HETATM    2  C   UNL     1     -41.996  55.839 -55.638  1.00  0.00     0.241 C 
HETATM    3  N   UNL     1     -42.141  55.199 -54.280  1.00  0.00    -0.067 N 
HETATM    4  H   UNL     1     -42.307  54.182 -54.399  1.00  0.00     0.280 HD
HETATM    5  C   UNL     1     -43.357  55.801 -53.605  1.00  0.00     0.235 C 
HETATM    6  C   UNL     1     -43.980  56.687 -54.675  1.00  0.00     0.035 C 
ENDROOT
BRANCH   1   7
HETATM    7  C   UNL     1     -43.182  57.784 -56.838  1.00  0.00     0.100 C 
BRANCH   7   8
HETATM    8  N   UNL     1     -44.513  57.344 -57.235  1.00  0.00    -0.279 NA
HETATM    9  H   UNL     1     -45.025  56.857 -56.491  1.00  0.00     0.129 HD
BRANCH   8  10
HETATM   10  C   UNL     1     -44.745  56.668 -58.440  1.00  0.00     0.080 A 
HETATM   11  N   UNL     1     -45.874  56.806 -59.157  1.00  0.00    -0.351 N 
HETATM   12  C   UNL     1     -46.102  56.169 -60.324  1.00  0.00     0.006 A 
HETATM   13  H   UNL     1     -46.590  57.439 -58.818  1.00  0.00     0.167 HD
HETATM   14  C   UNL     1     -47.370  56.443 -61.067  1.00  0.00     0.068 C 
HETATM   15  C   UNL     1     -45.144  55.283 -60.816  1.00  0.00     0.024 A 
HETATM   16  C   UNL     1     -43.975  55.079 -60.098  1.00  0.00     0.005 A 
HETATM   17  C   UNL     1     -43.775  55.773 -58.909  1.00  0.00     0.042 A 
ENDBRANCH   8  10
ENDBRANCH   7   8
ENDBRANCH   1   7
BRANCH   3  18
HETATM   18  C   UNL     1     -40.890  55.237 -53.431  1.00  0.00     0.276 C 
BRANCH  18  19
HETATM   19  C   UNL     1     -40.541  53.908 -52.824  1.00  0.00     0.002 A 
HETATM   20  C   UNL     1     -40.261  52.797 -53.632  1.00  0.00     0.091 A 
HETATM   21  C   UNL     1     -39.897  51.570 -53.070  1.00  0.00     0.044 A 
HETATM   22 BR   UNL     1     -39.520  50.078 -54.169  1.00  0.00    -0.048 Br
HETATM   23  C   UNL     1     -39.814  51.439 -51.685  1.00  0.00     0.022 A 
HETATM   24  C   UNL     1     -40.091  52.534 -50.867  1.00  0.00     0.002 A 
HETATM   25  C   UNL     1     -40.446  53.762 -51.432  1.00  0.00     0.012 A 
BRANCH  20  26
HETATM   26  O   UNL     1     -40.379  52.955 -54.993  1.00  0.00    -0.359 OA
HETATM   27  H   UNL     1     -39.502  53.273 -55.306  1.00  0.00     0.218 HD
ENDBRANCH  20  26
ENDBRANCH  18  19
ENDBRANCH   3  18
TORSDOF 6
ENDMDL
MODEL 2
REMARK VINA RESULT:      -7.3      1.346      1.785
REMARK  6 active torsions:
REMARK  status: ('A' for Active; 'I' for Inactive)
REMARK    1  A    between atoms: C_5  and  N_6 
REMARK    2  A    between atoms: N_6  and  C_7 
REMARK    3  A    between atoms: C_7  and  C_8 
REMARK    4  A    between atoms: N_10  and  C_12 
REMARK    5  A    between atoms: C_12  and  C_13 
REMARK    6  A    between atoms: C_14  and  O_15 
ROOT
HETATM    1  C   UNL     1     -43.571  56.986 -54.337  1.00  0.00     0.026 C 
HETATM    2  C   UNL     1     -43.141  55.525 -54.426  1.00  0.00     0.241 C 
HETATM    3  N   UNL     1     -42.573  55.239 -53.058  1.00  0.00    -0.067 N 
HETATM    4  H   UNL     1     -42.889  54.301 -52.748  1.00  0.00     0.280 HD
HETATM    5  C   UNL     1     -43.128  56.268 -52.095  1.00  0.00     0.235 C 
HETATM    6  C   UNL     1     -44.139  57.050 -52.922  1.00  0.00     0.035 C 
ENDROOT
BRANCH   1   7
HETATM    7  C   UNL     1     -44.570  57.428 -55.410  1.00  0.00     0.100 C 
BRANCH   7   8
HETATM    8  N   UNL     1     -43.881  58.141 -56.479  1.00  0.00    -0.279 NA
HETATM    9  H   UNL     1     -44.325  59.029 -56.734  1.00  0.00     0.129 HD
BRANCH   8  10
HETATM   10  C   UNL     1     -43.474  57.502 -57.657  1.00  0.00     0.080 A 
HETATM   11  N   UNL     1     -44.043  56.374 -58.117  1.00  0.00    -0.351 N 
HETATM   12  C   UNL     1     -43.665  55.756 -59.256  1.00  0.00     0.006 A 
HETATM   13  H   UNL     1     -44.811  55.969 -57.595  1.00  0.00     0.167 HD
HETATM   14  C   UNL     1     -44.407  54.538 -59.703  1.00  0.00     0.068 C 
HETATM   15  C   UNL     1     -42.604  56.277 -59.995  1.00  0.00     0.024 A 
HETATM   16  C   UNL     1     -41.961  57.422 -59.547  1.00  0.00     0.005 A 
HETATM   17  C   UNL     1     -42.397  58.035 -58.377  1.00  0.00     0.042 A 
ENDBRANCH   8  10
ENDBRANCH   7   8
ENDBRANCH   1   7
BRANCH   3  18
HETATM   18  C   UNL     1     -41.066  55.114 -53.019  1.00  0.00     0.276 C 
BRANCH  18  19
HETATM   19  C   UNL     1     -40.591  53.762 -52.566  1.00  0.00     0.002 A 
HETATM   20  C   UNL     1     -40.407  52.719 -53.485  1.00  0.00     0.091 A 
HETATM   21  C   UNL     1     -39.927  51.472 -53.071  1.00  0.00     0.044 A 
HETATM   22 BR   UNL     1     -39.679  50.072 -54.318  1.00  0.00    -0.048 Br
HETATM   23  C   UNL     1     -39.630  51.253 -51.728  1.00  0.00     0.022 A 
HETATM   24  C   UNL     1     -39.811  52.281 -50.802  1.00  0.00     0.002 A 
HETATM   25  C   UNL     1     -40.282  53.529 -51.218  1.00  0.00     0.012 A 
BRANCH  20  26
HETATM   26  O   UNL     1     -40.735  52.962 -54.798  1.00  0.00    -0.359 OA
HETATM   27  H   UNL     1     -40.692  52.091 -55.253  1.00  0.00     0.218 HD
ENDBRANCH  20  26
ENDBRANCH  18  19
ENDBRANCH   3  18
TORSDOF 6
ENDMDL
MODEL 3
REMARK VINA RESULT:      -7.1      3.772      6.610
REMARK  6 active torsions:
REMARK  status: ('A' for Active; 'I' for Inactive)
REMARK    1  A    between atoms: C_5  and  N_6 
REMARK    2  A    between atoms: N_6  and  C_7 
REMARK    3  A    between atoms: C_7  and  C_8 
REMARK    4  A    between atoms: N_10  and  C_12 
REMARK    5  A    between atoms: C_12  and  C_13 
REMARK    6  A    between atoms: C_14  and  O_15 
ROOT
HETATM    1  C   UNL     1     -42.691  56.101 -54.970  1.00  0.00     0.026 C 
HETATM    2  C   UNL     1     -43.688  55.569 -53.945  1.00  0.00     0.241 C 
HETATM    3  N   UNL     1     -44.698  56.683 -53.822  1.00  0.00    -0.067 N 
HETATM    4  H   UNL     1     -45.650  56.275 -53.784  1.00  0.00     0.280 HD
HETATM    5  C   UNL     1     -44.601  57.542 -55.066  1.00  0.00     0.235 C 
HETATM    6  C   UNL     1     -43.617  56.801 -55.960  1.00  0.00     0.035 C 
ENDROOT
BRANCH   1   7
HETATM    7  C   UNL     1     -41.808  55.032 -55.620  1.00  0.00     0.100 C 
BRANCH   7   8
HETATM    8  N   UNL     1     -40.579  54.857 -54.855  1.00  0.00    -0.279 NA
HETATM    9  H   UNL     1     -39.727  55.025 -55.400  1.00  0.00     0.129 HD
BRANCH   8  10
HETATM   10  C   UNL     1     -40.364  53.739 -54.040  1.00  0.00     0.080 A 
HETATM   11  N   UNL     1     -40.132  52.507 -54.526  1.00  0.00    -0.351 N 
HETATM   12  C   UNL     1     -39.913  51.426 -53.750  1.00  0.00     0.006 A 
HETATM   13  H   UNL     1     -40.099  52.380 -55.531  1.00  0.00     0.167 HD
HETATM   14  C   UNL     1     -39.607  50.114 -54.399  1.00  0.00     0.068 C 
HETATM   15  C   UNL     1     -39.961  51.560 -52.363  1.00  0.00     0.024 A 
HETATM   16  C   UNL     1     -40.228  52.803 -51.809  1.00  0.00     0.005 A 
HETATM   17  C   UNL     1     -40.429  53.894 -52.649  1.00  0.00     0.042 A 
ENDBRANCH   8  10
ENDBRANCH   7   8
ENDBRANCH   1   7
BRANCH   3  18
HETATM   18  C   UNL     1     -44.616  57.464 -52.531  1.00  0.00     0.276 C 
BRANCH  18  19
HETATM   19  C   UNL     1     -43.368  57.185 -51.742  1.00  0.00     0.002 A 
HETATM   20  C   UNL     1     -42.286  58.077 -51.764  1.00  0.00     0.091 A 
HETATM   21  C   UNL     1     -41.140  57.838 -51.000  1.00  0.00     0.044 A 
HETATM   22 BR   UNL     1     -39.687  59.048 -51.035  1.00  0.00    -0.048 Br
HETATM   23  C   UNL     1     -41.061  56.696 -50.205  1.00  0.00     0.022 A 
HETATM   24  C   UNL     1     -42.127  55.798 -50.174  1.00  0.00     0.002 A 
HETATM   25  C   UNL     1     -43.276  56.043 -50.932  1.00  0.00     0.012 A 
BRANCH  20  26
HETATM   26  O   UNL     1     -42.387  59.179 -52.579  1.00  0.00    -0.359 OA
HETATM   27  H   UNL     1     -42.425  59.957 -51.979  1.00  0.00     0.218 HD
ENDBRANCH  20  26
ENDBRANCH  18  19
ENDBRANCH   3  18
TORSDOF 6
ENDMDL
MODEL 4
REMARK VINA RESULT:      -6.9      5.955      8.796
REMARK  6 active torsions:
REMARK  status: ('A' for Active; 'I' for Inactive)
REMARK    1  A    between atoms: C_5  and  N_6 
REMARK    2  A    between atoms: N_6  and  C_7 
REMARK    3  A    between atoms: C_7  and  C_8 
REMARK    4  A    between atoms: N_10  and  C_12 
REMARK    5  A    between atoms: C_12  and  C_13 
REMARK    6  A    between atoms: C_14  and  O_15 
ROOT
HETATM    1  C   UNL     1     -42.628  55.660 -52.858  1.00  0.00     0.026 C 
HETATM    2  C   UNL     1     -42.361  57.097 -52.424  1.00  0.00     0.241 C 
HETATM    3  N   UNL     1     -43.451  57.372 -51.418  1.00  0.00    -0.067 N 
HETATM    4  H   UNL     1     -43.051  57.894 -50.617  1.00  0.00     0.280 HD
HETATM    5  C   UNL     1     -43.964  56.041 -50.907  1.00  0.00     0.235 C 
HETATM    6  C   UNL     1     -43.034  55.013 -51.537  1.00  0.00     0.035 C 
ENDROOT
BRANCH   1   7
HETATM    7  C   UNL     1     -41.444  54.963 -53.534  1.00  0.00     0.100 C 
BRANCH   7   8
HETATM    8  N   UNL     1     -40.706  54.165 -52.563  1.00  0.00    -0.279 NA
HETATM    9  H   UNL     1     -39.877  54.637 -52.186  1.00  0.00     0.129 HD
BRANCH   8  10
HETATM   10  C   UNL     1     -40.376  52.825 -52.800  1.00  0.00     0.080 A 
HETATM   11  N   UNL     1     -39.993  51.978 -51.828  1.00  0.00    -0.351 N 
HETATM   12  C   UNL     1     -39.683  50.683 -52.045  1.00  0.00     0.006 A 
HETATM   13  H   UNL     1     -39.950  52.319 -50.875  1.00  0.00     0.167 HD
HETATM   14  C   UNL     1     -39.325  49.816 -50.879  1.00  0.00     0.068 C 
HETATM   15  C   UNL     1     -39.720  50.180 -53.344  1.00  0.00     0.024 A 
HETATM   16  C   UNL     1     -40.078  51.020 -54.388  1.00  0.00     0.005 A 
HETATM   17  C   UNL     1     -40.407  52.343 -54.115  1.00  0.00     0.042 A 
ENDBRANCH   8  10
ENDBRANCH   7   8
ENDBRANCH   1   7
BRANCH   3  18
HETATM   18  C   UNL     1     -44.540  58.298 -51.911  1.00  0.00     0.276 C 
BRANCH  18  19
HETATM   19  C   UNL     1     -44.464  59.677 -51.318  1.00  0.00     0.002 A 
HETATM   20  C   UNL     1     -45.069  59.965 -50.086  1.00  0.00     0.091 A 
HETATM   21  C   UNL     1     -44.966  61.237 -49.514  1.00  0.00     0.044 A 
HETATM   22 BR   UNL     1     -45.784  61.616 -47.851  1.00  0.00    -0.048 Br
HETATM   23  C   UNL     1     -44.258  62.240 -50.173  1.00  0.00     0.022 A 
HETATM   24  C   UNL     1     -43.653  61.968 -51.400  1.00  0.00     0.002 A 
HETATM   25  C   UNL     1     -43.749  60.694 -51.967  1.00  0.00     0.012 A 
BRANCH  20  26
HETATM   26  O   UNL     1     -45.782  58.960 -49.476  1.00  0.00    -0.359 OA
HETATM   27  H   UNL     1     -45.181  58.183 -49.443  1.00  0.00     0.218 HD
ENDBRANCH  20  26
ENDBRANCH  18  19
ENDBRANCH   3  18
TORSDOF 6
ENDMDL
MODEL 5
REMARK VINA RESULT:      -6.8      3.345      6.046
REMARK  6 active torsions:
REMARK  status: ('A' for Active; 'I' for Inactive)
REMARK    1  A    between atoms: C_5  and  N_6 
REMARK    2  A    between atoms: N_6  and  C_7 
REMARK    3  A    between atoms: C_7  and  C_8 
REMARK    4  A    between atoms: N_10  and  C_12 
REMARK    5  A    between atoms: C_12  and  C_13 
REMARK    6  A    between atoms: C_14  and  O_15 
ROOT
HETATM    1  C   UNL     1     -42.724  57.485 -55.676  1.00  0.00     0.026 C 
HETATM    2  C   UNL     1     -41.657  56.595 -55.046  1.00  0.00     0.241 C 
HETATM    3  N   UNL     1     -41.998  55.217 -55.557  1.00  0.00    -0.067 N 
HETATM    4  H   UNL     1     -41.123  54.726 -55.819  1.00  0.00     0.280 HD
HETATM    5  C   UNL     1     -42.842  55.376 -56.805  1.00  0.00     0.235 C 
HETATM    6  C   UNL     1     -42.845  56.875 -57.070  1.00  0.00     0.035 C 
ENDROOT
BRANCH   1   7
HETATM    7  C   UNL     1     -42.385  58.978 -55.696  1.00  0.00     0.100 C 
BRANCH   7   8
HETATM    8  N   UNL     1     -41.397  59.286 -54.670  1.00  0.00    -0.279 NA
HETATM    9  H   UNL     1     -40.715  58.536 -54.517  1.00  0.00     0.129 HD
BRANCH   8  10
HETATM   10  C   UNL     1     -41.760  59.809 -53.422  1.00  0.00     0.080 A 
HETATM   11  N   UNL     1     -41.207  59.405 -52.265  1.00  0.00    -0.351 N 
HETATM   12  C   UNL     1     -41.542  59.910 -51.060  1.00  0.00     0.006 A 
HETATM   13  H   UNL     1     -40.484  58.696 -52.294  1.00  0.00     0.167 HD
HETATM   14  C   UNL     1     -40.819  59.427 -49.843  1.00  0.00     0.068 C 
HETATM   15  C   UNL     1     -42.541  60.879 -50.979  1.00  0.00     0.024 A 
HETATM   16  C   UNL     1     -43.167  61.308 -52.141  1.00  0.00     0.005 A 
HETATM   17  C   UNL     1     -42.775  60.773 -53.363  1.00  0.00     0.042 A 
ENDBRANCH   8  10
ENDBRANCH   7   8
ENDBRANCH   1   7
BRANCH   3  18
HETATM   18  C   UNL     1     -42.602  54.296 -54.522  1.00  0.00     0.276 C 
BRANCH  18  19
HETATM   19  C   UNL     1     -41.577  53.581 -53.688  1.00  0.00     0.002 A 
HETATM   20  C   UNL     1     -41.368  53.931 -52.347  1.00  0.00     0.091 A 
HETATM   21  C   UNL     1     -40.442  53.241 -51.558  1.00  0.00     0.044 A 
HETATM   22 BR   UNL     1     -40.169  53.720 -49.749  1.00  0.00    -0.048 Br
HETATM   23  C   UNL     1     -39.709  52.192 -52.107  1.00  0.00     0.022 A 
HETATM   24  C   UNL     1     -39.904  51.833 -53.440  1.00  0.00     0.002 A 
HETATM   25  C   UNL     1     -40.835  52.518 -54.225  1.00  0.00     0.012 A 
BRANCH  20  26
HETATM   26  O   UNL     1     -42.089  54.989 -51.846  1.00  0.00    -0.359 OA
HETATM   27  H   UNL     1     -42.716  54.604 -51.193  1.00  0.00     0.218 HD
ENDBRANCH  20  26
ENDBRANCH  18  19
ENDBRANCH   3  18
TORSDOF 6
ENDMDL
MODEL 6
REMARK VINA RESULT:      -6.8      3.430      8.068
REMARK  6 active torsions:
REMARK  status: ('A' for Active; 'I' for Inactive)
REMARK    1  A    between atoms: C_5  and  N_6 
REMARK    2  A    between atoms: N_6  and  C_7 
REMARK    3  A    between atoms: C_7  and  C_8 
REMARK    4  A    between atoms: N_10  and  C_12 
REMARK    5  A    between atoms: C_12  and  C_13 
REMARK    6  A    between atoms: C_14  and  O_15 
ROOT
HETATM    1  C   UNL     1     -43.187  55.489 -55.285  1.00  0.00     0.026 C 
HETATM    2  C   UNL     1     -42.010  56.386 -55.653  1.00  0.00     0.241 C 
HETATM    3  N   UNL     1     -42.664  57.577 -56.308  1.00  0.00    -0.067 N 
HETATM    4  H   UNL     1     -42.198  58.444 -55.981  1.00  0.00     0.280 HD
HETATM    5  C   UNL     1     -44.112  57.621 -55.863  1.00  0.00     0.235 C 
HETATM    6  C   UNL     1     -44.219  56.514 -54.824  1.00  0.00     0.035 C 
ENDROOT
BRANCH   1   7
HETATM    7  C   UNL     1     -42.877  54.425 -54.228  1.00  0.00     0.100 C 
BRANCH   7   8
HETATM    8  N   UNL     1     -41.465  54.467 -53.868  1.00  0.00    -0.279 NA
HETATM    9  H   UNL     1     -40.870  54.899 -54.583  1.00  0.00     0.129 HD
BRANCH   8  10
HETATM   10  C   UNL     1     -40.794  53.348 -53.359  1.00  0.00     0.080 A 
HETATM   11  N   UNL     1     -40.572  52.233 -54.077  1.00  0.00    -0.351 N 
HETATM   12  C   UNL     1     -39.918  51.154 -53.600  1.00  0.00     0.006 A 
HETATM   13  H   UNL     1     -40.894  52.202 -55.037  1.00  0.00     0.167 HD
HETATM   14  C   UNL     1     -39.676  49.990 -54.507  1.00  0.00     0.068 C 
HETATM   15  C   UNL     1     -39.470  51.156 -52.280  1.00  0.00     0.024 A 
HETATM   16  C   UNL     1     -39.702  52.269 -51.485  1.00  0.00     0.005 A 
HETATM   17  C   UNL     1     -40.364  53.366 -52.026  1.00  0.00     0.042 A 
ENDBRANCH   8  10
ENDBRANCH   7   8
ENDBRANCH   1   7
BRANCH   3  18
HETATM   18  C   UNL     1     -42.483  57.646 -57.808  1.00  0.00     0.276 C 
BRANCH  18  19
HETATM   19  C   UNL     1     -43.515  56.865 -58.570  1.00  0.00     0.002 A 
HETATM   20  C   UNL     1     -44.637  57.500 -59.121  1.00  0.00     0.091 A 
HETATM   21  C   UNL     1     -45.579  56.782 -59.865  1.00  0.00     0.044 A 
HETATM   22 BR   UNL     1     -47.088  57.648 -60.605  1.00  0.00    -0.048 Br
HETATM   23  C   UNL     1     -45.410  55.413 -60.062  1.00  0.00     0.022 A 
HETATM   24  C   UNL     1     -44.300  54.767 -59.519  1.00  0.00     0.002 A 
HETATM   25  C   UNL     1     -43.355  55.488 -58.783  1.00  0.00     0.012 A 
BRANCH  20  26
HETATM   26  O   UNL     1     -44.786  58.847 -58.884  1.00  0.00    -0.359 OA
HETATM   27  H   UNL     1     -43.946  59.267 -59.173  1.00  0.00     0.218 HD
ENDBRANCH  20  26
ENDBRANCH  18  19
ENDBRANCH   3  18
TORSDOF 6
ENDMDL
MODEL 7
REMARK VINA RESULT:      -6.8     15.317     17.742
REMARK  6 active torsions:
REMARK  status: ('A' for Active; 'I' for Inactive)
REMARK    1  A    between atoms: C_5  and  N_6 
REMARK    2  A    between atoms: N_6  and  C_7 
REMARK    3  A    between atoms: C_7  and  C_8 
REMARK    4  A    between atoms: N_10  and  C_12 
REMARK    5  A    between atoms: C_12  and  C_13 
REMARK    6  A    between atoms: C_14  and  O_15 
ROOT
HETATM    1  C   UNL     1     -34.094  40.759 -52.484  1.00  0.00     0.026 C 
HETATM    2  C   UNL     1     -34.535  39.313 -52.285  1.00  0.00     0.241 C 
HETATM    3  N   UNL     1     -33.247  38.533 -52.380  1.00  0.00    -0.067 N 
HETATM    4  H   UNL     1     -33.240  37.797 -51.649  1.00  0.00     0.280 HD
HETATM    5  C   UNL     1     -32.101  39.484 -52.105  1.00  0.00     0.235 C 
HETATM    6  C   UNL     1     -32.781  40.786 -51.705  1.00  0.00     0.035 C 
ENDROOT
BRANCH   1   7
HETATM    7  C   UNL     1     -35.101  41.809 -52.008  1.00  0.00     0.100 C 
BRANCH   7   8
HETATM    8  N   UNL     1     -35.332  42.798 -53.053  1.00  0.00    -0.279 NA
HETATM    9  H   UNL     1     -35.880  43.607 -52.740  1.00  0.00     0.129 HD
BRANCH   8  10
HETATM   10  C   UNL     1     -35.775  42.439 -54.332  1.00  0.00     0.080 A 
HETATM   11  N   UNL     1     -36.994  41.925 -54.573  1.00  0.00    -0.351 N 
HETATM   12  C   UNL     1     -37.433  41.586 -55.802  1.00  0.00     0.006 A 
HETATM   13  H   UNL     1     -37.631  41.802 -53.794  1.00  0.00     0.167 HD
HETATM   14  C   UNL     1     -38.831  41.078 -55.960  1.00  0.00     0.068 C 
HETATM   15  C   UNL     1     -36.581  41.732 -56.896  1.00  0.00     0.024 A 
HETATM   16  C   UNL     1     -35.301  42.228 -56.698  1.00  0.00     0.005 A 
HETATM   17  C   UNL     1     -34.898  42.582 -55.415  1.00  0.00     0.042 A 
ENDBRANCH   8  10
ENDBRANCH   7   8
ENDBRANCH   1   7
BRANCH   3  18
HETATM   18  C   UNL     1     -33.089  37.737 -53.656  1.00  0.00     0.276 C 
BRANCH  18  19
HETATM   19  C   UNL     1     -32.178  38.389 -54.657  1.00  0.00     0.002 A 
HETATM   20  C   UNL     1     -30.863  37.936 -54.836  1.00  0.00     0.091 A 
HETATM   21  C   UNL     1     -30.026  38.516 -55.795  1.00  0.00     0.044 A 
HETATM   22 BR   UNL     1     -28.255  37.897 -56.031  1.00  0.00    -0.048 Br
HETATM   23  C   UNL     1     -30.496  39.563 -56.584  1.00  0.00     0.022 A 
HETATM   24  C   UNL     1     -31.801  40.026 -56.416  1.00  0.00     0.002 A 
HETATM   25  C   UNL     1     -32.640  39.440 -55.464  1.00  0.00     0.012 A 
BRANCH  20  26
HETATM   26  O   UNL     1     -30.424  36.919 -54.022  1.00  0.00    -0.359 OA
HETATM   27  H   UNL     1     -29.508  37.162 -53.757  1.00  0.00     0.218 HD
ENDBRANCH  20  26
ENDBRANCH  18  19
ENDBRANCH   3  18
TORSDOF 6
ENDMDL
MODEL 8
REMARK VINA RESULT:      -6.8      2.214      2.581
REMARK  6 active torsions:
REMARK  status: ('A' for Active; 'I' for Inactive)
REMARK    1  A    between atoms: C_5  and  N_6 
REMARK    2  A    between atoms: N_6  and  C_7 
REMARK    3  A    between atoms: C_7  and  C_8 
REMARK    4  A    between atoms: N_10  and  C_12 
REMARK    5  A    between atoms: C_12  and  C_13 
REMARK    6  A    between atoms: C_14  and  O_15 
ROOT
HETATM    1  C   UNL     1     -42.349  56.933 -55.435  1.00  0.00     0.026 C 
HETATM    2  C   UNL     1     -43.570  56.618 -54.577  1.00  0.00     0.241 C 
HETATM    3  N   UNL     1     -42.974  56.101 -53.291  1.00  0.00    -0.067 N 
HETATM    4  H   UNL     1     -43.501  56.496 -52.490  1.00  0.00     0.280 HD
HETATM    5  C   UNL     1     -41.544  56.593 -53.205  1.00  0.00     0.235 C 
HETATM    6  C   UNL     1     -41.394  57.523 -54.401  1.00  0.00     0.035 C 
ENDROOT
BRANCH   1   7
HETATM    7  C   UNL     1     -42.619  57.873 -56.614  1.00  0.00     0.100 C 
BRANCH   7   8
HETATM    8  N   UNL     1     -42.389  57.180 -57.876  1.00  0.00    -0.279 NA
HETATM    9  H   UNL     1     -41.770  57.687 -58.517  1.00  0.00     0.129 HD
BRANCH   8  10
HETATM   10  C   UNL     1     -43.439  56.631 -58.624  1.00  0.00     0.080 A 
HETATM   11  N   UNL     1     -44.655  57.196 -58.711  1.00  0.00    -0.351 N 
HETATM   12  C   UNL     1     -45.669  56.681 -59.437  1.00  0.00     0.006 A 
HETATM   13  H   UNL     1     -44.822  58.068 -58.222  1.00  0.00     0.167 HD
HETATM   14  C   UNL     1     -46.964  57.426 -59.509  1.00  0.00     0.068 C 
HETATM   15  C   UNL     1     -45.481  55.478 -60.114  1.00  0.00     0.024 A 
HETATM   16  C   UNL     1     -44.253  54.836 -60.032  1.00  0.00     0.005 A 
HETATM   17  C   UNL     1     -43.231  55.415 -59.286  1.00  0.00     0.042 A 
ENDBRANCH   8  10
ENDBRANCH   7   8
ENDBRANCH   1   7
BRANCH   3  18
HETATM   18  C   UNL     1     -43.122  54.610 -53.086  1.00  0.00     0.276 C 
BRANCH  18  19
HETATM   19  C   UNL     1     -41.973  53.993 -52.340  1.00  0.00     0.002 A 
HETATM   20  C   UNL     1     -41.834  54.172 -50.957  1.00  0.00     0.091 A 
HETATM   21  C   UNL     1     -40.787  53.567 -50.254  1.00  0.00     0.044 A 
HETATM   22 BR   UNL     1     -40.609  53.812 -48.387  1.00  0.00    -0.048 Br
HETATM   23  C   UNL     1     -39.862  52.776 -50.932  1.00  0.00     0.022 A 
HETATM   24  C   UNL     1     -39.986  52.591 -52.308  1.00  0.00     0.002 A 
HETATM   25  C   UNL     1     -41.037  53.190 -53.008  1.00  0.00     0.012 A 
BRANCH  20  26
HETATM   26  O   UNL     1     -42.749  54.980 -50.324  1.00  0.00    -0.359 OA
HETATM   27  H   UNL     1     -42.995  55.673 -50.977  1.00  0.00     0.218 HD
ENDBRANCH  20  26
ENDBRANCH  18  19
ENDBRANCH   3  18
TORSDOF 6
ENDMDL
MODEL 9
REMARK VINA RESULT:      -6.6     15.137     16.302
REMARK  6 active torsions:
REMARK  status: ('A' for Active; 'I' for Inactive)
REMARK    1  A    between atoms: C_5  and  N_6 
REMARK    2  A    between atoms: N_6  and  C_7 
REMARK    3  A    between atoms: C_7  and  C_8 
REMARK    4  A    between atoms: N_10  and  C_12 
REMARK    5  A    between atoms: C_12  and  C_13 
REMARK    6  A    between atoms: C_14  and  O_15 
ROOT
HETATM    1  C   UNL     1     -37.178  41.834 -57.422  1.00  0.00     0.026 C 
HETATM    2  C   UNL     1     -35.844  41.300 -56.910  1.00  0.00     0.241 C 
HETATM    3  N   UNL     1     -36.099  41.056 -55.443  1.00  0.00    -0.067 N 
HETATM    4  H   UNL     1     -35.661  40.157 -55.167  1.00  0.00     0.280 HD
HETATM    5  C   UNL     1     -37.596  40.933 -55.242  1.00  0.00     0.235 C 
HETATM    6  C   UNL     1     -38.169  40.965 -56.652  1.00  0.00     0.035 C 
ENDROOT
BRANCH   1   7
HETATM    7  C   UNL     1     -37.359  41.758 -58.940  1.00  0.00     0.100 C 
BRANCH   7   8
HETATM    8  N   UNL     1     -36.733  40.551 -59.465  1.00  0.00    -0.279 NA
HETATM    9  H   UNL     1     -35.795  40.707 -59.848  1.00  0.00     0.129 HD
BRANCH   8  10
HETATM   10  C   UNL     1     -37.413  39.670 -60.315  1.00  0.00     0.080 A 
HETATM   11  N   UNL     1     -37.008  39.396 -61.568  1.00  0.00    -0.351 N 
HETATM   12  C   UNL     1     -37.650  38.542 -62.391  1.00  0.00     0.006 A 
HETATM   13  H   UNL     1     -36.165  39.839 -61.913  1.00  0.00     0.167 HD
HETATM   14  C   UNL     1     -37.077  38.268 -63.745  1.00  0.00     0.068 C 
HETATM   15  C   UNL     1     -38.820  37.922 -61.955  1.00  0.00     0.024 A 
HETATM   16  C   UNL     1     -39.298  38.194 -60.681  1.00  0.00     0.005 A 
HETATM   17  C   UNL     1     -38.593  39.068 -59.861  1.00  0.00     0.042 A 
ENDBRANCH   8  10
ENDBRANCH   7   8
ENDBRANCH   1   7
BRANCH   3  18
HETATM   18  C   UNL     1     -35.437  42.050 -54.517  1.00  0.00     0.276 C 
BRANCH  18  19
HETATM   19  C   UNL     1     -34.920  41.432 -53.249  1.00  0.00     0.002 A 
HETATM   20  C   UNL     1     -33.895  40.477 -53.279  1.00  0.00     0.091 A 
HETATM   21  C   UNL     1     -33.385  39.930 -52.097  1.00  0.00     0.044 A 
HETATM   22 BR   UNL     1     -32.000  38.644 -52.147  1.00  0.00    -0.048 Br
HETATM   23  C   UNL     1     -33.903  40.331 -50.867  1.00  0.00     0.022 A 
HETATM   24  C   UNL     1     -34.925  41.279 -50.821  1.00  0.00     0.002 A 
HETATM   25  C   UNL     1     -35.427  41.831 -52.003  1.00  0.00     0.012 A 
BRANCH  20  26
HETATM   26  O   UNL     1     -33.426  40.085 -54.510  1.00  0.00    -0.359 OA
HETATM   27  H   UNL     1     -34.107  39.478 -54.878  1.00  0.00     0.218 HD
ENDBRANCH  20  26
ENDBRANCH  18  19
ENDBRANCH   3  18
TORSDOF 6
ENDMDL
MODEL 10
REMARK VINA RESULT:      -6.6      5.097      7.736
REMARK  6 active torsions:
REMARK  status: ('A' for Active; 'I' for Inactive)
REMARK    1  A    between atoms: C_5  and  N_6 
REMARK    2  A    between atoms: N_6  and  C_7 
REMARK    3  A    between atoms: C_7  and  C_8 
REMARK    4  A    between atoms: N_10  and  C_12 
REMARK    5  A    between atoms: C_12  and  C_13 
REMARK    6  A    between atoms: C_14  and  O_15 
ROOT
HETATM    1  C   UNL     1     -43.455  57.959 -51.287  1.00  0.00     0.026 C 
HETATM    2  C   UNL     1     -42.760  57.349 -52.500  1.00  0.00     0.241 C 
HETATM    3  N   UNL     1     -42.593  55.898 -52.120  1.00  0.00    -0.067 N 
HETATM    4  H   UNL     1     -42.813  55.304 -52.941  1.00  0.00     0.280 HD
HETATM    5  C   UNL     1     -43.594  55.582 -51.027  1.00  0.00     0.235 C 
HETATM    6  C   UNL     1     -44.430  56.849 -50.904  1.00  0.00     0.035 C 
ENDROOT
BRANCH   1   7
HETATM    7  C   UNL     1     -44.142  59.302 -51.550  1.00  0.00     0.100 C 
BRANCH   7   8
HETATM    8  N   UNL     1     -43.381  60.387 -50.942  1.00  0.00    -0.279 NA
HETATM    9  H   UNL     1     -42.411  60.136 -50.722  1.00  0.00     0.129 HD
BRANCH   8  10
HETATM   10  C   UNL     1     -43.888  61.147 -49.881  1.00  0.00     0.080 A 
HETATM   11  N   UNL     1     -44.503  60.605 -48.815  1.00  0.00    -0.351 N 
HETATM   12  C   UNL     1     -44.985  61.327 -47.783  1.00  0.00     0.006 A 
HETATM   13  H   UNL     1     -44.596  59.597 -48.769  1.00  0.00     0.167 HD
HETATM   14  C   UNL     1     -45.600  60.614 -46.621  1.00  0.00     0.068 C 
HETATM   15  C   UNL     1     -44.885  62.717 -47.816  1.00  0.00     0.024 A 
HETATM   16  C   UNL     1     -44.288  63.329 -48.908  1.00  0.00     0.005 A 
HETATM   17  C   UNL     1     -43.788  62.542 -49.941  1.00  0.00     0.042 A 
ENDBRANCH   8  10
ENDBRANCH   7   8
ENDBRANCH   1   7
BRANCH   3  18
HETATM   18  C   UNL     1     -41.175  55.496 -51.785  1.00  0.00     0.276 C 
BRANCH  18  19
HETATM   19  C   UNL     1     -40.734  54.235 -52.473  1.00  0.00     0.002 A 
HETATM   20  C   UNL     1     -40.369  53.101 -51.734  1.00  0.00     0.091 A 
HETATM   21  C   UNL     1     -39.996  51.914 -52.372  1.00  0.00     0.044 A 
HETATM   22 BR   UNL     1     -39.507  50.389 -51.366  1.00  0.00    -0.048 Br
HETATM   23  C   UNL     1     -39.980  51.850 -53.764  1.00  0.00     0.022 A 
HETATM   24  C   UNL     1     -40.339  52.970 -54.513  1.00  0.00     0.002 A 
HETATM   25  C   UNL     1     -40.719  54.153 -53.873  1.00  0.00     0.012 A 
BRANCH  20  26
HETATM   26  O   UNL     1     -40.370  53.208 -50.363  1.00  0.00    -0.359 OA
HETATM   27  H   UNL     1     -40.974  53.954 -50.150  1.00  0.00     0.218 HD
ENDBRANCH  20  26
ENDBRANCH  18  19
ENDBRANCH   3  18
TORSDOF 6
ENDMDL
