MODEL 1
REMARK VINA RESULT:      -9.0      0.000      0.000
REMARK  8 active torsions:
REMARK  status: ('A' for Active; 'I' for Inactive)
REMARK    1  A    between atoms: C_3  and  N_4 
REMARK       I    between atoms: N_4  and  C_5 
REMARK    2  A    between atoms: C_5  and  C_6 
REMARK    3  A    between atoms: C_13  and  C_14 
REMARK       I    between atoms: C_14  and  N_15 
REMARK    4  A    between atoms: N_15  and  CA_16 
REMARK    5  A    between atoms: CA_16  and  C_17 
REMARK    6  A    between atoms: CA_16  and  C_27 
REMARK    7  A    between atoms: C_20  and  C_21 
REMARK    8  A    between atoms: C_27  and  O_28 
ROOT
HETATM    1  C   UNL     1     -43.400  56.556 -52.025  1.00  0.00     0.252 C 
HETATM    2  N   UNL     1     -42.253  55.830 -52.257  1.00  0.00    -0.346 N 
HETATM    3  O   UNL     1     -44.048  56.463 -50.988  1.00  0.00    -0.268 OA
HETATM    4  H   UNL     1     -41.883  55.782 -53.198  1.00  0.00     0.163 HD
ENDROOT
BRANCH   1   5
HETATM    5  C   UNL     1     -43.837  57.489 -53.092  1.00  0.00     0.034 A 
HETATM    6  C   UNL     1     -44.065  56.977 -54.377  1.00  0.00     0.047 A 
HETATM    7  C   UNL     1     -44.529  57.795 -55.422  1.00  0.00     0.042 A 
HETATM    8  C   UNL     1     -44.868  59.130 -55.134  1.00  0.00    -0.035 A 
HETATM    9  C   UNL     1     -45.572  60.059 -56.086  1.00  0.00     0.050 C 
HETATM   10  C   UNL     1     -44.609  59.640 -53.843  1.00  0.00     0.010 A 
HETATM   11  C   UNL     1     -44.095  58.832 -52.829  1.00  0.00     0.017 A 
BRANCH   7  12
HETATM   12  N   UNL     1     -44.653  57.150 -56.670  1.00  0.00    -0.321 N 
HETATM   13  C   UNL     1     -43.744  57.080 -57.711  1.00  0.00     0.279 C 
HETATM   14  O   UNL     1     -42.610  57.542 -57.700  1.00  0.00    -0.265 OA
HETATM   15  H   UNL     1     -45.424  56.496 -56.770  1.00  0.00     0.169 HD
BRANCH  13  16
HETATM   16  C   UNL     1     -44.250  56.322 -58.843  1.00  0.00     0.142 A 
HETATM   17  O   UNL     1     -45.516  56.569 -59.311  1.00  0.00    -0.317 OA
HETATM   18  C   UNL     1     -45.726  55.727 -60.356  1.00  0.00     0.143 A 
HETATM   19  C   UNL     1     -44.621  54.940 -60.574  1.00  0.00     0.027 A 
HETATM   20  C   UNL     1     -43.669  55.321 -59.598  1.00  0.00     0.045 A 
ENDBRANCH  13  16
ENDBRANCH   7  12
ENDBRANCH   1   5
BRANCH   2  21
HETATM   21  CA  UNL     1     -41.737  54.880 -51.268  1.00  0.00     0.141 C 
BRANCH  21  22
HETATM   22  C   UNL     1     -41.124  53.675 -51.963  1.00  0.00    -0.033 A 
HETATM   23  C   UNL     1     -40.289  52.777 -51.279  1.00  0.00     0.010 A 
HETATM   24  C   UNL     1     -39.777  51.649 -51.926  1.00  0.00     0.017 A 
HETATM   25  C   UNL     1     -40.085  51.394 -53.270  1.00  0.00     0.047 A 
HETATM   26  C   UNL     1     -40.914  52.293 -53.954  1.00  0.00     0.017 A 
HETATM   27  C   UNL     1     -41.426  53.422 -53.309  1.00  0.00     0.010 A 
BRANCH  25  28
HETATM   28  C   UNL     1     -39.573  50.156 -53.967  1.00  0.00     0.417 C 
HETATM   29  F   UNL     1     -38.455  50.378 -54.713  1.00  0.00    -0.166 F 
HETATM   30  F   UNL     1     -39.249  49.166 -53.092  1.00  0.00    -0.166 F 
HETATM   31  F   UNL     1     -40.488  49.616 -54.821  1.00  0.00    -0.166 F 
ENDBRANCH  25  28
ENDBRANCH  21  22
BRANCH  21  32
HETATM   32  C   UNL     1     -40.717  55.538 -50.303  1.00  0.00     0.194 C 
BRANCH  32  33
HETATM   33  O   UNL     1     -41.352  56.276 -49.257  1.00  0.00    -0.399 OA
HETATM   34  H   UNL     1     -42.196  56.629 -49.616  1.00  0.00     0.209 HD
ENDBRANCH  32  33
ENDBRANCH  21  32
ENDBRANCH   2  21
TORSDOF 8
ENDMDL
MODEL 2
REMARK VINA RESULT:      -8.4      3.602      5.998
REMARK  8 active torsions:
REMARK  status: ('A' for Active; 'I' for Inactive)
REMARK    1  A    between atoms: C_3  and  N_4 
REMARK       I    between atoms: N_4  and  C_5 
REMARK    2  A    between atoms: C_5  and  C_6 
REMARK    3  A    between atoms: C_13  and  C_14 
REMARK       I    between atoms: C_14  and  N_15 
REMARK    4  A    between atoms: N_15  and  CA_16 
REMARK    5  A    between atoms: CA_16  and  C_17 
REMARK    6  A    between atoms: CA_16  and  C_27 
REMARK    7  A    between atoms: C_20  and  C_21 
REMARK    8  A    between atoms: C_27  and  O_28 
ROOT
HETATM    1  C   UNL     1     -43.238  55.430 -50.996  1.00  0.00     0.252 C 
HETATM    2  N   UNL     1     -41.879  55.232 -50.887  1.00  0.00    -0.346 N 
HETATM    3  O   UNL     1     -44.062  54.690 -50.470  1.00  0.00    -0.268 OA
HETATM    4  H   UNL     1     -41.258  55.735 -51.508  1.00  0.00     0.163 HD
ENDROOT
BRANCH   1   5
HETATM    5  C   UNL     1     -43.690  56.605 -51.781  1.00  0.00     0.034 A 
HETATM    6  C   UNL     1     -43.956  57.801 -51.100  1.00  0.00     0.047 A 
HETATM    7  C   UNL     1     -44.340  58.966 -51.786  1.00  0.00     0.042 A 
HETATM    8  C   UNL     1     -44.352  58.948 -53.192  1.00  0.00    -0.035 A 
HETATM    9  C   UNL     1     -44.531  60.163 -54.064  1.00  0.00     0.050 C 
HETATM   10  C   UNL     1     -44.109  57.730 -53.864  1.00  0.00     0.010 A 
HETATM   11  C   UNL     1     -43.784  56.566 -53.169  1.00  0.00     0.017 A 
BRANCH   7  12
HETATM   12  N   UNL     1     -44.629  60.072 -50.960  1.00  0.00    -0.321 N 
HETATM   13  C   UNL     1     -45.490  60.153 -49.879  1.00  0.00     0.279 C 
HETATM   14  O   UNL     1     -46.130  59.223 -49.406  1.00  0.00    -0.265 OA
HETATM   15  H   UNL     1     -44.007  60.872 -51.034  1.00  0.00     0.169 HD
BRANCH  13  16
HETATM   16  C   UNL     1     -45.519  61.480 -49.287  1.00  0.00     0.142 A 
HETATM   17  O   UNL     1     -46.647  61.902 -48.629  1.00  0.00    -0.317 OA
HETATM   18  C   UNL     1     -46.403  63.163 -48.187  1.00  0.00     0.143 A 
HETATM   19  C   UNL     1     -45.139  63.566 -48.546  1.00  0.00     0.027 A 
HETATM   20  C   UNL     1     -44.569  62.484 -49.258  1.00  0.00     0.045 A 
ENDBRANCH  13  16
ENDBRANCH   7  12
ENDBRANCH   1   5
BRANCH   2  21
HETATM   21  CA  UNL     1     -41.329  54.102 -50.136  1.00  0.00     0.141 C 
BRANCH  21  22
HETATM   22  C   UNL     1     -40.789  53.047 -51.087  1.00  0.00    -0.033 A 
HETATM   23  C   UNL     1     -40.206  51.860 -50.616  1.00  0.00     0.010 A 
HETATM   24  C   UNL     1     -39.760  50.882 -51.510  1.00  0.00     0.017 A 
HETATM   25  C   UNL     1     -39.883  51.071 -52.894  1.00  0.00     0.047 A 
HETATM   26  C   UNL     1     -40.460  52.258 -53.365  1.00  0.00     0.017 A 
HETATM   27  C   UNL     1     -40.905  53.236 -52.472  1.00  0.00     0.010 A 
BRANCH  25  28
HETATM   28  C   UNL     1     -39.445  50.004 -53.869  1.00  0.00     0.417 C 
HETATM   29  F   UNL     1     -38.400  50.385 -54.656  1.00  0.00    -0.166 F 
HETATM   30  F   UNL     1     -39.045  48.864 -53.244  1.00  0.00    -0.166 F 
HETATM   31  F   UNL     1     -40.438  49.633 -54.725  1.00  0.00    -0.166 F 
ENDBRANCH  25  28
ENDBRANCH  21  22
BRANCH  21  32
HETATM   32  C   UNL     1     -40.239  54.546 -49.126  1.00  0.00     0.194 C 
BRANCH  32  33
HETATM   33  O   UNL     1     -40.715  54.564 -47.780  1.00  0.00    -0.399 OA
HETATM   34  H   UNL     1     -41.319  53.797 -47.671  1.00  0.00     0.209 HD
ENDBRANCH  32  33
ENDBRANCH  21  32
ENDBRANCH   2  21
TORSDOF 8
ENDMDL
MODEL 3
REMARK VINA RESULT:      -8.2      1.707      2.206
REMARK  8 active torsions:
REMARK  status: ('A' for Active; 'I' for Inactive)
REMARK    1  A    between atoms: C_3  and  N_4 
REMARK       I    between atoms: N_4  and  C_5 
REMARK    2  A    between atoms: C_5  and  C_6 
REMARK    3  A    between atoms: C_13  and  C_14 
REMARK       I    between atoms: C_14  and  N_15 
REMARK    4  A    between atoms: N_15  and  CA_16 
REMARK    5  A    between atoms: CA_16  and  C_17 
REMARK    6  A    between atoms: CA_16  and  C_27 
REMARK    7  A    between atoms: C_20  and  C_21 
REMARK    8  A    between atoms: C_27  and  O_28 
ROOT
HETATM    1  C   UNL     1     -42.344  56.413 -51.185  1.00  0.00     0.252 C 
HETATM    2  N   UNL     1     -41.169  55.703 -51.086  1.00  0.00    -0.346 N 
HETATM    3  O   UNL     1     -43.388  56.051 -50.651  1.00  0.00    -0.268 OA
HETATM    4  H   UNL     1     -40.406  55.927 -51.712  1.00  0.00     0.163 HD
ENDROOT
BRANCH   1   5
HETATM    5  C   UNL     1     -42.311  57.673 -51.967  1.00  0.00     0.034 A 
HETATM    6  C   UNL     1     -42.447  57.598 -53.360  1.00  0.00     0.047 A 
HETATM    7  C   UNL     1     -42.475  58.756 -54.158  1.00  0.00     0.042 A 
HETATM    8  C   UNL     1     -42.471  60.012 -53.526  1.00  0.00    -0.035 A 
HETATM    9  C   UNL     1     -42.711  61.323 -54.224  1.00  0.00     0.050 C 
HETATM   10  C   UNL     1     -42.307  60.073 -52.124  1.00  0.00     0.010 A 
HETATM   11  C   UNL     1     -42.224  58.917 -51.348  1.00  0.00     0.017 A 
BRANCH   7  12
HETATM   12  N   UNL     1     -42.556  58.517 -55.546  1.00  0.00    -0.321 N 
HETATM   13  C   UNL     1     -43.664  58.201 -56.313  1.00  0.00     0.279 C 
HETATM   14  O   UNL     1     -44.817  58.126 -55.906  1.00  0.00    -0.265 OA
HETATM   15  H   UNL     1     -41.749  58.781 -56.103  1.00  0.00     0.169 HD
BRANCH  13  16
HETATM   16  C   UNL     1     -43.337  58.022 -57.718  1.00  0.00     0.142 A 
HETATM   17  O   UNL     1     -44.326  58.140 -58.663  1.00  0.00    -0.317 OA
HETATM   18  C   UNL     1     -43.749  57.923 -59.873  1.00  0.00     0.143 A 
HETATM   19  C   UNL     1     -42.406  57.666 -59.731  1.00  0.00     0.027 A 
HETATM   20  C   UNL     1     -42.140  57.727 -58.342  1.00  0.00     0.045 A 
ENDBRANCH  13  16
ENDBRANCH   7  12
ENDBRANCH   1   5
BRANCH   2  21
HETATM   21  CA  UNL     1     -41.095  54.446 -50.338  1.00  0.00     0.141 C 
BRANCH  21  22
HETATM   22  C   UNL     1     -40.737  53.298 -51.266  1.00  0.00    -0.033 A 
HETATM   23  C   UNL     1     -40.944  53.380 -52.653  1.00  0.00     0.010 A 
HETATM   24  C   UNL     1     -40.562  52.330 -53.492  1.00  0.00     0.017 A 
HETATM   25  C   UNL     1     -39.968  51.174 -52.966  1.00  0.00     0.047 A 
HETATM   26  C   UNL     1     -39.765  51.090 -51.582  1.00  0.00     0.017 A 
HETATM   27  C   UNL     1     -40.148  52.138 -50.742  1.00  0.00     0.010 A 
BRANCH  25  28
HETATM   28  C   UNL     1     -39.510  50.052 -53.867  1.00  0.00     0.417 C 
HETATM   29  F   UNL     1     -38.481  50.402 -54.688  1.00  0.00    -0.166 F 
HETATM   30  F   UNL     1     -39.078  48.969 -53.167  1.00  0.00    -0.166 F 
HETATM   31  F   UNL     1     -40.500  49.597 -54.686  1.00  0.00    -0.166 F 
ENDBRANCH  25  28
ENDBRANCH  21  22
BRANCH  21  32
HETATM   32  C   UNL     1     -40.099  54.529 -49.152  1.00  0.00     0.194 C 
BRANCH  32  33
HETATM   33  O   UNL     1     -40.758  54.645 -47.891  1.00  0.00    -0.399 OA
HETATM   34  H   UNL     1     -41.394  53.899 -47.822  1.00  0.00     0.209 HD
ENDBRANCH  32  33
ENDBRANCH  21  32
ENDBRANCH   2  21
TORSDOF 8
ENDMDL
MODEL 4
REMARK VINA RESULT:      -8.0      2.357      2.938
REMARK  8 active torsions:
REMARK  status: ('A' for Active; 'I' for Inactive)
REMARK    1  A    between atoms: C_3  and  N_4 
REMARK       I    between atoms: N_4  and  C_5 
REMARK    2  A    between atoms: C_5  and  C_6 
REMARK    3  A    between atoms: C_13  and  C_14 
REMARK       I    between atoms: C_14  and  N_15 
REMARK    4  A    between atoms: N_15  and  CA_16 
REMARK    5  A    between atoms: CA_16  and  C_17 
REMARK    6  A    between atoms: CA_16  and  C_27 
REMARK    7  A    between atoms: C_20  and  C_21 
REMARK    8  A    between atoms: C_27  and  O_28 
ROOT
HETATM    1  C   UNL     1     -43.781  56.318 -50.782  1.00  0.00     0.252 C 
HETATM    2  N   UNL     1     -42.425  56.097 -50.684  1.00  0.00    -0.346 N 
HETATM    3  O   UNL     1     -44.615  55.561 -50.297  1.00  0.00    -0.268 OA
HETATM    4  H   UNL     1     -41.798  56.625 -51.276  1.00  0.00     0.163 HD
ENDROOT
BRANCH   1   5
HETATM    5  C   UNL     1     -44.218  57.538 -51.502  1.00  0.00     0.034 A 
HETATM    6  C   UNL     1     -43.766  57.738 -52.814  1.00  0.00     0.047 A 
HETATM    7  C   UNL     1     -44.181  58.847 -53.573  1.00  0.00     0.042 A 
HETATM    8  C   UNL     1     -45.151  59.710 -53.032  1.00  0.00    -0.035 A 
HETATM    9  C   UNL     1     -45.846  60.805 -53.796  1.00  0.00     0.050 C 
HETATM   10  C   UNL     1     -45.578  59.512 -51.700  1.00  0.00     0.010 A 
HETATM   11  C   UNL     1     -45.116  58.440 -50.937  1.00  0.00     0.017 A 
BRANCH   7  12
HETATM   12  N   UNL     1     -43.596  58.943 -54.852  1.00  0.00    -0.321 N 
HETATM   13  C   UNL     1     -42.310  59.321 -55.198  1.00  0.00     0.279 C 
HETATM   14  O   UNL     1     -41.411  59.597 -54.412  1.00  0.00    -0.265 OA
HETATM   15  H   UNL     1     -44.104  58.513 -55.620  1.00  0.00     0.169 HD
BRANCH  13  16
HETATM   16  C   UNL     1     -42.089  59.301 -56.634  1.00  0.00     0.142 A 
HETATM   17  O   UNL     1     -41.552  60.402 -57.252  1.00  0.00    -0.317 OA
HETATM   18  C   UNL     1     -41.461  60.113 -58.576  1.00  0.00     0.143 A 
HETATM   19  C   UNL     1     -41.929  58.846 -58.828  1.00  0.00     0.027 A 
HETATM   20  C   UNL     1     -42.337  58.322 -57.578  1.00  0.00     0.045 A 
ENDBRANCH  13  16
ENDBRANCH   7  12
ENDBRANCH   1   5
BRANCH   2  21
HETATM   21  CA  UNL     1     -41.890  54.921 -49.994  1.00  0.00     0.141 C 
BRANCH  21  22
HETATM   22  C   UNL     1     -41.358  53.915 -51.000  1.00  0.00    -0.033 A 
HETATM   23  C   UNL     1     -41.667  54.006 -52.367  1.00  0.00     0.010 A 
HETATM   24  C   UNL     1     -41.126  53.096 -53.281  1.00  0.00     0.017 A 
HETATM   25  C   UNL     1     -40.268  52.075 -52.850  1.00  0.00     0.047 A 
HETATM   26  C   UNL     1     -39.962  51.982 -51.485  1.00  0.00     0.017 A 
HETATM   27  C   UNL     1     -40.503  52.889 -50.571  1.00  0.00     0.010 A 
BRANCH  25  28
HETATM   28  C   UNL     1     -39.642  51.114 -53.833  1.00  0.00     0.417 C 
HETATM   29  F   UNL     1     -39.803  49.806 -53.488  1.00  0.00    -0.166 F 
HETATM   30  F   UNL     1     -40.165  51.239 -55.083  1.00  0.00    -0.166 F 
HETATM   31  F   UNL     1     -38.299  51.300 -53.969  1.00  0.00    -0.166 F 
ENDBRANCH  25  28
ENDBRANCH  21  22
BRANCH  21  32
HETATM   32  C   UNL     1     -40.798  55.297 -48.959  1.00  0.00     0.194 C 
BRANCH  32  33
HETATM   33  O   UNL     1     -40.985  54.641 -47.704  1.00  0.00    -0.399 OA
HETATM   34  H   UNL     1     -41.309  53.733 -47.892  1.00  0.00     0.209 HD
ENDBRANCH  32  33
ENDBRANCH  21  32
ENDBRANCH   2  21
TORSDOF 8
ENDMDL
MODEL 5
REMARK VINA RESULT:      -7.8      1.978      2.561
REMARK  8 active torsions:
REMARK  status: ('A' for Active; 'I' for Inactive)
REMARK    1  A    between atoms: C_3  and  N_4 
REMARK       I    between atoms: N_4  and  C_5 
REMARK    2  A    between atoms: C_5  and  C_6 
REMARK    3  A    between atoms: C_13  and  C_14 
REMARK       I    between atoms: C_14  and  N_15 
REMARK    4  A    between atoms: N_15  and  CA_16 
REMARK    5  A    between atoms: CA_16  and  C_17 
REMARK    6  A    between atoms: CA_16  and  C_27 
REMARK    7  A    between atoms: C_20  and  C_21 
REMARK    8  A    between atoms: C_27  and  O_28 
ROOT
HETATM    1  C   UNL     1     -43.148  56.616 -54.388  1.00  0.00     0.252 C 
HETATM    2  N   UNL     1     -41.995  56.410 -53.665  1.00  0.00    -0.346 N 
HETATM    3  O   UNL     1     -44.219  56.093 -54.097  1.00  0.00    -0.268 OA
HETATM    4  H   UNL     1     -41.108  56.686 -54.065  1.00  0.00     0.163 HD
ENDROOT
BRANCH   1   5
HETATM    5  C   UNL     1     -43.061  57.524 -55.558  1.00  0.00     0.034 A 
HETATM    6  C   UNL     1     -43.991  57.369 -56.595  1.00  0.00     0.047 A 
HETATM    7  C   UNL     1     -43.998  58.227 -57.709  1.00  0.00     0.042 A 
HETATM    8  C   UNL     1     -43.117  59.323 -57.722  1.00  0.00    -0.035 A 
HETATM    9  C   UNL     1     -43.152  60.440 -58.731  1.00  0.00     0.050 C 
HETATM   10  C   UNL     1     -42.167  59.452 -56.685  1.00  0.00     0.010 A 
HETATM   11  C   UNL     1     -42.134  58.561 -55.612  1.00  0.00     0.017 A 
BRANCH   7  12
HETATM   12  N   UNL     1     -44.954  57.909 -58.696  1.00  0.00    -0.321 N 
HETATM   13  C   UNL     1     -46.256  58.359 -58.827  1.00  0.00     0.279 C 
HETATM   14  O   UNL     1     -46.802  59.186 -58.106  1.00  0.00    -0.265 OA
HETATM   15  H   UNL     1     -44.612  57.434 -59.526  1.00  0.00     0.169 HD
BRANCH  13  16
HETATM   16  C   UNL     1     -46.930  57.790 -59.982  1.00  0.00     0.142 A 
HETATM   17  O   UNL     1     -47.627  58.613 -60.831  1.00  0.00    -0.317 OA
HETATM   18  C   UNL     1     -48.152  57.827 -61.807  1.00  0.00     0.143 A 
HETATM   19  C   UNL     1     -47.809  56.511 -61.606  1.00  0.00     0.027 A 
HETATM   20  C   UNL     1     -47.023  56.485 -60.429  1.00  0.00     0.045 A 
ENDBRANCH  13  16
ENDBRANCH   7  12
ENDBRANCH   1   5
BRANCH   2  21
HETATM   21  CA  UNL     1     -41.975  55.531 -52.493  1.00  0.00     0.141 C 
BRANCH  21  22
HETATM   22  C   UNL     1     -41.359  54.188 -52.850  1.00  0.00    -0.033 A 
HETATM   23  C   UNL     1     -40.562  53.478 -51.938  1.00  0.00     0.010 A 
HETATM   24  C   UNL     1     -40.047  52.222 -52.272  1.00  0.00     0.017 A 
HETATM   25  C   UNL     1     -40.314  51.650 -53.524  1.00  0.00     0.047 A 
HETATM   26  C   UNL     1     -41.106  52.360 -54.436  1.00  0.00     0.017 A 
HETATM   27  C   UNL     1     -41.620  53.616 -54.104  1.00  0.00     0.010 A 
BRANCH  25  28
HETATM   28  C   UNL     1     -39.800  50.275 -53.879  1.00  0.00     0.417 C 
HETATM   29  F   UNL     1     -39.663  49.453 -52.801  1.00  0.00    -0.166 F 
HETATM   30  F   UNL     1     -40.622  49.622 -54.745  1.00  0.00    -0.166 F 
HETATM   31  F   UNL     1     -38.576  50.309 -54.478  1.00  0.00    -0.166 F 
ENDBRANCH  25  28
ENDBRANCH  21  22
BRANCH  21  32
HETATM   32  C   UNL     1     -41.235  56.176 -51.292  1.00  0.00     0.194 C 
BRANCH  32  33
HETATM   33  O   UNL     1     -42.119  56.512 -50.222  1.00  0.00    -0.399 OA
HETATM   34  H   UNL     1     -43.033  56.506 -50.582  1.00  0.00     0.209 HD
ENDBRANCH  32  33
ENDBRANCH  21  32
ENDBRANCH   2  21
TORSDOF 8
ENDMDL
MODEL 6
REMARK VINA RESULT:      -7.6      5.343      9.031
REMARK  8 active torsions:
REMARK  status: ('A' for Active; 'I' for Inactive)
REMARK    1  A    between atoms: C_3  and  N_4 
REMARK       I    between atoms: N_4  and  C_5 
REMARK    2  A    between atoms: C_5  and  C_6 
REMARK    3  A    between atoms: C_13  and  C_14 
REMARK       I    between atoms: C_14  and  N_15 
REMARK    4  A    between atoms: N_15  and  CA_16 
REMARK    5  A    between atoms: CA_16  and  C_17 
REMARK    6  A    between atoms: CA_16  and  C_27 
REMARK    7  A    between atoms: C_20  and  C_21 
REMARK    8  A    between atoms: C_27  and  O_28 
ROOT
HETATM    1  C   UNL     1     -44.338  57.673 -56.939  1.00  0.00     0.252 C 
HETATM    2  N   UNL     1     -43.175  57.827 -57.660  1.00  0.00    -0.346 N 
HETATM    3  O   UNL     1     -45.451  57.822 -57.432  1.00  0.00    -0.268 OA
HETATM    4  H   UNL     1     -42.296  57.904 -57.165  1.00  0.00     0.163 HD
ENDROOT
BRANCH   1   5
HETATM    5  C   UNL     1     -44.204  57.300 -55.510  1.00  0.00     0.034 A 
HETATM    6  C   UNL     1     -43.358  56.235 -55.173  1.00  0.00     0.047 A 
HETATM    7  C   UNL     1     -43.145  55.861 -53.835  1.00  0.00     0.042 A 
HETATM    8  C   UNL     1     -43.717  56.644 -52.816  1.00  0.00    -0.035 A 
HETATM    9  C   UNL     1     -43.409  56.501 -51.350  1.00  0.00     0.050 C 
HETATM   10  C   UNL     1     -44.589  57.698 -53.169  1.00  0.00     0.010 A 
HETATM   11  C   UNL     1     -44.836  58.024 -54.502  1.00  0.00     0.017 A 
BRANCH   7  12
HETATM   12  N   UNL     1     -42.315  54.735 -53.659  1.00  0.00    -0.321 N 
HETATM   13  C   UNL     1     -40.967  54.592 -53.939  1.00  0.00     0.279 C 
HETATM   14  O   UNL     1     -40.227  55.475 -54.355  1.00  0.00    -0.265 OA
HETATM   15  H   UNL     1     -42.685  53.979 -53.089  1.00  0.00     0.169 HD
BRANCH  13  16
HETATM   16  C   UNL     1     -40.468  53.264 -53.623  1.00  0.00     0.142 A 
HETATM   17  O   UNL     1     -40.083  52.974 -52.338  1.00  0.00    -0.317 OA
HETATM   18  C   UNL     1     -39.662  51.683 -52.330  1.00  0.00     0.143 A 
HETATM   19  C   UNL     1     -39.765  51.131 -53.584  1.00  0.00     0.027 A 
HETATM   20  C   UNL     1     -40.283  52.149 -54.420  1.00  0.00     0.045 A 
ENDBRANCH  13  16
ENDBRANCH   7  12
ENDBRANCH   1   5
BRANCH   2  21
HETATM   21  CA  UNL     1     -43.197  58.194 -59.078  1.00  0.00     0.141 C 
BRANCH  21  22
HETATM   22  C   UNL     1     -42.421  59.482 -59.302  1.00  0.00    -0.033 A 
HETATM   23  C   UNL     1     -41.758  60.134 -58.251  1.00  0.00     0.010 A 
HETATM   24  C   UNL     1     -41.010  61.291 -58.491  1.00  0.00     0.017 A 
HETATM   25  C   UNL     1     -40.912  61.823 -59.784  1.00  0.00     0.047 A 
HETATM   26  C   UNL     1     -41.578  61.174 -60.833  1.00  0.00     0.017 A 
HETATM   27  C   UNL     1     -42.326  60.019 -60.594  1.00  0.00     0.010 A 
BRANCH  25  28
HETATM   28  C   UNL     1     -40.072  63.046 -60.064  1.00  0.00     0.417 C 
HETATM   29  F   UNL     1     -40.718  64.217 -59.806  1.00  0.00    -0.166 F 
HETATM   30  F   UNL     1     -38.934  63.075 -59.317  1.00  0.00    -0.166 F 
HETATM   31  F   UNL     1     -39.669  63.123 -61.363  1.00  0.00    -0.166 F 
ENDBRANCH  25  28
ENDBRANCH  21  22
BRANCH  21  32
HETATM   32  C   UNL     1     -42.656  57.058 -59.985  1.00  0.00     0.194 C 
BRANCH  32  33
HETATM   33  O   UNL     1     -41.230  56.981 -59.973  1.00  0.00    -0.399 OA
HETATM   34  H   UNL     1     -40.970  56.248 -60.573  1.00  0.00     0.209 HD
ENDBRANCH  32  33
ENDBRANCH  21  32
ENDBRANCH   2  21
TORSDOF 8
ENDMDL
MODEL 7
REMARK VINA RESULT:      -7.5      4.864      8.596
REMARK  8 active torsions:
REMARK  status: ('A' for Active; 'I' for Inactive)
REMARK    1  A    between atoms: C_3  and  N_4 
REMARK       I    between atoms: N_4  and  C_5 
REMARK    2  A    between atoms: C_5  and  C_6 
REMARK    3  A    between atoms: C_13  and  C_14 
REMARK       I    between atoms: C_14  and  N_15 
REMARK    4  A    between atoms: N_15  and  CA_16 
REMARK    5  A    between atoms: CA_16  and  C_17 
REMARK    6  A    between atoms: CA_16  and  C_27 
REMARK    7  A    between atoms: C_20  and  C_21 
REMARK    8  A    between atoms: C_27  and  O_28 
ROOT
HETATM    1  C   UNL     1     -44.452  57.140 -55.280  1.00  0.00     0.252 C 
HETATM    2  N   UNL     1     -43.671  56.875 -56.382  1.00  0.00    -0.346 N 
HETATM    3  O   UNL     1     -45.514  57.750 -55.348  1.00  0.00    -0.268 OA
HETATM    4  H   UNL     1     -42.718  56.564 -56.245  1.00  0.00     0.163 HD
ENDROOT
BRANCH   1   5
HETATM    5  C   UNL     1     -43.966  56.643 -53.969  1.00  0.00     0.034 A 
HETATM    6  C   UNL     1     -43.172  55.488 -53.946  1.00  0.00     0.047 A 
HETATM    7  C   UNL     1     -42.636  54.990 -52.745  1.00  0.00     0.042 A 
HETATM    8  C   UNL     1     -42.820  55.733 -51.565  1.00  0.00    -0.035 A 
HETATM    9  C   UNL     1     -42.134  55.446 -50.256  1.00  0.00     0.050 C 
HETATM   10  C   UNL     1     -43.644  56.879 -51.598  1.00  0.00     0.010 A 
HETATM   11  C   UNL     1     -44.217  57.332 -52.786  1.00  0.00     0.017 A 
BRANCH   7  12
HETATM   12  N   UNL     1     -41.908  53.789 -52.874  1.00  0.00    -0.321 N 
HETATM   13  C   UNL     1     -40.797  53.522 -53.655  1.00  0.00     0.279 C 
HETATM   14  O   UNL     1     -40.204  54.333 -54.354  1.00  0.00    -0.265 OA
HETATM   15  H   UNL     1     -42.091  53.069 -52.182  1.00  0.00     0.169 HD
BRANCH  13  16
HETATM   16  C   UNL     1     -40.336  52.150 -53.519  1.00  0.00     0.142 A 
HETATM   17  O   UNL     1     -40.491  51.277 -54.566  1.00  0.00    -0.317 OA
HETATM   18  C   UNL     1     -39.984  50.082 -54.168  1.00  0.00     0.143 A 
HETATM   19  C   UNL     1     -39.505  50.163 -52.882  1.00  0.00     0.027 A 
HETATM   20  C   UNL     1     -39.733  51.495 -52.461  1.00  0.00     0.045 A 
ENDBRANCH  13  16
ENDBRANCH   7  12
ENDBRANCH   1   5
BRANCH   2  21
HETATM   21  CA  UNL     1     -44.061  57.322 -57.721  1.00  0.00     0.141 C 
BRANCH  21  22
HETATM   22  C   UNL     1     -43.204  58.500 -58.155  1.00  0.00    -0.033 A 
HETATM   23  C   UNL     1     -43.095  58.873 -59.504  1.00  0.00     0.010 A 
HETATM   24  C   UNL     1     -42.339  59.989 -59.875  1.00  0.00     0.017 A 
HETATM   25  C   UNL     1     -41.674  60.755 -58.907  1.00  0.00     0.047 A 
HETATM   26  C   UNL     1     -41.779  60.380 -57.560  1.00  0.00     0.017 A 
HETATM   27  C   UNL     1     -42.533  59.264 -57.189  1.00  0.00     0.010 A 
BRANCH  25  28
HETATM   28  C   UNL     1     -40.891  61.988 -59.290  1.00  0.00     0.417 C 
HETATM   29  F   UNL     1     -40.553  62.027 -60.609  1.00  0.00    -0.166 F 
HETATM   30  F   UNL     1     -41.581  63.136 -59.047  1.00  0.00    -0.166 F 
HETATM   31  F   UNL     1     -39.720  62.103 -58.603  1.00  0.00    -0.166 F 
ENDBRANCH  25  28
ENDBRANCH  21  22
BRANCH  21  32
HETATM   32  C   UNL     1     -43.994  56.176 -58.763  1.00  0.00     0.194 C 
BRANCH  32  33
HETATM   33  O   UNL     1     -45.279  55.835 -59.285  1.00  0.00    -0.399 OA
HETATM   34  H   UNL     1     -45.860  56.619 -59.171  1.00  0.00     0.209 HD
ENDBRANCH  32  33
ENDBRANCH  21  32
ENDBRANCH   2  21
TORSDOF 8
ENDMDL
MODEL 8
REMARK VINA RESULT:      -7.5      7.584     10.217
REMARK  8 active torsions:
REMARK  status: ('A' for Active; 'I' for Inactive)
REMARK    1  A    between atoms: C_3  and  N_4 
REMARK       I    between atoms: N_4  and  C_5 
REMARK    2  A    between atoms: C_5  and  C_6 
REMARK    3  A    between atoms: C_13  and  C_14 
REMARK       I    between atoms: C_14  and  N_15 
REMARK    4  A    between atoms: N_15  and  CA_16 
REMARK    5  A    between atoms: CA_16  and  C_17 
REMARK    6  A    between atoms: CA_16  and  C_27 
REMARK    7  A    between atoms: C_20  and  C_21 
REMARK    8  A    between atoms: C_27  and  O_28 
ROOT
HETATM    1  C   UNL     1     -45.218  60.284 -49.817  1.00  0.00     0.252 C 
HETATM    2  N   UNL     1     -45.229  61.480 -49.135  1.00  0.00    -0.346 N 
HETATM    3  O   UNL     1     -46.034  59.392 -49.611  1.00  0.00    -0.268 OA
HETATM    4  H   UNL     1     -44.419  62.083 -49.189  1.00  0.00     0.163 HD
ENDROOT
BRANCH   1   5
HETATM    5  C   UNL     1     -44.166  60.101 -50.847  1.00  0.00     0.034 A 
HETATM    6  C   UNL     1     -43.613  58.825 -51.019  1.00  0.00     0.047 A 
HETATM    7  C   UNL     1     -42.650  58.570 -52.011  1.00  0.00     0.042 A 
HETATM    8  C   UNL     1     -42.318  59.598 -52.911  1.00  0.00    -0.035 A 
HETATM    9  C   UNL     1     -41.475  59.420 -54.144  1.00  0.00     0.050 C 
HETATM   10  C   UNL     1     -42.863  60.886 -52.710  1.00  0.00     0.010 A 
HETATM   11  C   UNL     1     -43.776  61.141 -51.687  1.00  0.00     0.017 A 
BRANCH   7  12
HETATM   12  N   UNL     1     -42.145  57.253 -52.022  1.00  0.00    -0.321 N 
HETATM   13  C   UNL     1     -42.651  56.130 -52.654  1.00  0.00     0.279 C 
HETATM   14  O   UNL     1     -43.633  56.103 -53.385  1.00  0.00    -0.265 OA
HETATM   15  H   UNL     1     -41.197  57.124 -51.681  1.00  0.00     0.169 HD
BRANCH  13  16
HETATM   16  C   UNL     1     -41.842  54.945 -52.419  1.00  0.00     0.142 A 
HETATM   17  O   UNL     1     -41.840  54.364 -51.176  1.00  0.00    -0.317 OA
HETATM   18  C   UNL     1     -41.007  53.293 -51.237  1.00  0.00     0.143 A 
HETATM   19  C   UNL     1     -40.469  53.169 -52.496  1.00  0.00     0.027 A 
HETATM   20  C   UNL     1     -41.005  54.235 -53.258  1.00  0.00     0.045 A 
ENDBRANCH  13  16
ENDBRANCH   7  12
ENDBRANCH   1   5
BRANCH   2  21
HETATM   21  CA  UNL     1     -46.225  61.759 -48.098  1.00  0.00     0.141 C 
BRANCH  21  22
HETATM   22  C   UNL     1     -45.540  62.087 -46.782  1.00  0.00    -0.033 A 
HETATM   23  C   UNL     1     -45.500  63.397 -46.279  1.00  0.00     0.010 A 
HETATM   24  C   UNL     1     -44.906  63.666 -45.042  1.00  0.00     0.017 A 
HETATM   25  C   UNL     1     -44.338  62.634 -44.283  1.00  0.00     0.047 A 
HETATM   26  C   UNL     1     -44.374  61.327 -44.786  1.00  0.00     0.017 A 
HETATM   27  C   UNL     1     -44.965  61.057 -46.023  1.00  0.00     0.010 A 
BRANCH  25  28
HETATM   28  C   UNL     1     -43.733  62.906 -42.926  1.00  0.00     0.417 C 
HETATM   29  F   UNL     1     -42.729  62.045 -42.599  1.00  0.00    -0.166 F 
HETATM   30  F   UNL     1     -43.199  64.154 -42.837  1.00  0.00    -0.166 F 
HETATM   31  F   UNL     1     -44.643  62.815 -41.915  1.00  0.00    -0.166 F 
ENDBRANCH  25  28
ENDBRANCH  21  22
BRANCH  21  32
HETATM   32  C   UNL     1     -47.198  62.894 -48.512  1.00  0.00     0.194 C 
BRANCH  32  33
HETATM   33  O   UNL     1     -48.479  62.768 -47.895  1.00  0.00    -0.399 OA
HETATM   34  H   UNL     1     -48.332  62.675 -46.928  1.00  0.00     0.209 HD
ENDBRANCH  32  33
ENDBRANCH  21  32
ENDBRANCH   2  21
TORSDOF 8
ENDMDL
MODEL 9
REMARK VINA RESULT:      -7.5      3.042      4.259
REMARK  8 active torsions:
REMARK  status: ('A' for Active; 'I' for Inactive)
REMARK    1  A    between atoms: C_3  and  N_4 
REMARK       I    between atoms: N_4  and  C_5 
REMARK    2  A    between atoms: C_5  and  C_6 
REMARK    3  A    between atoms: C_13  and  C_14 
REMARK       I    between atoms: C_14  and  N_15 
REMARK    4  A    between atoms: N_15  and  CA_16 
REMARK    5  A    between atoms: CA_16  and  C_17 
REMARK    6  A    between atoms: CA_16  and  C_27 
REMARK    7  A    between atoms: C_20  and  C_21 
REMARK    8  A    between atoms: C_27  and  O_28 
ROOT
HETATM    1  C   UNL     1     -42.648  56.503 -54.338  1.00  0.00     0.252 C 
HETATM    2  N   UNL     1     -41.857  55.491 -53.842  1.00  0.00    -0.346 N 
HETATM    3  O   UNL     1     -43.298  57.254 -53.618  1.00  0.00    -0.268 OA
HETATM    4  H   UNL     1     -41.519  54.777 -54.474  1.00  0.00     0.163 HD
ENDROOT
BRANCH   1   5
HETATM    5  C   UNL     1     -42.684  56.675 -55.811  1.00  0.00     0.034 A 
HETATM    6  C   UNL     1     -42.245  57.890 -56.353  1.00  0.00     0.047 A 
HETATM    7  C   UNL     1     -42.204  58.102 -57.743  1.00  0.00     0.042 A 
HETATM    8  C   UNL     1     -42.513  57.030 -58.598  1.00  0.00    -0.035 A 
HETATM    9  C   UNL     1     -42.310  57.037 -60.090  1.00  0.00     0.050 C 
HETATM   10  C   UNL     1     -42.980  55.819 -58.039  1.00  0.00     0.010 A 
HETATM   11  C   UNL     1     -43.069  55.640 -56.659  1.00  0.00     0.017 A 
BRANCH   7  12
HETATM   12  N   UNL     1     -41.795  59.394 -58.133  1.00  0.00    -0.321 N 
HETATM   13  C   UNL     1     -42.570  60.503 -58.427  1.00  0.00     0.279 C 
HETATM   14  O   UNL     1     -43.790  60.565 -58.341  1.00  0.00    -0.265 OA
HETATM   15  H   UNL     1     -40.811  59.616 -58.017  1.00  0.00     0.169 HD
BRANCH  13  16
HETATM   16  C   UNL     1     -41.772  61.659 -58.801  1.00  0.00     0.142 A 
HETATM   17  O   UNL     1     -42.292  62.589 -59.666  1.00  0.00    -0.317 OA
HETATM   18  C   UNL     1     -41.343  63.545 -59.842  1.00  0.00     0.143 A 
HETATM   19  C   UNL     1     -40.219  63.252 -59.108  1.00  0.00     0.027 A 
HETATM   20  C   UNL     1     -40.492  62.035 -58.438  1.00  0.00     0.045 A 
ENDBRANCH  13  16
ENDBRANCH   7  12
ENDBRANCH   1   5
BRANCH   2  21
HETATM   21  CA  UNL     1     -41.753  55.238 -52.403  1.00  0.00     0.141 C 
BRANCH  21  22
HETATM   22  C   UNL     1     -41.124  53.877 -52.150  1.00  0.00    -0.033 A 
HETATM   23  C   UNL     1     -40.939  53.383 -50.849  1.00  0.00     0.010 A 
HETATM   24  C   UNL     1     -40.404  52.108 -50.642  1.00  0.00     0.017 A 
HETATM   25  C   UNL     1     -40.039  51.301 -51.730  1.00  0.00     0.047 A 
HETATM   26  C   UNL     1     -40.220  51.797 -53.028  1.00  0.00     0.017 A 
HETATM   27  C   UNL     1     -40.753  53.071 -53.236  1.00  0.00     0.010 A 
BRANCH  25  28
HETATM   28  C   UNL     1     -39.501  49.906 -51.520  1.00  0.00     0.417 C 
HETATM   29  F   UNL     1     -38.338  49.875 -50.811  1.00  0.00    -0.166 F 
HETATM   30  F   UNL     1     -40.373  49.110 -50.844  1.00  0.00    -0.166 F 
HETATM   31  F   UNL     1     -39.238  49.261 -52.692  1.00  0.00    -0.166 F 
ENDBRANCH  25  28
ENDBRANCH  21  22
BRANCH  21  32
HETATM   32  C   UNL     1     -40.967  56.355 -51.668  1.00  0.00     0.194 C 
BRANCH  32  33
HETATM   33  O   UNL     1     -41.819  57.215 -50.910  1.00  0.00    -0.399 OA
HETATM   34  H   UNL     1     -42.526  56.657 -50.517  1.00  0.00     0.209 HD
ENDBRANCH  32  33
ENDBRANCH  21  32
ENDBRANCH   2  21
TORSDOF 8
ENDMDL
MODEL 10
REMARK VINA RESULT:      -7.2      2.949      4.949
REMARK  8 active torsions:
REMARK  status: ('A' for Active; 'I' for Inactive)
REMARK    1  A    between atoms: C_3  and  N_4 
REMARK       I    between atoms: N_4  and  C_5 
REMARK    2  A    between atoms: C_5  and  C_6 
REMARK    3  A    between atoms: C_13  and  C_14 
REMARK       I    between atoms: C_14  and  N_15 
REMARK    4  A    between atoms: N_15  and  CA_16 
REMARK    5  A    between atoms: CA_16  and  C_17 
REMARK    6  A    between atoms: CA_16  and  C_27 
REMARK    7  A    between atoms: C_20  and  C_21 
REMARK    8  A    between atoms: C_27  and  O_28 
ROOT
HETATM    1  C   UNL     1     -43.470  56.068 -51.879  1.00  0.00     0.252 C 
HETATM    2  N   UNL     1     -42.179  55.610 -52.017  1.00  0.00    -0.346 N 
HETATM    3  O   UNL     1     -44.202  55.725 -50.957  1.00  0.00    -0.268 OA
HETATM    4  H   UNL     1     -41.699  55.751 -52.897  1.00  0.00     0.163 HD
ENDROOT
BRANCH   1   5
HETATM    5  C   UNL     1     -43.962  57.025 -52.900  1.00  0.00     0.034 A 
HETATM    6  C   UNL     1     -43.662  58.384 -52.741  1.00  0.00     0.047 A 
HETATM    7  C   UNL     1     -44.054  59.339 -53.696  1.00  0.00     0.042 A 
HETATM    8  C   UNL     1     -44.667  58.896 -54.882  1.00  0.00    -0.035 A 
HETATM    9  C   UNL     1     -44.946  59.764 -56.079  1.00  0.00     0.050 C 
HETATM   10  C   UNL     1     -44.987  57.527 -55.017  1.00  0.00     0.010 A 
HETATM   11  C   UNL     1     -44.643  56.596 -54.037  1.00  0.00     0.017 A 
BRANCH   7  12
HETATM   12  N   UNL     1     -43.732  60.673 -53.368  1.00  0.00    -0.321 N 
HETATM   13  C   UNL     1     -44.577  61.723 -53.057  1.00  0.00     0.279 C 
HETATM   14  O   UNL     1     -45.796  61.654 -52.957  1.00  0.00    -0.265 OA
HETATM   15  H   UNL     1     -42.759  60.866 -53.150  1.00  0.00     0.169 HD
BRANCH  13  16
HETATM   16  C   UNL     1     -43.858  62.956 -52.783  1.00  0.00     0.142 A 
HETATM   17  O   UNL     1     -43.370  63.701 -53.827  1.00  0.00    -0.317 OA
HETATM   18  C   UNL     1     -42.747  64.782 -53.289  1.00  0.00     0.143 A 
HETATM   19  C   UNL     1     -42.821  64.751 -51.917  1.00  0.00     0.027 A 
HETATM   20  C   UNL     1     -43.535  63.573 -51.589  1.00  0.00     0.045 A 
ENDBRANCH  13  16
ENDBRANCH   7  12
ENDBRANCH   1   5
BRANCH   2  21
HETATM   21  CA  UNL     1     -41.597  54.663 -51.064  1.00  0.00     0.141 C 
BRANCH  21  22
HETATM   22  C   UNL     1     -40.994  53.477 -51.798  1.00  0.00    -0.033 A 
HETATM   23  C   UNL     1     -40.251  52.494 -51.124  1.00  0.00     0.010 A 
HETATM   24  C   UNL     1     -39.747  51.387 -51.812  1.00  0.00     0.017 A 
HETATM   25  C   UNL     1     -39.971  51.238 -53.188  1.00  0.00     0.047 A 
HETATM   26  C   UNL     1     -40.709  52.221 -53.862  1.00  0.00     0.017 A 
HETATM   27  C   UNL     1     -41.212  53.329 -53.175  1.00  0.00     0.010 A 
BRANCH  25  28
HETATM   28  C   UNL     1     -39.470  50.024 -53.934  1.00  0.00     0.417 C 
HETATM   29  F   UNL     1     -38.377  50.277 -54.707  1.00  0.00    -0.166 F 
HETATM   30  F   UNL     1     -39.110  49.014 -53.097  1.00  0.00    -0.166 F 
HETATM   31  F   UNL     1     -40.405  49.499 -54.775  1.00  0.00    -0.166 F 
ENDBRANCH  25  28
ENDBRANCH  21  22
BRANCH  21  32
HETATM   32  C   UNL     1     -40.547  55.333 -50.140  1.00  0.00     0.194 C 
BRANCH  32  33
HETATM   33  O   UNL     1     -40.815  55.111 -48.755  1.00  0.00    -0.399 OA
HETATM   34  H   UNL     1     -41.755  54.832 -48.678  1.00  0.00     0.209 HD
ENDBRANCH  32  33
ENDBRANCH  21  32
ENDBRANCH   2  21
TORSDOF 8
ENDMDL
