MODEL 1
REMARK VINA RESULT:      -8.6      0.000      0.000
REMARK  8 active torsions:
REMARK  status: ('A' for Active; 'I' for Inactive)
REMARK    1  A    between atoms: C_4  and  S_5 
REMARK    2  A    between atoms: S_5  and  C_6 
REMARK    3  A    between atoms: C_6  and  C_7 
REMARK       I    between atoms: C_7  and  N_8 
REMARK    4  A    between atoms: N_8  and  C_9 
REMARK    5  A    between atoms: C_9  and  C_10 
REMARK    6  A    between atoms: C_20  and  C_21 
REMARK    7  A    between atoms: C_26  and  C_27 
REMARK       I    between atoms: C_27  and  N_28 
REMARK    8  A    between atoms: N_28  and  C_29 
ROOT
HETATM    1  C   UNL     1     -42.590  56.088 -56.522  1.00  0.00     0.069 C 
HETATM    2  C   UNL     1     -42.864  57.112 -55.444  1.00  0.00     0.019 C 
HETATM    3  N   UNL     1     -43.229  58.364 -55.918  1.00  0.00    -0.353 N 
HETATM    4  C   UNL     1     -43.722  59.404 -55.149  1.00  0.00     0.088 C 
HETATM    5  C   UNL     1     -43.654  59.290 -53.800  1.00  0.00     0.071 C 
HETATM    6  C   UNL     1     -44.166  60.281 -52.905  1.00  0.00     0.099 C 
HETATM    7  N   UNL     1     -44.578  61.067 -52.158  1.00  0.00    -0.192 NA
HETATM    8  C   UNL     1     -43.024  58.051 -53.148  1.00  0.00     0.130 C 
HETATM    9  C   UNL     1     -42.788  56.883 -54.107  1.00  0.00     0.048 C 
HETATM   10  H   UNL     1     -43.469  58.392 -56.902  1.00  0.00     0.166 HD
ENDROOT
BRANCH   4  11
HETATM   11  S   UNL     1     -44.461  60.840 -55.869  1.00  0.00    -0.102 SA
BRANCH  11  12
HETATM   12  C   UNL     1     -43.041  61.717 -56.577  1.00  0.00     0.183 C 
BRANCH  12  13
HETATM   13  C   UNL     1     -42.305  60.920 -57.639  1.00  0.00     0.227 C 
HETATM   14  N   UNL     1     -42.880  60.885 -58.886  1.00  0.00    -0.356 N 
HETATM   15  H   UNL     1     -43.885  61.020 -58.934  1.00  0.00     0.162 HD
HETATM   16  O   UNL     1     -41.202  60.428 -57.402  1.00  0.00    -0.273 OA
BRANCH  14  17
HETATM   17  C   UNL     1     -42.245  60.149 -59.958  1.00  0.00     0.161 C 
BRANCH  17  18
HETATM   18  C   UNL     1     -42.695  58.714 -60.066  1.00  0.00    -0.041 A 
HETATM   19  C   UNL     1     -41.802  57.634 -60.004  1.00  0.00     0.009 A 
HETATM   20  C   UNL     1     -42.270  56.319 -60.061  1.00  0.00     0.001 A 
HETATM   21  C   UNL     1     -43.636  56.065 -60.156  1.00  0.00     0.000 A 
HETATM   22  C   UNL     1     -44.537  57.125 -60.193  1.00  0.00     0.001 A 
HETATM   23  C   UNL     1     -44.071  58.440 -60.146  1.00  0.00     0.009 A 
ENDBRANCH  17  18
ENDBRANCH  14  17
ENDBRANCH  12  13
ENDBRANCH  11  12
ENDBRANCH   4  11
BRANCH   8  24
HETATM   24  C   UNL     1     -41.767  58.403 -52.391  1.00  0.00     0.066 A 
HETATM   25  O   UNL     1     -41.865  58.398 -51.031  1.00  0.00    -0.326 OA
HETATM   26  C   UNL     1     -40.641  58.722 -50.543  1.00  0.00     0.142 A 
HETATM   27  C   UNL     1     -39.753  58.931 -51.571  1.00  0.00     0.027 A 
HETATM   28  C   UNL     1     -40.479  58.723 -52.770  1.00  0.00     0.035 A 
ENDBRANCH   8  24
BRANCH   9  29
HETATM   29  C   UNL     1     -42.524  55.490 -53.567  1.00  0.00     0.255 C 
HETATM   30  N   UNL     1     -41.209  55.070 -53.538  1.00  0.00    -0.322 N 
HETATM   31  H   UNL     1     -40.479  55.665 -53.916  1.00  0.00     0.169 HD
HETATM   32  O   UNL     1     -43.455  54.815 -53.136  1.00  0.00    -0.268 OA
BRANCH  30  33
HETATM   33  C   UNL     1     -40.705  53.852 -52.999  1.00  0.00     0.057 A 
HETATM   34  C   UNL     1     -40.486  53.770 -51.607  1.00  0.00     0.062 A 
HETATM   35 CL   UNL     1     -40.844  55.104 -50.565  1.00  0.00    -0.082 Cl
HETATM   36  C   UNL     1     -40.003  52.599 -51.014  1.00  0.00     0.050 A 
HETATM   37  C   UNL     1     -39.727  51.493 -51.809  1.00  0.00     0.035 A 
HETATM   38 CL   UNL     1     -39.139  50.046 -51.090  1.00  0.00    -0.084 Cl
HETATM   39  C   UNL     1     -39.930  51.550 -53.183  1.00  0.00     0.026 A 
HETATM   40  C   UNL     1     -40.416  52.723 -53.774  1.00  0.00     0.033 A 
ENDBRANCH  30  33
ENDBRANCH   9  29
TORSDOF 8
ENDMDL
MODEL 2
REMARK VINA RESULT:      -8.4      1.708      2.161
REMARK  8 active torsions:
REMARK  status: ('A' for Active; 'I' for Inactive)
REMARK    1  A    between atoms: C_4  and  S_5 
REMARK    2  A    between atoms: S_5  and  C_6 
REMARK    3  A    between atoms: C_6  and  C_7 
REMARK       I    between atoms: C_7  and  N_8 
REMARK    4  A    between atoms: N_8  and  C_9 
REMARK    5  A    between atoms: C_9  and  C_10 
REMARK    6  A    between atoms: C_20  and  C_21 
REMARK    7  A    between atoms: C_26  and  C_27 
REMARK       I    between atoms: C_27  and  N_28 
REMARK    8  A    between atoms: N_28  and  C_29 
ROOT
HETATM    1  C   UNL     1     -42.183  56.648 -56.128  1.00  0.00     0.069 C 
HETATM    2  C   UNL     1     -42.254  57.765 -55.110  1.00  0.00     0.019 C 
HETATM    3  N   UNL     1     -42.416  59.031 -55.655  1.00  0.00    -0.353 N 
HETATM    4  C   UNL     1     -42.708  60.182 -54.944  1.00  0.00     0.088 C 
HETATM    5  C   UNL     1     -42.626  60.137 -53.592  1.00  0.00     0.071 C 
HETATM    6  C   UNL     1     -42.941  61.251 -52.752  1.00  0.00     0.099 C 
HETATM    7  N   UNL     1     -43.197  62.137 -52.048  1.00  0.00    -0.192 NA
HETATM    8  C   UNL     1     -42.196  58.849 -52.875  1.00  0.00     0.130 C 
HETATM    9  C   UNL     1     -42.183  57.604 -53.763  1.00  0.00     0.048 C 
HETATM   10  H   UNL     1     -42.673  59.042 -56.635  1.00  0.00     0.166 HD
ENDROOT
BRANCH   4  11
HETATM   11  S   UNL     1     -43.214  61.678 -55.740  1.00  0.00    -0.102 SA
BRANCH  11  12
HETATM   12  C   UNL     1     -44.993  61.429 -55.981  1.00  0.00     0.183 C 
BRANCH  12  13
HETATM   13  C   UNL     1     -45.346  60.051 -56.511  1.00  0.00     0.227 C 
HETATM   14  N   UNL     1     -45.193  59.858 -57.863  1.00  0.00    -0.356 N 
HETATM   15  H   UNL     1     -45.255  60.680 -58.455  1.00  0.00     0.162 HD
HETATM   16  O   UNL     1     -45.648  59.141 -55.740  1.00  0.00    -0.273 OA
BRANCH  14  17
HETATM   17  C   UNL     1     -45.505  58.574 -58.453  1.00  0.00     0.161 C 
BRANCH  17  18
HETATM   18  C   UNL     1     -44.310  57.860 -59.032  1.00  0.00    -0.041 A 
HETATM   19  C   UNL     1     -43.095  58.510 -59.296  1.00  0.00     0.009 A 
HETATM   20  C   UNL     1     -41.999  57.798 -59.788  1.00  0.00     0.001 A 
HETATM   21  C   UNL     1     -42.094  56.424 -60.001  1.00  0.00     0.000 A 
HETATM   22  C   UNL     1     -43.284  55.760 -59.719  1.00  0.00     0.001 A 
HETATM   23  C   UNL     1     -44.384  56.472 -59.236  1.00  0.00     0.009 A 
ENDBRANCH  17  18
ENDBRANCH  14  17
ENDBRANCH  12  13
ENDBRANCH  11  12
ENDBRANCH   4  11
BRANCH   8  24
HETATM   24  C   UNL     1     -40.879  59.028 -52.160  1.00  0.00     0.066 A 
HETATM   25  O   UNL     1     -39.768  59.058 -52.950  1.00  0.00    -0.326 OA
HETATM   26  C   UNL     1     -38.702  59.240 -52.130  1.00  0.00     0.142 A 
HETATM   27  C   UNL     1     -39.112  59.332 -50.821  1.00  0.00     0.027 A 
HETATM   28  C   UNL     1     -40.522  59.198 -50.838  1.00  0.00     0.035 A 
ENDBRANCH   8  24
BRANCH   9  29
HETATM   29  C   UNL     1     -42.143  56.221 -53.143  1.00  0.00     0.255 C 
HETATM   30  N   UNL     1     -40.927  55.566 -53.153  1.00  0.00    -0.322 N 
HETATM   31  H   UNL     1     -40.126  55.992 -53.609  1.00  0.00     0.169 HD
HETATM   32  O   UNL     1     -43.151  55.756 -52.618  1.00  0.00    -0.268 OA
BRANCH  30  33
HETATM   33  C   UNL     1     -40.619  54.310 -52.558  1.00  0.00     0.057 A 
HETATM   34  C   UNL     1     -40.309  53.222 -53.401  1.00  0.00     0.062 A 
HETATM   35 CL   UNL     1     -40.273  53.405 -55.121  1.00  0.00    -0.082 Cl
HETATM   36  C   UNL     1     -39.988  51.965 -52.880  1.00  0.00     0.050 A 
HETATM   37  C   UNL     1     -39.977  51.778 -51.502  1.00  0.00     0.035 A 
HETATM   38 CL   UNL     1     -39.577  50.238 -50.850  1.00  0.00    -0.084 Cl
HETATM   39  C   UNL     1     -40.285  52.832 -50.651  1.00  0.00     0.026 A 
HETATM   40  C   UNL     1     -40.604  54.090 -51.176  1.00  0.00     0.033 A 
ENDBRANCH  30  33
ENDBRANCH   9  29
TORSDOF 8
ENDMDL
MODEL 3
REMARK VINA RESULT:      -8.3      1.846      5.741
REMARK  8 active torsions:
REMARK  status: ('A' for Active; 'I' for Inactive)
REMARK    1  A    between atoms: C_4  and  S_5 
REMARK    2  A    between atoms: S_5  and  C_6 
REMARK    3  A    between atoms: C_6  and  C_7 
REMARK       I    between atoms: C_7  and  N_8 
REMARK    4  A    between atoms: N_8  and  C_9 
REMARK    5  A    between atoms: C_9  and  C_10 
REMARK    6  A    between atoms: C_20  and  C_21 
REMARK    7  A    between atoms: C_26  and  C_27 
REMARK       I    between atoms: C_27  and  N_28 
REMARK    8  A    between atoms: N_28  and  C_29 
ROOT
HETATM    1  C   UNL     1     -44.450  57.224 -53.669  1.00  0.00     0.069 C 
HETATM    2  C   UNL     1     -43.891  57.657 -55.006  1.00  0.00     0.019 C 
HETATM    3  N   UNL     1     -44.213  58.957 -55.370  1.00  0.00    -0.353 N 
HETATM    4  C   UNL     1     -43.665  59.653 -56.434  1.00  0.00     0.088 C 
HETATM    5  C   UNL     1     -42.915  58.967 -57.330  1.00  0.00     0.071 C 
HETATM    6  C   UNL     1     -42.268  59.585 -58.445  1.00  0.00     0.099 C 
HETATM    7  N   UNL     1     -41.728  60.064 -59.354  1.00  0.00    -0.192 NA
HETATM    8  C   UNL     1     -42.701  57.453 -57.178  1.00  0.00     0.130 C 
HETATM    9  C   UNL     1     -43.123  56.889 -55.821  1.00  0.00     0.048 C 
HETATM   10  H   UNL     1     -44.598  59.525 -54.624  1.00  0.00     0.166 HD
ENDROOT
BRANCH   4  11
HETATM   11  S   UNL     1     -43.887  61.396 -56.633  1.00  0.00    -0.102 SA
BRANCH  11  12
HETATM   12  C   UNL     1     -44.913  61.841 -55.207  1.00  0.00     0.183 C 
BRANCH  12  13
HETATM   13  C   UNL     1     -44.117  62.070 -53.935  1.00  0.00     0.227 C 
HETATM   14  N   UNL     1     -44.251  61.122 -52.949  1.00  0.00    -0.356 N 
HETATM   15  H   UNL     1     -45.114  60.588 -52.939  1.00  0.00     0.162 HD
HETATM   16  O   UNL     1     -43.320  63.004 -53.853  1.00  0.00    -0.273 OA
BRANCH  14  17
HETATM   17  C   UNL     1     -43.527  61.261 -51.705  1.00  0.00     0.161 C 
BRANCH  17  18
HETATM   18  C   UNL     1     -42.316  60.369 -51.599  1.00  0.00    -0.041 A 
HETATM   19  C   UNL     1     -41.776  59.691 -52.702  1.00  0.00     0.009 A 
HETATM   20  C   UNL     1     -40.624  58.912 -52.566  1.00  0.00     0.001 A 
HETATM   21  C   UNL     1     -39.983  58.820 -51.333  1.00  0.00     0.000 A 
HETATM   22  C   UNL     1     -40.490  59.508 -50.234  1.00  0.00     0.001 A 
HETATM   23  C   UNL     1     -41.647  60.279 -50.366  1.00  0.00     0.009 A 
ENDBRANCH  17  18
ENDBRANCH  14  17
ENDBRANCH  12  13
ENDBRANCH  11  12
ENDBRANCH   4  11
BRANCH   8  24
HETATM   24  C   UNL     1     -43.334  56.689 -58.313  1.00  0.00     0.066 A 
HETATM   25  O   UNL     1     -44.652  56.949 -58.550  1.00  0.00    -0.326 OA
HETATM   26  C   UNL     1     -45.025  56.183 -59.606  1.00  0.00     0.142 A 
HETATM   27  C   UNL     1     -43.964  55.436 -60.057  1.00  0.00     0.027 A 
HETATM   28  C   UNL     1     -42.866  55.763 -59.223  1.00  0.00     0.035 A 
ENDBRANCH   8  24
BRANCH   9  29
HETATM   29  C   UNL     1     -42.649  55.517 -55.381  1.00  0.00     0.255 C 
HETATM   30  N   UNL     1     -41.562  55.473 -54.531  1.00  0.00    -0.322 N 
HETATM   31  H   UNL     1     -41.088  56.332 -54.271  1.00  0.00     0.169 HD
HETATM   32  O   UNL     1     -43.260  54.514 -55.743  1.00  0.00    -0.268 OA
BRANCH  30  33
HETATM   33  C   UNL     1     -40.994  54.320 -53.916  1.00  0.00     0.057 A 
HETATM   34  C   UNL     1     -40.974  54.248 -52.507  1.00  0.00     0.062 A 
HETATM   35 CL   UNL     1     -41.647  55.513 -51.537  1.00  0.00    -0.082 Cl
HETATM   36  C   UNL     1     -40.440  53.139 -51.842  1.00  0.00     0.050 A 
HETATM   37  C   UNL     1     -39.913  52.087 -52.582  1.00  0.00     0.035 A 
HETATM   38 CL   UNL     1     -39.260  50.716 -51.775  1.00  0.00    -0.084 Cl
HETATM   39  C   UNL     1     -39.916  52.137 -53.971  1.00  0.00     0.026 A 
HETATM   40  C   UNL     1     -40.454  53.247 -54.633  1.00  0.00     0.033 A 
ENDBRANCH  30  33
ENDBRANCH   9  29
TORSDOF 8
ENDMDL
MODEL 4
REMARK VINA RESULT:      -8.2      4.141      9.291
REMARK  8 active torsions:
REMARK  status: ('A' for Active; 'I' for Inactive)
REMARK    1  A    between atoms: C_4  and  S_5 
REMARK    2  A    between atoms: S_5  and  C_6 
REMARK    3  A    between atoms: C_6  and  C_7 
REMARK       I    between atoms: C_7  and  N_8 
REMARK    4  A    between atoms: N_8  and  C_9 
REMARK    5  A    between atoms: C_9  and  C_10 
REMARK    6  A    between atoms: C_20  and  C_21 
REMARK    7  A    between atoms: C_26  and  C_27 
REMARK       I    between atoms: C_27  and  N_28 
REMARK    8  A    between atoms: N_28  and  C_29 
ROOT
HETATM    1  C   UNL     1     -45.580  60.330 -55.788  1.00  0.00     0.069 C 
HETATM    2  C   UNL     1     -44.729  59.092 -55.962  1.00  0.00     0.019 C 
HETATM    3  N   UNL     1     -43.668  58.993 -55.073  1.00  0.00    -0.353 N 
HETATM    4  C   UNL     1     -42.871  57.876 -54.891  1.00  0.00     0.088 C 
HETATM    5  C   UNL     1     -42.978  56.862 -55.784  1.00  0.00     0.071 C 
HETATM    6  C   UNL     1     -42.235  55.645 -55.677  1.00  0.00     0.099 C 
HETATM    7  N   UNL     1     -41.649  54.645 -55.609  1.00  0.00    -0.192 NA
HETATM    8  C   UNL     1     -43.940  56.965 -56.977  1.00  0.00     0.130 C 
HETATM    9  C   UNL     1     -44.941  58.117 -56.884  1.00  0.00     0.048 C 
HETATM   10  H   UNL     1     -43.707  59.638 -54.292  1.00  0.00     0.166 HD
ENDROOT
BRANCH   4  11
HETATM   11  S   UNL     1     -41.760  57.724 -53.524  1.00  0.00    -0.102 SA
BRANCH  11  12
HETATM   12  C   UNL     1     -42.556  56.464 -52.491  1.00  0.00     0.183 C 
BRANCH  12  13
HETATM   13  C   UNL     1     -41.573  55.617 -51.704  1.00  0.00     0.227 C 
HETATM   14  N   UNL     1     -41.089  54.495 -52.334  1.00  0.00    -0.356 N 
HETATM   15  H   UNL     1     -41.672  54.087 -53.058  1.00  0.00     0.162 HD
HETATM   16  O   UNL     1     -41.165  55.988 -50.604  1.00  0.00    -0.273 OA
BRANCH  14  17
HETATM   17  C   UNL     1     -40.147  53.631 -51.657  1.00  0.00     0.161 C 
BRANCH  17  18
HETATM   18  C   UNL     1     -39.974  52.284 -52.310  1.00  0.00    -0.041 A 
HETATM   19  C   UNL     1     -39.620  51.133 -51.590  1.00  0.00     0.009 A 
HETATM   20  C   UNL     1     -39.516  49.896 -52.229  1.00  0.00     0.001 A 
HETATM   21  C   UNL     1     -39.788  49.786 -53.591  1.00  0.00     0.000 A 
HETATM   22  C   UNL     1     -40.166  50.913 -54.316  1.00  0.00     0.001 A 
HETATM   23  C   UNL     1     -40.260  52.153 -53.679  1.00  0.00     0.009 A 
ENDBRANCH  17  18
ENDBRANCH  14  17
ENDBRANCH  12  13
ENDBRANCH  11  12
ENDBRANCH   4  11
BRANCH   8  24
HETATM   24  C   UNL     1     -43.193  56.989 -58.287  1.00  0.00     0.066 A 
HETATM   25  O   UNL     1     -42.722  58.205 -58.687  1.00  0.00    -0.326 OA
HETATM   26  C   UNL     1     -42.076  58.014 -59.865  1.00  0.00     0.142 A 
HETATM   27  C   UNL     1     -42.121  56.689 -60.228  1.00  0.00     0.027 A 
HETATM   28  C   UNL     1     -42.841  56.022 -59.207  1.00  0.00     0.035 A 
ENDBRANCH   8  24
BRANCH   9  29
HETATM   29  C   UNL     1     -46.169  58.137 -57.773  1.00  0.00     0.255 C 
HETATM   30  N   UNL     1     -45.983  58.512 -59.088  1.00  0.00    -0.322 N 
HETATM   31  H   UNL     1     -45.065  58.808 -59.406  1.00  0.00     0.169 HD
HETATM   32  O   UNL     1     -47.255  57.780 -57.324  1.00  0.00    -0.268 OA
BRANCH  30  33
HETATM   33  C   UNL     1     -46.956  58.523 -60.128  1.00  0.00     0.057 A 
HETATM   34  C   UNL     1     -47.208  57.324 -60.829  1.00  0.00     0.062 A 
HETATM   35 CL   UNL     1     -46.378  55.861 -60.424  1.00  0.00    -0.082 Cl
HETATM   36  C   UNL     1     -48.158  57.265 -61.853  1.00  0.00     0.050 A 
HETATM   37  C   UNL     1     -48.869  58.409 -62.194  1.00  0.00     0.035 A 
HETATM   38 CL   UNL     1     -50.044  58.347 -63.448  1.00  0.00    -0.084 Cl
HETATM   39  C   UNL     1     -48.635  59.604 -61.522  1.00  0.00     0.026 A 
HETATM   40  C   UNL     1     -47.685  59.660 -60.496  1.00  0.00     0.033 A 
ENDBRANCH  30  33
ENDBRANCH   9  29
TORSDOF 8
ENDMDL
MODEL 5
REMARK VINA RESULT:      -7.9      4.261      8.328
REMARK  8 active torsions:
REMARK  status: ('A' for Active; 'I' for Inactive)
REMARK    1  A    between atoms: C_4  and  S_5 
REMARK    2  A    between atoms: S_5  and  C_6 
REMARK    3  A    between atoms: C_6  and  C_7 
REMARK       I    between atoms: C_7  and  N_8 
REMARK    4  A    between atoms: N_8  and  C_9 
REMARK    5  A    between atoms: C_9  and  C_10 
REMARK    6  A    between atoms: C_20  and  C_21 
REMARK    7  A    between atoms: C_26  and  C_27 
REMARK       I    between atoms: C_27  and  N_28 
REMARK    8  A    between atoms: N_28  and  C_29 
ROOT
HETATM    1  C   UNL     1     -43.724  56.757 -50.642  1.00  0.00     0.069 C 
HETATM    2  C   UNL     1     -44.037  57.479 -51.934  1.00  0.00     0.019 C 
HETATM    3  N   UNL     1     -43.458  56.916 -53.063  1.00  0.00    -0.353 N 
HETATM    4  C   UNL     1     -43.748  57.260 -54.372  1.00  0.00     0.088 C 
HETATM    5  C   UNL     1     -44.492  58.371 -54.592  1.00  0.00     0.071 C 
HETATM    6  C   UNL     1     -44.886  58.802 -55.898  1.00  0.00     0.099 C 
HETATM    7  N   UNL     1     -45.224  59.170 -56.945  1.00  0.00    -0.192 NA
HETATM    8  C   UNL     1     -44.977  59.235 -53.419  1.00  0.00     0.130 C 
HETATM    9  C   UNL     1     -44.822  58.581 -52.046  1.00  0.00     0.048 C 
HETATM   10  H   UNL     1     -43.074  55.988 -52.926  1.00  0.00     0.166 HD
ENDROOT
BRANCH   4  11
HETATM   11  S   UNL     1     -43.211  56.281 -55.744  1.00  0.00    -0.102 SA
BRANCH  11  12
HETATM   12  C   UNL     1     -43.476  54.585 -55.162  1.00  0.00     0.183 C 
BRANCH  12  13
HETATM   13  C   UNL     1     -42.548  54.180 -54.031  1.00  0.00     0.227 C 
HETATM   14  N   UNL     1     -41.208  54.114 -54.333  1.00  0.00    -0.356 N 
HETATM   15  H   UNL     1     -40.963  53.939 -55.302  1.00  0.00     0.162 HD
HETATM   16  O   UNL     1     -42.980  54.026 -52.890  1.00  0.00    -0.273 OA
BRANCH  14  17
HETATM   17  C   UNL     1     -40.253  53.737 -53.314  1.00  0.00     0.161 C 
BRANCH  17  18
HETATM   18  C   UNL     1     -40.083  52.248 -53.156  1.00  0.00    -0.041 A 
HETATM   19  C   UNL     1     -40.183  51.356 -54.234  1.00  0.00     0.009 A 
HETATM   20  C   UNL     1     -39.971  49.987 -54.049  1.00  0.00     0.001 A 
HETATM   21  C   UNL     1     -39.633  49.495 -52.791  1.00  0.00     0.000 A 
HETATM   22  C   UNL     1     -39.504  50.370 -51.715  1.00  0.00     0.001 A 
HETATM   23  C   UNL     1     -39.726  51.736 -51.897  1.00  0.00     0.009 A 
ENDBRANCH  17  18
ENDBRANCH  14  17
ENDBRANCH  12  13
ENDBRANCH  11  12
ENDBRANCH   4  11
BRANCH   8  24
HETATM   24  C   UNL     1     -44.352  60.608 -53.449  1.00  0.00     0.066 A 
HETATM   25  O   UNL     1     -45.152  61.623 -53.883  1.00  0.00    -0.326 OA
HETATM   26  C   UNL     1     -44.419  62.763 -53.821  1.00  0.00     0.142 A 
HETATM   27  C   UNL     1     -43.156  62.497 -53.348  1.00  0.00     0.027 A 
HETATM   28  C   UNL     1     -43.110  61.102 -53.103  1.00  0.00     0.035 A 
ENDBRANCH   8  24
BRANCH   9  29
HETATM   29  C   UNL     1     -45.572  59.130 -50.847  1.00  0.00     0.255 C 
HETATM   30  N   UNL     1     -44.993  60.191 -50.179  1.00  0.00    -0.322 N 
HETATM   31  H   UNL     1     -44.081  60.533 -50.466  1.00  0.00     0.169 HD
HETATM   32  O   UNL     1     -46.667  58.663 -50.544  1.00  0.00    -0.268 OA
BRANCH  30  33
HETATM   33  C   UNL     1     -45.542  60.928 -49.091  1.00  0.00     0.057 A 
HETATM   34  C   UNL     1     -46.313  62.075 -49.375  1.00  0.00     0.062 A 
HETATM   35 CL   UNL     1     -46.616  62.569 -51.005  1.00  0.00    -0.082 Cl
HETATM   36  C   UNL     1     -46.889  62.836 -48.353  1.00  0.00     0.050 A 
HETATM   37  C   UNL     1     -46.696  62.461 -47.028  1.00  0.00     0.035 A 
HETATM   38 CL   UNL     1     -47.404  63.386 -45.764  1.00  0.00    -0.084 Cl
HETATM   39  C   UNL     1     -45.935  61.339 -46.723  1.00  0.00     0.026 A 
HETATM   40  C   UNL     1     -45.362  60.577 -47.749  1.00  0.00     0.033 A 
ENDBRANCH  30  33
ENDBRANCH   9  29
TORSDOF 8
ENDMDL
MODEL 6
REMARK VINA RESULT:      -7.9      3.603      8.288
REMARK  8 active torsions:
REMARK  status: ('A' for Active; 'I' for Inactive)
REMARK    1  A    between atoms: C_4  and  S_5 
REMARK    2  A    between atoms: S_5  and  C_6 
REMARK    3  A    between atoms: C_6  and  C_7 
REMARK       I    between atoms: C_7  and  N_8 
REMARK    4  A    between atoms: N_8  and  C_9 
REMARK    5  A    between atoms: C_9  and  C_10 
REMARK    6  A    between atoms: C_20  and  C_21 
REMARK    7  A    between atoms: C_26  and  C_27 
REMARK       I    between atoms: C_27  and  N_28 
REMARK    8  A    between atoms: N_28  and  C_29 
ROOT
HETATM    1  C   UNL     1     -43.100  55.326 -54.893  1.00  0.00     0.069 C 
HETATM    2  C   UNL     1     -42.922  56.534 -54.001  1.00  0.00     0.019 C 
HETATM    3  N   UNL     1     -42.399  56.250 -52.746  1.00  0.00    -0.353 N 
HETATM    4  C   UNL     1     -41.957  57.187 -51.829  1.00  0.00     0.088 C 
HETATM    5  C   UNL     1     -42.239  58.493 -52.059  1.00  0.00     0.071 C 
HETATM    6  C   UNL     1     -41.801  59.551 -51.203  1.00  0.00     0.099 C 
HETATM    7  N   UNL     1     -41.453  60.428 -50.528  1.00  0.00    -0.192 NA
HETATM    8  C   UNL     1     -43.049  58.913 -53.295  1.00  0.00     0.130 C 
HETATM    9  C   UNL     1     -43.218  57.814 -54.344  1.00  0.00     0.048 C 
HETATM   10  H   UNL     1     -42.010  55.320 -52.648  1.00  0.00     0.166 HD
ENDROOT
BRANCH   4  11
HETATM   11  S   UNL     1     -41.015  56.736 -50.401  1.00  0.00    -0.102 SA
BRANCH  11  12
HETATM   12  C   UNL     1     -42.000  55.402 -49.669  1.00  0.00     0.183 C 
BRANCH  12  13
HETATM   13  C   UNL     1     -41.236  54.100 -49.512  1.00  0.00     0.227 C 
HETATM   14  N   UNL     1     -40.694  53.566 -50.658  1.00  0.00    -0.356 N 
HETATM   15  H   UNL     1     -41.142  53.810 -51.535  1.00  0.00     0.162 HD
HETATM   16  O   UNL     1     -41.034  53.621 -48.397  1.00  0.00    -0.273 OA
BRANCH  14  17
HETATM   17  C   UNL     1     -39.948  52.328 -50.599  1.00  0.00     0.161 C 
BRANCH  17  18
HETATM   18  C   UNL     1     -39.880  51.592 -51.913  1.00  0.00    -0.041 A 
HETATM   19  C   UNL     1     -39.596  50.221 -51.999  1.00  0.00     0.009 A 
HETATM   20  C   UNL     1     -39.590  49.571 -53.235  1.00  0.00     0.001 A 
HETATM   21  C   UNL     1     -39.891  50.275 -54.398  1.00  0.00     0.000 A 
HETATM   22  C   UNL     1     -40.201  51.630 -54.328  1.00  0.00     0.001 A 
HETATM   23  C   UNL     1     -40.197  52.284 -53.094  1.00  0.00     0.009 A 
ENDBRANCH  17  18
ENDBRANCH  14  17
ENDBRANCH  12  13
ENDBRANCH  11  12
ENDBRANCH   4  11
BRANCH   8  24
HETATM   24  C   UNL     1     -44.378  59.511 -52.906  1.00  0.00     0.066 A 
HETATM   25  O   UNL     1     -44.981  58.972 -51.808  1.00  0.00    -0.326 OA
HETATM   26  C   UNL     1     -46.141  59.649 -51.618  1.00  0.00     0.142 A 
HETATM   27  C   UNL     1     -46.293  60.622 -52.576  1.00  0.00     0.027 A 
HETATM   28  C   UNL     1     -45.151  60.538 -53.410  1.00  0.00     0.035 A 
ENDBRANCH   8  24
BRANCH   9  29
HETATM   29  C   UNL     1     -43.661  58.161 -55.752  1.00  0.00     0.255 C 
HETATM   30  N   UNL     1     -44.906  57.713 -56.145  1.00  0.00    -0.322 N 
HETATM   31  H   UNL     1     -45.456  57.133 -55.519  1.00  0.00     0.169 HD
HETATM   32  O   UNL     1     -42.942  58.856 -56.466  1.00  0.00    -0.268 OA
BRANCH  30  33
HETATM   33  C   UNL     1     -45.573  57.985 -57.374  1.00  0.00     0.057 A 
HETATM   34  C   UNL     1     -45.135  57.323 -58.540  1.00  0.00     0.062 A 
HETATM   35 CL   UNL     1     -43.835  56.182 -58.486  1.00  0.00    -0.082 Cl
HETATM   36  C   UNL     1     -45.754  57.538 -59.776  1.00  0.00     0.050 A 
HETATM   37  C   UNL     1     -46.821  58.425 -59.861  1.00  0.00     0.035 A 
HETATM   38 CL   UNL     1     -47.593  58.692 -61.374  1.00  0.00    -0.084 Cl
HETATM   39  C   UNL     1     -47.267  59.094 -58.728  1.00  0.00     0.026 A 
HETATM   40  C   UNL     1     -46.647  58.875 -57.492  1.00  0.00     0.033 A 
ENDBRANCH  30  33
ENDBRANCH   9  29
TORSDOF 8
ENDMDL
MODEL 7
REMARK VINA RESULT:      -7.9      4.238      7.609
REMARK  8 active torsions:
REMARK  status: ('A' for Active; 'I' for Inactive)
REMARK    1  A    between atoms: C_4  and  S_5 
REMARK    2  A    between atoms: S_5  and  C_6 
REMARK    3  A    between atoms: C_6  and  C_7 
REMARK       I    between atoms: C_7  and  N_8 
REMARK    4  A    between atoms: N_8  and  C_9 
REMARK    5  A    between atoms: C_9  and  C_10 
REMARK    6  A    between atoms: C_20  and  C_21 
REMARK    7  A    between atoms: C_26  and  C_27 
REMARK       I    between atoms: C_27  and  N_28 
REMARK    8  A    between atoms: N_28  and  C_29 
ROOT
HETATM    1  C   UNL     1     -46.771  61.088 -52.337  1.00  0.00     0.069 C 
HETATM    2  C   UNL     1     -45.377  60.516 -52.459  1.00  0.00     0.019 C 
HETATM    3  N   UNL     1     -44.926  60.373 -53.764  1.00  0.00    -0.353 N 
HETATM    4  C   UNL     1     -43.629  60.067 -54.138  1.00  0.00     0.088 C 
HETATM    5  C   UNL     1     -42.762  59.666 -53.177  1.00  0.00     0.071 C 
HETATM    6  C   UNL     1     -41.390  59.361 -53.438  1.00  0.00     0.099 C 
HETATM    7  N   UNL     1     -40.271  59.115 -53.622  1.00  0.00    -0.192 NA
HETATM    8  C   UNL     1     -43.220  59.530 -51.717  1.00  0.00     0.130 C 
HETATM    9  C   UNL     1     -44.578  60.166 -51.418  1.00  0.00     0.048 C 
HETATM   10  H   UNL     1     -45.485  60.850 -54.462  1.00  0.00     0.166 HD
ENDROOT
BRANCH   4  11
HETATM   11  S   UNL     1     -43.070  60.220 -55.809  1.00  0.00    -0.102 SA
BRANCH  11  12
HETATM   12  C   UNL     1     -43.993  58.918 -56.668  1.00  0.00     0.183 C 
BRANCH  12  13
HETATM   13  C   UNL     1     -44.348  57.740 -55.779  1.00  0.00     0.227 C 
HETATM   14  N   UNL     1     -43.331  56.861 -55.493  1.00  0.00    -0.356 N 
HETATM   15  H   UNL     1     -42.571  56.802 -56.162  1.00  0.00     0.162 HD
HETATM   16  O   UNL     1     -45.464  57.654 -55.268  1.00  0.00    -0.273 OA
BRANCH  14  17
HETATM   17  C   UNL     1     -43.582  55.711 -54.651  1.00  0.00     0.161 C 
BRANCH  17  18
HETATM   18  C   UNL     1     -42.396  54.792 -54.502  1.00  0.00    -0.041 A 
HETATM   19  C   UNL     1     -41.315  54.799 -55.396  1.00  0.00     0.009 A 
HETATM   20  C   UNL     1     -40.215  53.962 -55.192  1.00  0.00     0.001 A 
HETATM   21  C   UNL     1     -40.169  53.126 -54.080  1.00  0.00     0.000 A 
HETATM   22  C   UNL     1     -41.221  53.125 -53.168  1.00  0.00     0.001 A 
HETATM   23  C   UNL     1     -42.325  53.954 -53.376  1.00  0.00     0.009 A 
ENDBRANCH  17  18
ENDBRANCH  14  17
ENDBRANCH  12  13
ENDBRANCH  11  12
ENDBRANCH   4  11
BRANCH   8  24
HETATM   24  C   UNL     1     -43.169  58.096 -51.253  1.00  0.00     0.066 A 
HETATM   25  O   UNL     1     -44.342  57.403 -51.318  1.00  0.00    -0.326 OA
HETATM   26  C   UNL     1     -44.086  56.145 -50.877  1.00  0.00     0.142 A 
HETATM   27  C   UNL     1     -42.761  56.017 -50.533  1.00  0.00     0.027 A 
HETATM   28  C   UNL     1     -42.164  57.278 -50.778  1.00  0.00     0.035 A 
ENDBRANCH   8  24
BRANCH   9  29
HETATM   29  C   UNL     1     -44.997  60.440 -49.987  1.00  0.00     0.255 C 
HETATM   30  N   UNL     1     -44.372  61.489 -49.342  1.00  0.00    -0.322 N 
HETATM   31  H   UNL     1     -43.631  62.002 -49.810  1.00  0.00     0.169 HD
HETATM   32  O   UNL     1     -45.892  59.774 -49.473  1.00  0.00    -0.268 OA
BRANCH  30  33
HETATM   33  C   UNL     1     -44.655  61.992 -48.040  1.00  0.00     0.057 A 
HETATM   34  C   UNL     1     -44.807  63.385 -47.874  1.00  0.00     0.062 A 
HETATM   35 CL   UNL     1     -44.684  64.465 -49.220  1.00  0.00    -0.082 Cl
HETATM   36  C   UNL     1     -45.096  63.942 -46.624  1.00  0.00     0.050 A 
HETATM   37  C   UNL     1     -45.232  63.110 -45.519  1.00  0.00     0.035 A 
HETATM   38 CL   UNL     1     -45.593  63.783 -43.978  1.00  0.00    -0.084 Cl
HETATM   39  C   UNL     1     -45.080  61.735 -45.656  1.00  0.00     0.026 A 
HETATM   40  C   UNL     1     -44.794  61.180 -46.908  1.00  0.00     0.033 A 
ENDBRANCH  30  33
ENDBRANCH   9  29
TORSDOF 8
ENDMDL
MODEL 8
REMARK VINA RESULT:      -7.7      3.485      8.179
REMARK  8 active torsions:
REMARK  status: ('A' for Active; 'I' for Inactive)
REMARK    1  A    between atoms: C_4  and  S_5 
REMARK    2  A    between atoms: S_5  and  C_6 
REMARK    3  A    between atoms: C_6  and  C_7 
REMARK       I    between atoms: C_7  and  N_8 
REMARK    4  A    between atoms: N_8  and  C_9 
REMARK    5  A    between atoms: C_9  and  C_10 
REMARK    6  A    between atoms: C_20  and  C_21 
REMARK    7  A    between atoms: C_26  and  C_27 
REMARK       I    between atoms: C_27  and  N_28 
REMARK    8  A    between atoms: N_28  and  C_29 
ROOT
HETATM    1  C   UNL     1     -44.381  57.600 -55.568  1.00  0.00     0.069 C 
HETATM    2  C   UNL     1     -43.650  58.300 -54.445  1.00  0.00     0.019 C 
HETATM    3  N   UNL     1     -43.575  57.572 -53.266  1.00  0.00    -0.353 N 
HETATM    4  C   UNL     1     -42.797  57.897 -52.168  1.00  0.00     0.088 C 
HETATM    5  C   UNL     1     -42.218  59.121 -52.133  1.00  0.00     0.071 C 
HETATM    6  C   UNL     1     -41.363  59.553 -51.070  1.00  0.00     0.099 C 
HETATM    7  N   UNL     1     -40.662  59.924 -50.224  1.00  0.00    -0.192 NA
HETATM    8  C   UNL     1     -42.444  60.128 -53.271  1.00  0.00     0.130 C 
HETATM    9  C   UNL     1     -43.082  59.531 -54.525  1.00  0.00     0.048 C 
HETATM   10  H   UNL     1     -43.828  56.594 -53.352  1.00  0.00     0.166 HD
ENDROOT
BRANCH   4  11
HETATM   11  S   UNL     1     -42.511  56.757 -50.846  1.00  0.00    -0.102 SA
BRANCH  11  12
HETATM   12  C   UNL     1     -43.259  55.225 -51.461  1.00  0.00     0.183 C 
BRANCH  12  13
HETATM   13  C   UNL     1     -42.527  54.628 -52.649  1.00  0.00     0.227 C 
HETATM   14  N   UNL     1     -41.246  54.183 -52.419  1.00  0.00    -0.356 N 
HETATM   15  H   UNL     1     -40.740  54.616 -51.654  1.00  0.00     0.162 HD
HETATM   16  O   UNL     1     -43.103  54.464 -53.724  1.00  0.00    -0.273 OA
BRANCH  14  17
HETATM   17  C   UNL     1     -40.477  53.599 -53.496  1.00  0.00     0.161 C 
BRANCH  17  18
HETATM   18  C   UNL     1     -40.191  52.129 -53.316  1.00  0.00    -0.041 A 
HETATM   19  C   UNL     1     -40.233  51.214 -54.379  1.00  0.00     0.009 A 
HETATM   20  C   UNL     1     -39.915  49.870 -54.174  1.00  0.00     0.001 A 
HETATM   21  C   UNL     1     -39.527  49.426 -52.912  1.00  0.00     0.000 A 
HETATM   22  C   UNL     1     -39.455  50.326 -51.853  1.00  0.00     0.001 A 
HETATM   23  C   UNL     1     -39.783  51.668 -52.054  1.00  0.00     0.009 A 
ENDBRANCH  17  18
ENDBRANCH  14  17
ENDBRANCH  12  13
ENDBRANCH  11  12
ENDBRANCH   4  11
BRANCH   8  24
HETATM   24  C   UNL     1     -43.201  61.342 -52.792  1.00  0.00     0.066 A 
HETATM   25  O   UNL     1     -42.778  62.543 -53.279  1.00  0.00    -0.326 OA
HETATM   26  C   UNL     1     -43.587  63.495 -52.748  1.00  0.00     0.142 A 
HETATM   27  C   UNL     1     -44.530  62.922 -51.928  1.00  0.00     0.027 A 
HETATM   28  C   UNL     1     -44.284  61.527 -51.957  1.00  0.00     0.035 A 
ENDBRANCH   8  24
BRANCH   9  29
HETATM   29  C   UNL     1     -43.035  60.284 -55.841  1.00  0.00     0.255 C 
HETATM   30  N   UNL     1     -41.960  60.031 -56.669  1.00  0.00    -0.322 N 
HETATM   31  H   UNL     1     -41.221  59.406 -56.362  1.00  0.00     0.169 HD
HETATM   32  O   UNL     1     -43.956  61.038 -56.147  1.00  0.00    -0.268 OA
BRANCH  30  33
HETATM   33  C   UNL     1     -41.742  60.543 -57.980  1.00  0.00     0.057 A 
HETATM   34  C   UNL     1     -42.172  59.776 -59.083  1.00  0.00     0.062 A 
HETATM   35 CL   UNL     1     -42.973  58.258 -58.860  1.00  0.00    -0.082 Cl
HETATM   36  C   UNL     1     -41.998  60.226 -60.396  1.00  0.00     0.050 A 
HETATM   37  C   UNL     1     -41.384  61.452 -60.622  1.00  0.00     0.035 A 
HETATM   38 CL   UNL     1     -41.169  62.018 -62.232  1.00  0.00    -0.084 Cl
HETATM   39  C   UNL     1     -40.946  62.224 -59.552  1.00  0.00     0.026 A 
HETATM   40  C   UNL     1     -41.124  61.771 -58.239  1.00  0.00     0.033 A 
ENDBRANCH  30  33
ENDBRANCH   9  29
TORSDOF 8
ENDMDL
MODEL 9
REMARK VINA RESULT:      -7.6      1.476      2.108
REMARK  8 active torsions:
REMARK  status: ('A' for Active; 'I' for Inactive)
REMARK    1  A    between atoms: C_4  and  S_5 
REMARK    2  A    between atoms: S_5  and  C_6 
REMARK    3  A    between atoms: C_6  and  C_7 
REMARK       I    between atoms: C_7  and  N_8 
REMARK    4  A    between atoms: N_8  and  C_9 
REMARK    5  A    between atoms: C_9  and  C_10 
REMARK    6  A    between atoms: C_20  and  C_21 
REMARK    7  A    between atoms: C_26  and  C_27 
REMARK       I    between atoms: C_27  and  N_28 
REMARK    8  A    between atoms: N_28  and  C_29 
ROOT
HETATM    1  C   UNL     1     -42.537  56.257 -56.987  1.00  0.00     0.069 C 
HETATM    2  C   UNL     1     -43.026  57.144 -55.864  1.00  0.00     0.019 C 
HETATM    3  N   UNL     1     -43.477  58.392 -56.271  1.00  0.00    -0.353 N 
HETATM    4  C   UNL     1     -44.154  59.302 -55.477  1.00  0.00     0.088 C 
HETATM    5  C   UNL     1     -44.207  59.071 -54.142  1.00  0.00     0.071 C 
HETATM    6  C   UNL     1     -44.909  59.919 -53.229  1.00  0.00     0.099 C 
HETATM    7  N   UNL     1     -45.477  60.587 -52.469  1.00  0.00    -0.192 NA
HETATM    8  C   UNL     1     -43.513  57.846 -53.530  1.00  0.00     0.130 C 
HETATM    9  C   UNL     1     -43.058  56.801 -54.551  1.00  0.00     0.048 C 
HETATM   10  H   UNL     1     -43.621  58.488 -57.270  1.00  0.00     0.166 HD
ENDROOT
BRANCH   4  11
HETATM   11  S   UNL     1     -44.970  60.718 -56.152  1.00  0.00    -0.102 SA
BRANCH  11  12
HETATM   12  C   UNL     1     -43.862  62.080 -55.701  1.00  0.00     0.183 C 
BRANCH  12  13
HETATM   13  C   UNL     1     -42.876  62.446 -56.796  1.00  0.00     0.227 C 
HETATM   14  N   UNL     1     -41.893  61.523 -57.067  1.00  0.00    -0.356 N 
HETATM   15  H   UNL     1     -41.634  60.893 -56.316  1.00  0.00     0.162 HD
HETATM   16  O   UNL     1     -43.029  63.469 -57.462  1.00  0.00    -0.273 OA
BRANCH  14  17
HETATM   17  C   UNL     1     -40.912  61.791 -58.096  1.00  0.00     0.161 C 
BRANCH  17  18
HETATM   18  C   UNL     1     -41.361  61.407 -59.484  1.00  0.00    -0.041 A 
HETATM   19  C   UNL     1     -41.197  62.249 -60.593  1.00  0.00     0.009 A 
HETATM   20  C   UNL     1     -41.585  61.833 -61.869  1.00  0.00     0.001 A 
HETATM   21  C   UNL     1     -42.119  60.560 -62.057  1.00  0.00     0.000 A 
HETATM   22  C   UNL     1     -42.264  59.701 -60.971  1.00  0.00     0.001 A 
HETATM   23  C   UNL     1     -41.886  60.121 -59.694  1.00  0.00     0.009 A 
ENDBRANCH  17  18
ENDBRANCH  14  17
ENDBRANCH  12  13
ENDBRANCH  11  12
ENDBRANCH   4  11
BRANCH   8  24
HETATM   24  C   UNL     1     -42.383  58.250 -52.616  1.00  0.00     0.066 A 
HETATM   25  O   UNL     1     -41.161  58.400 -53.203  1.00  0.00    -0.326 OA
HETATM   26  C   UNL     1     -40.295  58.776 -52.228  1.00  0.00     0.142 A 
HETATM   27  C   UNL     1     -40.944  58.877 -51.021  1.00  0.00     0.027 A 
HETATM   28  C   UNL     1     -42.297  58.539 -51.269  1.00  0.00     0.035 A 
ENDBRANCH   8  24
BRANCH   9  29
HETATM   29  C   UNL     1     -42.698  55.398 -54.101  1.00  0.00     0.255 C 
HETATM   30  N   UNL     1     -41.383  55.173 -53.746  1.00  0.00    -0.322 N 
HETATM   31  H   UNL     1     -40.698  55.917 -53.842  1.00  0.00     0.169 HD
HETATM   32  O   UNL     1     -43.572  54.539 -54.019  1.00  0.00    -0.268 OA
BRANCH  30  33
HETATM   33  C   UNL     1     -40.827  53.976 -53.212  1.00  0.00     0.057 A 
HETATM   34  C   UNL     1     -40.684  53.863 -51.813  1.00  0.00     0.062 A 
HETATM   35 CL   UNL     1     -41.197  55.134 -50.757  1.00  0.00    -0.082 Cl
HETATM   36  C   UNL     1     -40.156  52.709 -51.225  1.00  0.00     0.050 A 
HETATM   37  C   UNL     1     -39.756  51.651 -52.033  1.00  0.00     0.035 A 
HETATM   38 CL   UNL     1     -39.110  50.226 -51.321  1.00  0.00    -0.084 Cl
HETATM   39  C   UNL     1     -39.880  51.740 -53.415  1.00  0.00     0.026 A 
HETATM   40  C   UNL     1     -40.413  52.896 -54.000  1.00  0.00     0.033 A 
ENDBRANCH  30  33
ENDBRANCH   9  29
TORSDOF 8
ENDMDL
MODEL 10
REMARK VINA RESULT:      -7.6      2.944      6.912
REMARK  8 active torsions:
REMARK  status: ('A' for Active; 'I' for Inactive)
REMARK    1  A    between atoms: C_4  and  S_5 
REMARK    2  A    between atoms: S_5  and  C_6 
REMARK    3  A    between atoms: C_6  and  C_7 
REMARK       I    between atoms: C_7  and  N_8 
REMARK    4  A    between atoms: N_8  and  C_9 
REMARK    5  A    between atoms: C_9  and  C_10 
REMARK    6  A    between atoms: C_20  and  C_21 
REMARK    7  A    between atoms: C_26  and  C_27 
REMARK       I    between atoms: C_27  and  N_28 
REMARK    8  A    between atoms: N_28  and  C_29 
ROOT
HETATM    1  C   UNL     1     -44.323  57.269 -52.193  1.00  0.00     0.069 C 
HETATM    2  C   UNL     1     -43.706  57.825 -53.457  1.00  0.00     0.019 C 
HETATM    3  N   UNL     1     -43.930  59.180 -53.659  1.00  0.00    -0.353 N 
HETATM    4  C   UNL     1     -43.313  59.964 -54.618  1.00  0.00     0.088 C 
HETATM    5  C   UNL     1     -42.590  59.344 -55.583  1.00  0.00     0.071 C 
HETATM    6  C   UNL     1     -41.878  60.051 -56.602  1.00  0.00     0.099 C 
HETATM    7  N   UNL     1     -41.287  60.600 -57.435  1.00  0.00    -0.192 NA
HETATM    8  C   UNL     1     -42.483  57.813 -55.620  1.00  0.00     0.130 C 
HETATM    9  C   UNL     1     -42.973  57.113 -54.351  1.00  0.00     0.048 C 
HETATM   10  H   UNL     1     -44.293  59.676 -52.853  1.00  0.00     0.166 HD
ENDROOT
BRANCH   4  11
HETATM   11  S   UNL     1     -43.411  61.730 -54.598  1.00  0.00    -0.102 SA
BRANCH  11  12
HETATM   12  C   UNL     1     -44.686  62.052 -53.351  1.00  0.00     0.183 C 
BRANCH  12  13
HETATM   13  C   UNL     1     -44.123  62.420 -51.990  1.00  0.00     0.227 C 
HETATM   14  N   UNL     1     -44.386  61.547 -50.962  1.00  0.00    -0.356 N 
HETATM   15  H   UNL     1     -45.218  60.973 -51.047  1.00  0.00     0.162 HD
HETATM   16  O   UNL     1     -43.386  63.396 -51.859  1.00  0.00    -0.273 OA
BRANCH  14  17
HETATM   17  C   UNL     1     -43.886  61.820 -49.632  1.00  0.00     0.161 C 
BRANCH  17  18
HETATM   18  C   UNL     1     -44.952  61.824 -48.566  1.00  0.00    -0.041 A 
HETATM   19  C   UNL     1     -44.769  61.226 -47.310  1.00  0.00     0.009 A 
HETATM   20  C   UNL     1     -45.768  61.295 -46.336  1.00  0.00     0.001 A 
HETATM   21  C   UNL     1     -46.952  61.982 -46.594  1.00  0.00     0.000 A 
HETATM   22  C   UNL     1     -47.139  62.603 -47.825  1.00  0.00     0.001 A 
HETATM   23  C   UNL     1     -46.145  62.527 -48.804  1.00  0.00     0.009 A 
ENDBRANCH  17  18
ENDBRANCH  14  17
ENDBRANCH  12  13
ENDBRANCH  11  12
ENDBRANCH   4  11
BRANCH   8  24
HETATM   24  C   UNL     1     -43.140  57.243 -56.852  1.00  0.00     0.066 A 
HETATM   25  O   UNL     1     -44.286  57.860 -57.260  1.00  0.00    -0.326 OA
HETATM   26  C   UNL     1     -44.708  57.216 -58.378  1.00  0.00     0.142 A 
HETATM   27  C   UNL     1     -43.847  56.194 -58.699  1.00  0.00     0.027 A 
HETATM   28  C   UNL     1     -42.829  56.211 -57.714  1.00  0.00     0.035 A 
ENDBRANCH   8  24
BRANCH   9  29
HETATM   29  C   UNL     1     -42.603  55.667 -54.082  1.00  0.00     0.255 C 
HETATM   30  N   UNL     1     -41.380  55.435 -53.486  1.00  0.00    -0.322 N 
HETATM   31  H   UNL     1     -40.754  56.211 -53.296  1.00  0.00     0.169 HD
HETATM   32  O   UNL     1     -43.401  54.773 -54.348  1.00  0.00    -0.268 OA
BRANCH  30  33
HETATM   33  C   UNL     1     -40.854  54.183 -53.057  1.00  0.00     0.057 A 
HETATM   34  C   UNL     1     -40.728  53.944 -51.672  1.00  0.00     0.062 A 
HETATM   35 CL   UNL     1     -41.225  55.127 -50.511  1.00  0.00    -0.082 Cl
HETATM   36  C   UNL     1     -40.229  52.732 -51.185  1.00  0.00     0.050 A 
HETATM   37  C   UNL     1     -39.843  51.741 -52.080  1.00  0.00     0.035 A 
HETATM   38 CL   UNL     1     -39.233  50.245 -51.493  1.00  0.00    -0.084 Cl
HETATM   39  C   UNL     1     -39.952  51.955 -53.450  1.00  0.00     0.026 A 
HETATM   40  C   UNL     1     -40.454  53.169 -53.934  1.00  0.00     0.033 A 
ENDBRANCH  30  33
ENDBRANCH   9  29
TORSDOF 8
ENDMDL
