MODEL 1
REMARK VINA RESULT:      -8.7      0.000      0.000
REMARK  9 active torsions:
REMARK  status: ('A' for Active; 'I' for Inactive)
REMARK    1  A    between atoms: C_3  and  C_4 
REMARK    2  A    between atoms: C_4  and  C_5 
REMARK    3  A    between atoms: C_5  and  O_6 
REMARK    4  A    between atoms: C_16  and  O_17 
REMARK    5  A    between atoms: C_18  and  C_19 
REMARK    6  A    between atoms: C_19  and  N_20 
REMARK    7  A    between atoms: N_20  and  C_23 
REMARK    8  A    between atoms: N_26  and  C_28 
REMARK    9  A    between atoms: C_28  and  C_29 
ROOT
HETATM    1  C   UNL     1     -43.123  54.578 -56.307  1.00  0.00     0.050 C 
HETATM    2  C   UNL     1     -43.035  56.053 -56.607  1.00  0.00    -0.036 C 
HETATM    3  C   UNL     1     -42.861  56.555 -57.849  1.00  0.00     0.034 C 
HETATM    4  C   UNL     1     -42.665  58.013 -58.072  1.00  0.00     0.295 C 
HETATM    5  O   UNL     1     -42.664  58.502 -59.195  1.00  0.00    -0.259 OA
HETATM    6  O   UNL     1     -42.469  58.795 -56.950  1.00  0.00    -0.274 OA
HETATM    7  C   UNL     1     -42.799  58.336 -55.662  1.00  0.00     0.099 A 
HETATM    8  C   UNL     1     -43.135  56.993 -55.472  1.00  0.00     0.006 A 
HETATM    9  C   UNL     1     -42.845  59.298 -54.635  1.00  0.00     0.007 A 
HETATM   10  C   UNL     1     -42.449  60.726 -54.901  1.00  0.00     0.054 C 
HETATM   11  C   UNL     1     -43.324  58.881 -53.389  1.00  0.00     0.082 A 
HETATM   12  C   UNL     1     -43.721  57.551 -53.168  1.00  0.00     0.002 A 
HETATM   13  C   UNL     1     -43.597  56.613 -54.204  1.00  0.00     0.026 A 
ENDROOT
BRANCH  12  14
HETATM   14  C   UNL     1     -44.360  57.160 -51.866  1.00  0.00     0.274 C 
BRANCH  14  15
HETATM   15  N   UNL     1     -43.273  56.855 -50.871  1.00  0.00    -0.067 N 
HETATM   16  H   UNL     1     -42.395  57.150 -51.319  1.00  0.00     0.277 HD
HETATM   17  H   UNL     1     -43.394  57.564 -50.127  1.00  0.00     0.277 HD
BRANCH  15  18
HETATM   18  C   UNL     1     -43.173  55.511 -50.206  1.00  0.00     0.189 C 
HETATM   19  C   UNL     1     -43.677  54.335 -51.038  1.00  0.00     0.060 C 
HETATM   20  C   UNL     1     -42.651  53.685 -51.962  1.00  0.00     0.237 C 
HETATM   21  N   UNL     1     -41.477  54.594 -52.204  1.00  0.00    -0.067 N 
HETATM   22  H   UNL     1     -41.820  55.450 -52.664  1.00  0.00     0.280 HD
HETATM   23  C   UNL     1     -40.754  54.965 -50.934  1.00  0.00     0.237 C 
HETATM   24  C   UNL     1     -41.720  55.281 -49.787  1.00  0.00     0.060 C 
BRANCH  21  25
HETATM   25  C   UNL     1     -40.506  54.047 -53.276  1.00  0.00     0.273 C 
BRANCH  25  26
HETATM   26  C   UNL     1     -40.256  52.567 -53.251  1.00  0.00    -0.033 A 
HETATM   27  C   UNL     1     -39.716  51.967 -52.099  1.00  0.00     0.009 A 
HETATM   28  C   UNL     1     -39.437  50.602 -52.075  1.00  0.00     0.001 A 
HETATM   29  C   UNL     1     -39.695  49.819 -53.195  1.00  0.00     0.000 A 
HETATM   30  C   UNL     1     -40.243  50.396 -54.338  1.00  0.00     0.001 A 
HETATM   31  C   UNL     1     -40.528  51.763 -54.367  1.00  0.00     0.009 A 
ENDBRANCH  25  26
ENDBRANCH  21  25
ENDBRANCH  15  18
ENDBRANCH  14  15
ENDBRANCH  12  14
BRANCH  11  32
HETATM   32  O   UNL     1     -43.496  59.772 -52.350  1.00  0.00    -0.359 OA
HETATM   33  H   UNL     1     -44.383  59.563 -51.980  1.00  0.00     0.217 HD
ENDBRANCH  11  32
BRANCH   3  34
HETATM   34  C   UNL     1     -42.848  55.767 -59.141  1.00  0.00     0.156 C 
BRANCH  34  35
HETATM   35  C   UNL     1     -44.233  55.246 -59.472  1.00  0.00     0.262 C 
HETATM   36  O   UNL     1     -44.547  54.063 -59.498  1.00  0.00    -0.265 OA
BRANCH  35  37
HETATM   37  O   UNL     1     -45.072  56.297 -59.680  1.00  0.00    -0.326 OA
HETATM   38  C   UNL     1     -46.320  55.955 -60.285  1.00  0.00     0.213 C 
ENDBRANCH  35  37
ENDBRANCH  34  35
ENDBRANCH   3  34
TORSDOF 9
ENDMDL
MODEL 2
REMARK VINA RESULT:      -8.4      1.389      1.814
REMARK  9 active torsions:
REMARK  status: ('A' for Active; 'I' for Inactive)
REMARK    1  A    between atoms: C_3  and  C_4 
REMARK    2  A    between atoms: C_4  and  C_5 
REMARK    3  A    between atoms: C_5  and  O_6 
REMARK    4  A    between atoms: C_16  and  O_17 
REMARK    5  A    between atoms: C_18  and  C_19 
REMARK    6  A    between atoms: C_19  and  N_20 
REMARK    7  A    between atoms: N_20  and  C_23 
REMARK    8  A    between atoms: N_26  and  C_28 
REMARK    9  A    between atoms: C_28  and  C_29 
ROOT
HETATM    1  C   UNL     1     -42.344  55.246 -56.593  1.00  0.00     0.050 C 
HETATM    2  C   UNL     1     -42.971  56.588 -56.872  1.00  0.00    -0.036 C 
HETATM    3  C   UNL     1     -43.805  56.823 -57.909  1.00  0.00     0.034 C 
HETATM    4  C   UNL     1     -44.303  58.195 -58.204  1.00  0.00     0.295 C 
HETATM    5  O   UNL     1     -45.176  58.401 -59.037  1.00  0.00    -0.259 OA
HETATM    6  O   UNL     1     -43.721  59.233 -57.503  1.00  0.00    -0.274 OA
HETATM    7  C   UNL     1     -42.982  59.010 -56.328  1.00  0.00     0.099 A 
HETATM    8  C   UNL     1     -42.642  57.705 -55.962  1.00  0.00     0.006 A 
HETATM    9  C   UNL     1     -42.690  60.136 -55.534  1.00  0.00     0.007 A 
HETATM   10  C   UNL     1     -43.065  61.520 -55.996  1.00  0.00     0.054 C 
HETATM   11  C   UNL     1     -42.096  59.905 -54.290  1.00  0.00     0.082 A 
HETATM   12  C   UNL     1     -41.783  58.604 -53.860  1.00  0.00     0.002 A 
HETATM   13  C   UNL     1     -42.034  57.518 -54.713  1.00  0.00     0.026 A 
ENDROOT
BRANCH  12  14
HETATM   14  C   UNL     1     -41.273  58.370 -52.467  1.00  0.00     0.274 C 
BRANCH  14  15
HETATM   15  N   UNL     1     -41.377  56.902 -52.159  1.00  0.00    -0.067 N 
HETATM   16  H   UNL     1     -41.570  56.441 -53.059  1.00  0.00     0.277 HD
HETATM   17  H   UNL     1     -40.405  56.606 -51.962  1.00  0.00     0.277 HD
BRANCH  15  18
HETATM   18  C   UNL     1     -42.242  56.394 -51.039  1.00  0.00     0.189 C 
HETATM   19  C   UNL     1     -43.011  55.110 -51.343  1.00  0.00     0.060 C 
HETATM   20  C   UNL     1     -42.276  53.807 -51.043  1.00  0.00     0.237 C 
HETATM   21  N   UNL     1     -40.792  54.027 -50.927  1.00  0.00    -0.067 N 
HETATM   22  H   UNL     1     -40.446  54.386 -51.830  1.00  0.00     0.280 HD
HETATM   23  C   UNL     1     -40.431  54.999 -49.832  1.00  0.00     0.237 C 
HETATM   24  C   UNL     1     -41.371  56.209 -49.795  1.00  0.00     0.060 C 
BRANCH  21  25
HETATM   25  C   UNL     1     -39.997  52.708 -50.805  1.00  0.00     0.273 C 
BRANCH  25  26
HETATM   26  C   UNL     1     -39.942  51.850 -52.037  1.00  0.00    -0.033 A 
HETATM   27  C   UNL     1     -40.250  52.406 -53.292  1.00  0.00     0.009 A 
HETATM   28  C   UNL     1     -40.246  51.615 -54.438  1.00  0.00     0.001 A 
HETATM   29  C   UNL     1     -39.933  50.262 -54.350  1.00  0.00     0.000 A 
HETATM   30  C   UNL     1     -39.612  49.701 -53.117  1.00  0.00     0.001 A 
HETATM   31  C   UNL     1     -39.610  50.490 -51.964  1.00  0.00     0.009 A 
ENDBRANCH  25  26
ENDBRANCH  21  25
ENDBRANCH  15  18
ENDBRANCH  14  15
ENDBRANCH  12  14
BRANCH  11  32
HETATM   32  O   UNL     1     -41.860  60.936 -53.403  1.00  0.00    -0.359 OA
HETATM   33  H   UNL     1     -41.533  60.497 -52.585  1.00  0.00     0.217 HD
ENDBRANCH  11  32
BRANCH   3  34
HETATM   34  C   UNL     1     -44.345  55.793 -58.876  1.00  0.00     0.156 C 
BRANCH  34  35
HETATM   35  C   UNL     1     -43.572  55.817 -60.181  1.00  0.00     0.262 C 
HETATM   36  O   UNL     1     -42.400  56.154 -60.292  1.00  0.00    -0.265 OA
BRANCH  35  37
HETATM   37  O   UNL     1     -44.367  55.359 -61.185  1.00  0.00    -0.326 OA
HETATM   38  C   UNL     1     -45.766  55.565 -60.979  1.00  0.00     0.213 C 
ENDBRANCH  35  37
ENDBRANCH  34  35
ENDBRANCH   3  34
TORSDOF 9
ENDMDL
MODEL 3
REMARK VINA RESULT:      -8.4      3.502      7.746
REMARK  9 active torsions:
REMARK  status: ('A' for Active; 'I' for Inactive)
REMARK    1  A    between atoms: C_3  and  C_4 
REMARK    2  A    between atoms: C_4  and  C_5 
REMARK    3  A    between atoms: C_5  and  O_6 
REMARK    4  A    between atoms: C_16  and  O_17 
REMARK    5  A    between atoms: C_18  and  C_19 
REMARK    6  A    between atoms: C_19  and  N_20 
REMARK    7  A    between atoms: N_20  and  C_23 
REMARK    8  A    between atoms: N_26  and  C_28 
REMARK    9  A    between atoms: C_28  and  C_29 
ROOT
HETATM    1  C   UNL     1     -40.424  51.818 -54.399  1.00  0.00     0.050 C 
HETATM    2  C   UNL     1     -40.775  52.937 -53.451  1.00  0.00    -0.036 C 
HETATM    3  C   UNL     1     -40.254  53.058 -52.210  1.00  0.00     0.034 C 
HETATM    4  C   UNL     1     -40.724  54.115 -51.275  1.00  0.00     0.295 C 
HETATM    5  O   UNL     1     -40.158  54.338 -50.213  1.00  0.00    -0.259 OA
HETATM    6  O   UNL     1     -41.843  54.830 -51.654  1.00  0.00    -0.274 OA
HETATM    7  C   UNL     1     -42.301  54.837 -52.984  1.00  0.00     0.099 A 
HETATM    8  C   UNL     1     -41.752  53.946 -53.909  1.00  0.00     0.006 A 
HETATM    9  C   UNL     1     -43.253  55.817 -53.325  1.00  0.00     0.007 A 
HETATM   10  C   UNL     1     -43.823  56.734 -52.275  1.00  0.00     0.054 C 
HETATM   11  C   UNL     1     -43.595  55.934 -54.676  1.00  0.00     0.082 A 
HETATM   12  C   UNL     1     -43.029  55.091 -55.648  1.00  0.00     0.002 A 
HETATM   13  C   UNL     1     -42.133  54.086 -55.251  1.00  0.00     0.026 A 
ENDROOT
BRANCH  12  14
HETATM   14  C   UNL     1     -43.306  55.325 -57.105  1.00  0.00     0.274 C 
BRANCH  14  15
HETATM   15  N   UNL     1     -42.412  56.432 -57.591  1.00  0.00    -0.067 N 
HETATM   16  H   UNL     1     -41.968  56.822 -56.749  1.00  0.00     0.277 HD
HETATM   17  H   UNL     1     -41.624  55.947 -58.055  1.00  0.00     0.277 HD
BRANCH  15  18
HETATM   18  C   UNL     1     -42.913  57.488 -58.536  1.00  0.00     0.189 C 
HETATM   19  C   UNL     1     -44.290  58.057 -58.203  1.00  0.00     0.060 C 
HETATM   20  C   UNL     1     -44.306  59.247 -57.248  1.00  0.00     0.237 C 
HETATM   21  N   UNL     1     -43.018  59.349 -56.477  1.00  0.00    -0.067 N 
HETATM   22  H   UNL     1     -42.908  58.493 -55.915  1.00  0.00     0.280 HD
HETATM   23  C   UNL     1     -41.815  59.518 -57.371  1.00  0.00     0.237 C 
HETATM   24  C   UNL     1     -41.878  58.612 -58.606  1.00  0.00     0.060 C 
BRANCH  21  25
HETATM   25  C   UNL     1     -43.064  60.429 -55.372  1.00  0.00     0.273 C 
BRANCH  25  26
HETATM   26  C   UNL     1     -42.393  60.078 -54.074  1.00  0.00    -0.033 A 
HETATM   27  C   UNL     1     -41.381  59.101 -54.051  1.00  0.00     0.009 A 
HETATM   28  C   UNL     1     -40.779  58.733 -52.850  1.00  0.00     0.001 A 
HETATM   29  C   UNL     1     -41.174  59.335 -51.659  1.00  0.00     0.000 A 
HETATM   30  C   UNL     1     -42.165  60.314 -51.669  1.00  0.00     0.001 A 
HETATM   31  C   UNL     1     -42.769  60.690 -52.870  1.00  0.00     0.009 A 
ENDBRANCH  25  26
ENDBRANCH  21  25
ENDBRANCH  15  18
ENDBRANCH  14  15
ENDBRANCH  12  14
BRANCH  11  32
HETATM   32  O   UNL     1     -44.445  56.927 -55.119  1.00  0.00    -0.359 OA
HETATM   33  H   UNL     1     -45.350  56.577 -54.954  1.00  0.00     0.217 HD
ENDBRANCH  11  32
BRANCH   3  34
HETATM   34  C   UNL     1     -39.166  52.196 -51.608  1.00  0.00     0.156 C 
BRANCH  34  35
HETATM   35  C   UNL     1     -39.761  51.027 -50.846  1.00  0.00     0.262 C 
HETATM   36  O   UNL     1     -40.690  51.110 -50.053  1.00  0.00    -0.265 OA
BRANCH  35  37
HETATM   37  O   UNL     1     -39.136  49.879 -51.223  1.00  0.00    -0.326 OA
HETATM   38  C   UNL     1     -39.603  49.323 -52.454  1.00  0.00     0.213 C 
ENDBRANCH  35  37
ENDBRANCH  34  35
ENDBRANCH   3  34
TORSDOF 9
ENDMDL
MODEL 4
REMARK VINA RESULT:      -8.0      2.116      4.060
REMARK  9 active torsions:
REMARK  status: ('A' for Active; 'I' for Inactive)
REMARK    1  A    between atoms: C_3  and  C_4 
REMARK    2  A    between atoms: C_4  and  C_5 
REMARK    3  A    between atoms: C_5  and  O_6 
REMARK    4  A    between atoms: C_16  and  O_17 
REMARK    5  A    between atoms: C_18  and  C_19 
REMARK    6  A    between atoms: C_19  and  N_20 
REMARK    7  A    between atoms: N_20  and  C_23 
REMARK    8  A    between atoms: N_26  and  C_28 
REMARK    9  A    between atoms: C_28  and  C_29 
ROOT
HETATM    1  C   UNL     1     -42.034  60.310 -56.173  1.00  0.00     0.050 C 
HETATM    2  C   UNL     1     -42.149  59.392 -57.364  1.00  0.00    -0.036 C 
HETATM    3  C   UNL     1     -41.909  59.781 -58.635  1.00  0.00     0.034 C 
HETATM    4  C   UNL     1     -42.150  58.864 -59.782  1.00  0.00     0.295 C 
HETATM    5  O   UNL     1     -41.793  59.143 -60.919  1.00  0.00    -0.259 OA
HETATM    6  O   UNL     1     -42.813  57.684 -59.508  1.00  0.00    -0.274 OA
HETATM    7  C   UNL     1     -42.929  57.188 -58.197  1.00  0.00     0.099 A 
HETATM    8  C   UNL     1     -42.557  57.993 -57.117  1.00  0.00     0.006 A 
HETATM    9  C   UNL     1     -43.350  55.852 -58.056  1.00  0.00     0.007 A 
HETATM   10  C   UNL     1     -43.760  55.043 -59.258  1.00  0.00     0.054 C 
HETATM   11  C   UNL     1     -43.317  55.303 -56.770  1.00  0.00     0.082 A 
HETATM   12  C   UNL     1     -42.901  56.062 -55.663  1.00  0.00     0.002 A 
HETATM   13  C   UNL     1     -42.551  57.409 -55.843  1.00  0.00     0.026 A 
ENDROOT
BRANCH  12  14
HETATM   14  C   UNL     1     -42.742  55.412 -54.318  1.00  0.00     0.274 C 
BRANCH  14  15
HETATM   15  N   UNL     1     -42.653  56.490 -53.273  1.00  0.00    -0.067 N 
HETATM   16  H   UNL     1     -41.698  56.866 -53.340  1.00  0.00     0.277 HD
HETATM   17  H   UNL     1     -43.226  57.266 -53.648  1.00  0.00     0.277 HD
BRANCH  15  18
HETATM   18  C   UNL     1     -43.093  56.247 -51.856  1.00  0.00     0.189 C 
HETATM   19  C   UNL     1     -43.536  54.818 -51.549  1.00  0.00     0.060 C 
HETATM   20  C   UNL     1     -42.434  53.857 -51.117  1.00  0.00     0.237 C 
HETATM   21  N   UNL     1     -41.074  54.373 -51.499  1.00  0.00    -0.067 N 
HETATM   22  H   UNL     1     -41.036  54.457 -52.526  1.00  0.00     0.280 HD
HETATM   23  C   UNL     1     -40.761  55.711 -50.877  1.00  0.00     0.237 C 
HETATM   24  C   UNL     1     -41.960  56.664 -50.916  1.00  0.00     0.060 C 
BRANCH  21  25
HETATM   25  C   UNL     1     -39.947  53.346 -51.243  1.00  0.00     0.273 C 
BRANCH  25  26
HETATM   26  C   UNL     1     -39.930  52.142 -52.140  1.00  0.00    -0.033 A 
HETATM   27  C   UNL     1     -39.579  50.884 -51.618  1.00  0.00     0.009 A 
HETATM   28  C   UNL     1     -39.516  49.765 -52.446  1.00  0.00     0.001 A 
HETATM   29  C   UNL     1     -39.805  49.884 -53.801  1.00  0.00     0.000 A 
HETATM   30  C   UNL     1     -40.170  51.120 -54.330  1.00  0.00     0.001 A 
HETATM   31  C   UNL     1     -40.238  52.245 -53.504  1.00  0.00     0.009 A 
ENDBRANCH  25  26
ENDBRANCH  21  25
ENDBRANCH  15  18
ENDBRANCH  14  15
ENDBRANCH  12  14
BRANCH  11  32
HETATM   32  O   UNL     1     -43.620  53.975 -56.547  1.00  0.00    -0.359 OA
HETATM   33  H   UNL     1     -43.544  53.546 -57.430  1.00  0.00     0.217 HD
ENDBRANCH  11  32
BRANCH   3  34
HETATM   34  C   UNL     1     -41.378  61.128 -59.074  1.00  0.00     0.156 C 
BRANCH  34  35
HETATM   35  C   UNL     1     -42.515  62.098 -59.339  1.00  0.00     0.262 C 
HETATM   36  O   UNL     1     -43.172  62.656 -58.471  1.00  0.00    -0.265 OA
BRANCH  35  37
HETATM   37  O   UNL     1     -42.646  62.283 -60.680  1.00  0.00    -0.326 OA
HETATM   38  C   UNL     1     -41.453  62.704 -61.344  1.00  0.00     0.213 C 
ENDBRANCH  35  37
ENDBRANCH  34  35
ENDBRANCH   3  34
TORSDOF 9
ENDMDL
MODEL 5
REMARK VINA RESULT:      -7.9      4.059      8.628
REMARK  9 active torsions:
REMARK  status: ('A' for Active; 'I' for Inactive)
REMARK    1  A    between atoms: C_3  and  C_4 
REMARK    2  A    between atoms: C_4  and  C_5 
REMARK    3  A    between atoms: C_5  and  O_6 
REMARK    4  A    between atoms: C_16  and  O_17 
REMARK    5  A    between atoms: C_18  and  C_19 
REMARK    6  A    between atoms: C_19  and  N_20 
REMARK    7  A    between atoms: N_20  and  C_23 
REMARK    8  A    between atoms: N_26  and  C_28 
REMARK    9  A    between atoms: C_28  and  C_29 
ROOT
HETATM    1  C   UNL     1     -40.040  53.210 -54.989  1.00  0.00     0.050 C 
HETATM    2  C   UNL     1     -40.579  53.650 -53.651  1.00  0.00    -0.036 C 
HETATM    3  C   UNL     1     -40.213  53.093 -52.476  1.00  0.00     0.034 C 
HETATM    4  C   UNL     1     -40.864  53.488 -51.198  1.00  0.00     0.295 C 
HETATM    5  O   UNL     1     -40.441  53.111 -50.113  1.00  0.00    -0.259 OA
HETATM    6  O   UNL     1     -41.983  54.293 -51.290  1.00  0.00    -0.274 OA
HETATM    7  C   UNL     1     -42.285  55.007 -52.464  1.00  0.00     0.099 A 
HETATM    8  C   UNL     1     -41.569  54.747 -53.635  1.00  0.00     0.006 A 
HETATM    9  C   UNL     1     -43.261  56.017 -52.362  1.00  0.00     0.007 A 
HETATM   10  C   UNL     1     -44.014  56.232 -51.076  1.00  0.00     0.054 C 
HETATM   11  C   UNL     1     -43.454  56.835 -53.480  1.00  0.00     0.082 A 
HETATM   12  C   UNL     1     -42.720  56.640 -54.662  1.00  0.00     0.002 A 
HETATM   13  C   UNL     1     -41.803  55.580 -54.738  1.00  0.00     0.026 A 
ENDROOT
BRANCH  12  14
HETATM   14  C   UNL     1     -42.845  57.615 -55.798  1.00  0.00     0.274 C 
BRANCH  14  15
HETATM   15  N   UNL     1     -42.368  56.946 -57.058  1.00  0.00    -0.067 N 
HETATM   16  H   UNL     1     -41.674  57.585 -57.467  1.00  0.00     0.277 HD
HETATM   17  H   UNL     1     -41.781  56.159 -56.730  1.00  0.00     0.277 HD
BRANCH  15  18
HETATM   18  C   UNL     1     -43.335  56.399 -58.071  1.00  0.00     0.189 C 
HETATM   19  C   UNL     1     -44.557  57.273 -58.340  1.00  0.00     0.060 C 
HETATM   20  C   UNL     1     -44.393  58.332 -59.426  1.00  0.00     0.237 C 
HETATM   21  N   UNL     1     -42.941  58.607 -59.710  1.00  0.00    -0.067 N 
HETATM   22  H   UNL     1     -42.504  58.966 -58.848  1.00  0.00     0.280 HD
HETATM   23  C   UNL     1     -42.196  57.380 -60.174  1.00  0.00     0.237 C 
HETATM   24  C   UNL     1     -42.578  56.131 -59.373  1.00  0.00     0.060 C 
BRANCH  21  25
HETATM   25  C   UNL     1     -42.732  59.800 -60.670  1.00  0.00     0.273 C 
BRANCH  25  26
HETATM   26  C   UNL     1     -41.796  60.875 -60.198  1.00  0.00    -0.033 A 
HETATM   27  C   UNL     1     -41.202  61.745 -61.130  1.00  0.00     0.009 A 
HETATM   28  C   UNL     1     -40.297  62.720 -60.713  1.00  0.00     0.001 A 
HETATM   29  C   UNL     1     -39.978  62.842 -59.365  1.00  0.00     0.000 A 
HETATM   30  C   UNL     1     -40.570  61.998 -58.429  1.00  0.00     0.001 A 
HETATM   31  C   UNL     1     -41.480  61.021 -58.840  1.00  0.00     0.009 A 
ENDBRANCH  25  26
ENDBRANCH  21  25
ENDBRANCH  15  18
ENDBRANCH  14  15
ENDBRANCH  12  14
BRANCH  11  32
HETATM   32  O   UNL     1     -44.319  57.910 -53.443  1.00  0.00    -0.359 OA
HETATM   33  H   UNL     1     -44.789  57.886 -54.308  1.00  0.00     0.217 HD
ENDBRANCH  11  32
BRANCH   3  34
HETATM   34  C   UNL     1     -39.141  52.044 -52.278  1.00  0.00     0.156 C 
BRANCH  34  35
HETATM   35  C   UNL     1     -39.752  50.663 -52.139  1.00  0.00     0.262 C 
HETATM   36  O   UNL     1     -39.786  50.015 -51.100  1.00  0.00    -0.265 OA
BRANCH  35  37
HETATM   37  O   UNL     1     -40.298  50.290 -53.328  1.00  0.00    -0.326 OA
HETATM   38  C   UNL     1     -39.369  49.748 -54.268  1.00  0.00     0.213 C 
ENDBRANCH  35  37
ENDBRANCH  34  35
ENDBRANCH   3  34
TORSDOF 9
ENDMDL
MODEL 6
REMARK VINA RESULT:      -7.9      3.226      8.332
REMARK  9 active torsions:
REMARK  status: ('A' for Active; 'I' for Inactive)
REMARK    1  A    between atoms: C_3  and  C_4 
REMARK    2  A    between atoms: C_4  and  C_5 
REMARK    3  A    between atoms: C_5  and  O_6 
REMARK    4  A    between atoms: C_16  and  O_17 
REMARK    5  A    between atoms: C_18  and  C_19 
REMARK    6  A    between atoms: C_19  and  N_20 
REMARK    7  A    between atoms: N_20  and  C_23 
REMARK    8  A    between atoms: N_26  and  C_28 
REMARK    9  A    between atoms: C_28  and  C_29 
ROOT
HETATM    1  C   UNL     1     -40.581  52.718 -53.261  1.00  0.00     0.050 C 
HETATM    2  C   UNL     1     -41.137  54.013 -52.724  1.00  0.00    -0.036 C 
HETATM    3  C   UNL     1     -40.854  54.497 -51.495  1.00  0.00     0.034 C 
HETATM    4  C   UNL     1     -41.522  55.720 -50.974  1.00  0.00     0.295 C 
HETATM    5  O   UNL     1     -41.165  56.259 -49.934  1.00  0.00    -0.259 OA
HETATM    6  O   UNL     1     -42.579  56.216 -51.712  1.00  0.00    -0.274 OA
HETATM    7  C   UNL     1     -42.788  55.838 -53.050  1.00  0.00     0.099 A 
HETATM    8  C   UNL     1     -42.050  54.783 -53.594  1.00  0.00     0.006 A 
HETATM    9  C   UNL     1     -43.696  56.612 -53.798  1.00  0.00     0.007 A 
HETATM   10  C   UNL     1     -44.478  57.722 -53.146  1.00  0.00     0.054 C 
HETATM   11  C   UNL     1     -43.792  56.342 -55.167  1.00  0.00     0.082 A 
HETATM   12  C   UNL     1     -43.030  55.324 -55.765  1.00  0.00     0.002 A 
HETATM   13  C   UNL     1     -42.186  54.536 -54.967  1.00  0.00     0.026 A 
ENDROOT
BRANCH  12  14
HETATM   14  C   UNL     1     -43.047  55.145 -57.256  1.00  0.00     0.274 C 
BRANCH  14  15
HETATM   15  N   UNL     1     -42.314  56.297 -57.886  1.00  0.00    -0.067 N 
HETATM   16  H   UNL     1     -42.241  57.015 -57.152  1.00  0.00     0.277 HD
HETATM   17  H   UNL     1     -41.337  55.969 -57.975  1.00  0.00     0.277 HD
BRANCH  15  18
HETATM   18  C   UNL     1     -42.729  56.857 -59.218  1.00  0.00     0.189 C 
HETATM   19  C   UNL     1     -44.201  57.248 -59.329  1.00  0.00     0.060 C 
HETATM   20  C   UNL     1     -44.546  58.670 -58.896  1.00  0.00     0.237 C 
HETATM   21  N   UNL     1     -43.463  59.260 -58.036  1.00  0.00    -0.067 N 
HETATM   22  H   UNL     1     -43.373  58.683 -57.186  1.00  0.00     0.280 HD
HETATM   23  C   UNL     1     -42.130  59.325 -58.738  1.00  0.00     0.237 C 
HETATM   24  C   UNL     1     -41.836  58.055 -59.543  1.00  0.00     0.060 C 
BRANCH  21  25
HETATM   25  C   UNL     1     -43.856  60.626 -57.428  1.00  0.00     0.273 C 
BRANCH  25  26
HETATM   26  C   UNL     1     -43.485  60.844 -55.989  1.00  0.00    -0.033 A 
HETATM   27  C   UNL     1     -44.092  61.882 -55.259  1.00  0.00     0.009 A 
HETATM   28  C   UNL     1     -43.727  62.125 -53.937  1.00  0.00     0.001 A 
HETATM   29  C   UNL     1     -42.758  61.337 -53.325  1.00  0.00     0.000 A 
HETATM   30  C   UNL     1     -42.160  60.296 -54.031  1.00  0.00     0.001 A 
HETATM   31  C   UNL     1     -42.523  60.045 -55.355  1.00  0.00     0.009 A 
ENDBRANCH  25  26
ENDBRANCH  21  25
ENDBRANCH  15  18
ENDBRANCH  14  15
ENDBRANCH  12  14
BRANCH  11  32
HETATM   32  O   UNL     1     -44.582  57.111 -55.997  1.00  0.00    -0.359 OA
HETATM   33  H   UNL     1     -44.280  56.891 -56.908  1.00  0.00     0.217 HD
ENDBRANCH  11  32
BRANCH   3  34
HETATM   34  C   UNL     1     -39.863  53.916 -50.510  1.00  0.00     0.156 C 
BRANCH  34  35
HETATM   35  C   UNL     1     -40.481  52.767 -49.736  1.00  0.00     0.262 C 
HETATM   36  O   UNL     1     -40.414  51.589 -50.063  1.00  0.00    -0.265 OA
BRANCH  35  37
HETATM   37  O   UNL     1     -41.067  53.248 -48.606  1.00  0.00    -0.326 OA
HETATM   38  C   UNL     1     -40.170  53.880 -47.691  1.00  0.00     0.213 C 
ENDBRANCH  35  37
ENDBRANCH  34  35
ENDBRANCH   3  34
TORSDOF 9
ENDMDL
MODEL 7
REMARK VINA RESULT:      -7.4      3.254      7.694
REMARK  9 active torsions:
REMARK  status: ('A' for Active; 'I' for Inactive)
REMARK    1  A    between atoms: C_3  and  C_4 
REMARK    2  A    between atoms: C_4  and  C_5 
REMARK    3  A    between atoms: C_5  and  O_6 
REMARK    4  A    between atoms: C_16  and  O_17 
REMARK    5  A    between atoms: C_18  and  C_19 
REMARK    6  A    between atoms: C_19  and  N_20 
REMARK    7  A    between atoms: N_20  and  C_23 
REMARK    8  A    between atoms: N_26  and  C_28 
REMARK    9  A    between atoms: C_28  and  C_29 
ROOT
HETATM    1  C   UNL     1     -44.535  57.637 -51.295  1.00  0.00     0.050 C 
HETATM    2  C   UNL     1     -43.925  56.638 -52.247  1.00  0.00    -0.036 C 
HETATM    3  C   UNL     1     -43.321  55.497 -51.849  1.00  0.00     0.034 C 
HETATM    4  C   UNL     1     -42.635  54.607 -52.823  1.00  0.00     0.295 C 
HETATM    5  O   UNL     1     -42.221  53.499 -52.507  1.00  0.00    -0.259 OA
HETATM    6  O   UNL     1     -42.470  55.094 -54.105  1.00  0.00    -0.274 OA
HETATM    7  C   UNL     1     -43.215  56.188 -54.582  1.00  0.00     0.099 A 
HETATM    8  C   UNL     1     -43.987  56.939 -53.692  1.00  0.00     0.006 A 
HETATM    9  C   UNL     1     -43.196  56.416 -55.971  1.00  0.00     0.007 A 
HETATM   10  C   UNL     1     -42.324  55.584 -56.875  1.00  0.00     0.054 C 
HETATM   11  C   UNL     1     -44.055  57.399 -56.470  1.00  0.00     0.082 A 
HETATM   12  C   UNL     1     -44.887  58.144 -55.616  1.00  0.00     0.002 A 
HETATM   13  C   UNL     1     -44.824  57.925 -54.231  1.00  0.00     0.026 A 
ENDROOT
BRANCH  12  14
HETATM   14  C   UNL     1     -45.898  59.096 -56.188  1.00  0.00     0.274 C 
BRANCH  14  15
HETATM   15  N   UNL     1     -45.169  60.261 -56.797  1.00  0.00    -0.067 N 
HETATM   16  H   UNL     1     -44.171  60.093 -56.612  1.00  0.00     0.277 HD
HETATM   17  H   UNL     1     -45.236  60.107 -57.818  1.00  0.00     0.277 HD
BRANCH  15  18
HETATM   18  C   UNL     1     -45.588  61.679 -56.524  1.00  0.00     0.189 C 
HETATM   19  C   UNL     1     -46.412  61.880 -55.255  1.00  0.00     0.060 C 
HETATM   20  C   UNL     1     -45.616  62.125 -53.976  1.00  0.00     0.237 C 
HETATM   21  N   UNL     1     -44.186  61.685 -54.127  1.00  0.00    -0.067 N 
HETATM   22  H   UNL     1     -44.177  60.671 -54.317  1.00  0.00     0.280 HD
HETATM   23  C   UNL     1     -43.467  62.407 -55.239  1.00  0.00     0.237 C 
HETATM   24  C   UNL     1     -44.338  62.560 -56.491  1.00  0.00     0.060 C 
BRANCH  21  25
HETATM   25  C   UNL     1     -43.395  61.747 -52.801  1.00  0.00     0.273 C 
BRANCH  25  26
HETATM   26  C   UNL     1     -42.407  60.640 -52.564  1.00  0.00    -0.033 A 
HETATM   27  C   UNL     1     -42.024  60.312 -51.251  1.00  0.00     0.009 A 
HETATM   28  C   UNL     1     -41.077  59.318 -51.017  1.00  0.00     0.001 A 
HETATM   29  C   UNL     1     -40.503  58.637 -52.085  1.00  0.00     0.000 A 
HETATM   30  C   UNL     1     -40.884  58.940 -53.390  1.00  0.00     0.001 A 
HETATM   31  C   UNL     1     -41.836  59.933 -53.632  1.00  0.00     0.009 A 
ENDBRANCH  25  26
ENDBRANCH  21  25
ENDBRANCH  15  18
ENDBRANCH  14  15
ENDBRANCH  12  14
BRANCH  11  32
HETATM   32  O   UNL     1     -44.176  57.628 -57.826  1.00  0.00    -0.359 OA
HETATM   33  H   UNL     1     -45.075  57.302 -58.059  1.00  0.00     0.217 HD
ENDBRANCH  11  32
BRANCH   3  34
HETATM   34  C   UNL     1     -43.256  54.964 -50.434  1.00  0.00     0.156 C 
BRANCH  34  35
HETATM   35  C   UNL     1     -41.874  55.167 -49.843  1.00  0.00     0.262 C 
HETATM   36  O   UNL     1     -41.106  56.069 -50.154  1.00  0.00    -0.265 OA
BRANCH  35  37
HETATM   37  O   UNL     1     -41.651  54.226 -48.885  1.00  0.00    -0.326 OA
HETATM   38  C   UNL     1     -40.291  54.117 -48.461  1.00  0.00     0.213 C 
ENDBRANCH  35  37
ENDBRANCH  34  35
ENDBRANCH   3  34
TORSDOF 9
ENDMDL
MODEL 8
REMARK VINA RESULT:      -7.3      3.932      8.955
REMARK  9 active torsions:
REMARK  status: ('A' for Active; 'I' for Inactive)
REMARK    1  A    between atoms: C_3  and  C_4 
REMARK    2  A    between atoms: C_4  and  C_5 
REMARK    3  A    between atoms: C_5  and  O_6 
REMARK    4  A    between atoms: C_16  and  O_17 
REMARK    5  A    between atoms: C_18  and  C_19 
REMARK    6  A    between atoms: C_19  and  N_20 
REMARK    7  A    between atoms: N_20  and  C_23 
REMARK    8  A    between atoms: N_26  and  C_28 
REMARK    9  A    between atoms: C_28  and  C_29 
ROOT
HETATM    1  C   UNL     1     -40.112  52.869 -54.226  1.00  0.00     0.050 C 
HETATM    2  C   UNL     1     -40.784  53.873 -53.323  1.00  0.00    -0.036 C 
HETATM    3  C   UNL     1     -40.559  53.952 -51.993  1.00  0.00     0.034 C 
HETATM    4  C   UNL     1     -41.336  54.885 -51.132  1.00  0.00     0.295 C 
HETATM    5  O   UNL     1     -41.040  55.082 -49.961  1.00  0.00    -0.259 OA
HETATM    6  O   UNL     1     -42.422  55.511 -51.713  1.00  0.00    -0.274 OA
HETATM    7  C   UNL     1     -42.581  55.572 -53.109  1.00  0.00     0.099 A 
HETATM    8  C   UNL     1     -41.748  54.811 -53.934  1.00  0.00     0.006 A 
HETATM    9  C   UNL     1     -43.542  56.475 -53.602  1.00  0.00     0.007 A 
HETATM   10  C   UNL     1     -44.425  57.249 -52.660  1.00  0.00     0.054 C 
HETATM   11  C   UNL     1     -43.596  56.657 -54.988  1.00  0.00     0.082 A 
HETATM   12  C   UNL     1     -42.743  55.950 -55.851  1.00  0.00     0.002 A 
HETATM   13  C   UNL     1     -41.845  55.013 -55.318  1.00  0.00     0.026 A 
ENDROOT
BRANCH  12  14
HETATM   14  C   UNL     1     -42.725  56.264 -57.320  1.00  0.00     0.274 C 
BRANCH  14  15
HETATM   15  N   UNL     1     -43.837  55.501 -57.986  1.00  0.00    -0.067 N 
HETATM   16  H   UNL     1     -44.029  54.697 -57.374  1.00  0.00     0.277 HD
HETATM   17  H   UNL     1     -44.676  56.091 -57.850  1.00  0.00     0.277 HD
BRANCH  15  18
HETATM   18  C   UNL     1     -43.773  55.131 -59.442  1.00  0.00     0.189 C 
HETATM   19  C   UNL     1     -45.062  54.556 -60.023  1.00  0.00     0.060 C 
HETATM   20  C   UNL     1     -46.056  55.573 -60.575  1.00  0.00     0.237 C 
HETATM   21  N   UNL     1     -45.780  56.954 -60.044  1.00  0.00    -0.067 N 
HETATM   22  H   UNL     1     -45.883  56.934 -59.019  1.00  0.00     0.280 HD
HETATM   23  C   UNL     1     -44.400  57.449 -60.398  1.00  0.00     0.237 C 
HETATM   24  C   UNL     1     -43.334  56.360 -60.239  1.00  0.00     0.060 C 
BRANCH  21  25
HETATM   25  C   UNL     1     -46.872  57.976 -60.434  1.00  0.00     0.273 C 
BRANCH  25  26
HETATM   26  C   UNL     1     -47.137  59.073 -59.443  1.00  0.00    -0.033 A 
HETATM   27  C   UNL     1     -46.471  59.074 -58.204  1.00  0.00     0.009 A 
HETATM   28  C   UNL     1     -46.738  60.059 -57.256  1.00  0.00     0.001 A 
HETATM   29  C   UNL     1     -47.668  61.056 -57.531  1.00  0.00     0.000 A 
HETATM   30  C   UNL     1     -48.324  61.077 -58.759  1.00  0.00     0.001 A 
HETATM   31  C   UNL     1     -48.058  60.095 -59.715  1.00  0.00     0.009 A 
ENDBRANCH  25  26
ENDBRANCH  21  25
ENDBRANCH  15  18
ENDBRANCH  14  15
ENDBRANCH  12  14
BRANCH  11  32
HETATM   32  O   UNL     1     -44.439  57.591 -55.557  1.00  0.00    -0.359 OA
HETATM   33  H   UNL     1     -45.123  57.766 -54.872  1.00  0.00     0.217 HD
ENDBRANCH  11  32
BRANCH   3  34
HETATM   34  C   UNL     1     -39.535  53.161 -51.209  1.00  0.00     0.156 C 
BRANCH  34  35
HETATM   35  C   UNL     1     -40.141  51.882 -50.663  1.00  0.00     0.262 C 
HETATM   36  O   UNL     1     -40.737  51.791 -49.597  1.00  0.00    -0.265 OA
BRANCH  35  37
HETATM   37  O   UNL     1     -39.964  50.878 -51.564  1.00  0.00    -0.326 OA
HETATM   38  C   UNL     1     -39.311  49.718 -51.045  1.00  0.00     0.213 C 
ENDBRANCH  35  37
ENDBRANCH  34  35
ENDBRANCH   3  34
TORSDOF 9
ENDMDL
MODEL 9
REMARK VINA RESULT:      -7.3      5.188      8.632
REMARK  9 active torsions:
REMARK  status: ('A' for Active; 'I' for Inactive)
REMARK    1  A    between atoms: C_3  and  C_4 
REMARK    2  A    between atoms: C_4  and  C_5 
REMARK    3  A    between atoms: C_5  and  O_6 
REMARK    4  A    between atoms: C_16  and  O_17 
REMARK    5  A    between atoms: C_18  and  C_19 
REMARK    6  A    between atoms: C_19  and  N_20 
REMARK    7  A    between atoms: N_20  and  C_23 
REMARK    8  A    between atoms: N_26  and  C_28 
REMARK    9  A    between atoms: C_28  and  C_29 
ROOT
HETATM    1  C   UNL     1     -41.003  55.411 -50.704  1.00  0.00     0.050 C 
HETATM    2  C   UNL     1     -41.448  55.794 -52.093  1.00  0.00    -0.036 C 
HETATM    3  C   UNL     1     -41.708  54.897 -53.069  1.00  0.00     0.034 C 
HETATM    4  C   UNL     1     -42.031  55.335 -54.454  1.00  0.00     0.295 C 
HETATM    5  O   UNL     1     -42.421  54.548 -55.308  1.00  0.00    -0.259 OA
HETATM    6  O   UNL     1     -41.857  56.675 -54.741  1.00  0.00    -0.274 OA
HETATM    7  C   UNL     1     -41.746  57.640 -53.724  1.00  0.00     0.099 A 
HETATM    8  C   UNL     1     -41.596  57.232 -52.397  1.00  0.00     0.006 A 
HETATM    9  C   UNL     1     -41.873  58.989 -54.109  1.00  0.00     0.007 A 
HETATM   10  C   UNL     1     -42.010  59.365 -55.561  1.00  0.00     0.054 C 
HETATM   11  C   UNL     1     -41.922  59.943 -53.088  1.00  0.00     0.082 A 
HETATM   12  C   UNL     1     -41.825  59.572 -51.736  1.00  0.00     0.002 A 
HETATM   13  C   UNL     1     -41.635  58.221 -51.405  1.00  0.00     0.026 A 
ENDROOT
BRANCH  12  14
HETATM   14  C   UNL     1     -42.018  60.597 -50.655  1.00  0.00     0.274 C 
BRANCH  14  15
HETATM   15  N   UNL     1     -43.493  60.802 -50.447  1.00  0.00    -0.067 N 
HETATM   16  H   UNL     1     -43.940  59.921 -50.734  1.00  0.00     0.277 HD
HETATM   17  H   UNL     1     -43.616  60.791 -49.420  1.00  0.00     0.277 HD
BRANCH  15  18
HETATM   18  C   UNL     1     -44.199  62.019 -50.977  1.00  0.00     0.189 C 
HETATM   19  C   UNL     1     -45.721  61.916 -51.030  1.00  0.00     0.060 C 
HETATM   20  C   UNL     1     -46.461  62.335 -49.763  1.00  0.00     0.237 C 
HETATM   21  N   UNL     1     -45.545  62.346 -48.570  1.00  0.00    -0.067 N 
HETATM   22  H   UNL     1     -45.189  61.390 -48.427  1.00  0.00     0.280 HD
HETATM   23  C   UNL     1     -44.383  63.293 -48.735  1.00  0.00     0.237 C 
HETATM   24  C   UNL     1     -43.778  63.229 -50.142  1.00  0.00     0.060 C 
BRANCH  21  25
HETATM   25  C   UNL     1     -46.294  62.588 -47.240  1.00  0.00     0.273 C 
BRANCH  25  26
HETATM   26  C   UNL     1     -45.495  62.394 -45.983  1.00  0.00    -0.033 A 
HETATM   27  C   UNL     1     -45.336  63.463 -45.082  1.00  0.00     0.009 A 
HETATM   28  C   UNL     1     -44.561  63.313 -43.934  1.00  0.00     0.001 A 
HETATM   29  C   UNL     1     -43.939  62.098 -43.668  1.00  0.00     0.000 A 
HETATM   30  C   UNL     1     -44.099  61.027 -44.543  1.00  0.00     0.001 A 
HETATM   31  C   UNL     1     -44.877  61.169 -45.693  1.00  0.00     0.009 A 
ENDBRANCH  25  26
ENDBRANCH  21  25
ENDBRANCH  15  18
ENDBRANCH  14  15
ENDBRANCH  12  14
BRANCH  11  32
HETATM   32  O   UNL     1     -42.140  61.279 -53.362  1.00  0.00    -0.359 OA
HETATM   33  H   UNL     1     -41.811  61.405 -54.281  1.00  0.00     0.217 HD
ENDBRANCH  11  32
BRANCH   3  34
HETATM   34  C   UNL     1     -41.722  53.391 -52.923  1.00  0.00     0.156 C 
BRANCH  34  35
HETATM   35  C   UNL     1     -40.349  52.807 -53.199  1.00  0.00     0.262 C 
HETATM   36  O   UNL     1     -39.859  52.672 -54.312  1.00  0.00    -0.265 OA
BRANCH  35  37
HETATM   37  O   UNL     1     -39.739  52.512 -52.019  1.00  0.00    -0.326 OA
HETATM   38  C   UNL     1     -39.500  51.120 -51.802  1.00  0.00     0.213 C 
ENDBRANCH  35  37
ENDBRANCH  34  35
ENDBRANCH   3  34
TORSDOF 9
ENDMDL
MODEL 10
REMARK VINA RESULT:      -7.2      2.388      4.046
REMARK  9 active torsions:
REMARK  status: ('A' for Active; 'I' for Inactive)
REMARK    1  A    between atoms: C_3  and  C_4 
REMARK    2  A    between atoms: C_4  and  C_5 
REMARK    3  A    between atoms: C_5  and  O_6 
REMARK    4  A    between atoms: C_16  and  O_17 
REMARK    5  A    between atoms: C_18  and  C_19 
REMARK    6  A    between atoms: C_19  and  N_20 
REMARK    7  A    between atoms: N_20  and  C_23 
REMARK    8  A    between atoms: N_26  and  C_28 
REMARK    9  A    between atoms: C_28  and  C_29 
ROOT
HETATM    1  C   UNL     1     -43.894  60.497 -53.894  1.00  0.00     0.050 C 
HETATM    2  C   UNL     1     -43.785  59.940 -55.292  1.00  0.00    -0.036 C 
HETATM    3  C   UNL     1     -44.178  60.610 -56.397  1.00  0.00     0.034 C 
HETATM    4  C   UNL     1     -44.155  59.967 -57.739  1.00  0.00     0.295 C 
HETATM    5  O   UNL     1     -44.357  60.603 -58.765  1.00  0.00    -0.259 OA
HETATM    6  O   UNL     1     -43.909  58.608 -57.775  1.00  0.00    -0.274 OA
HETATM    7  C   UNL     1     -43.348  57.929 -56.679  1.00  0.00     0.099 A 
HETATM    8  C   UNL     1     -43.225  58.582 -55.450  1.00  0.00     0.006 A 
HETATM    9  C   UNL     1     -42.863  56.628 -56.915  1.00  0.00     0.007 A 
HETATM   10  C   UNL     1     -43.047  55.971 -58.258  1.00  0.00     0.054 C 
HETATM   11  C   UNL     1     -42.164  56.007 -55.875  1.00  0.00     0.082 A 
HETATM   12  C   UNL     1     -41.973  56.648 -54.639  1.00  0.00     0.002 A 
HETATM   13  C   UNL     1     -42.530  57.919 -54.429  1.00  0.00     0.026 A 
ENDROOT
BRANCH  12  14
HETATM   14  C   UNL     1     -41.103  56.020 -53.589  1.00  0.00     0.274 C 
BRANCH  14  15
HETATM   15  N   UNL     1     -41.243  56.808 -52.316  1.00  0.00    -0.067 N 
HETATM   16  H   UNL     1     -40.283  57.008 -52.005  1.00  0.00     0.277 HD
HETATM   17  H   UNL     1     -41.577  57.739 -52.620  1.00  0.00     0.277 HD
BRANCH  15  18
HETATM   18  C   UNL     1     -42.139  56.347 -51.201  1.00  0.00     0.189 C 
HETATM   19  C   UNL     1     -42.915  55.062 -51.480  1.00  0.00     0.060 C 
HETATM   20  C   UNL     1     -42.202  53.762 -51.120  1.00  0.00     0.237 C 
HETATM   21  N   UNL     1     -40.719  53.971 -50.975  1.00  0.00    -0.067 N 
HETATM   22  H   UNL     1     -40.348  54.296 -51.881  1.00  0.00     0.280 HD
HETATM   23  C   UNL     1     -40.373  54.976 -49.905  1.00  0.00     0.237 C 
HETATM   24  C   UNL     1     -41.301  56.195 -49.931  1.00  0.00     0.060 C 
BRANCH  21  25
HETATM   25  C   UNL     1     -39.941  52.649 -50.791  1.00  0.00     0.273 C 
BRANCH  25  26
HETATM   26  C   UNL     1     -39.873  51.746 -51.989  1.00  0.00    -0.033 A 
HETATM   27  C   UNL     1     -40.096  52.271 -53.275  1.00  0.00     0.009 A 
HETATM   28  C   UNL     1     -40.080  51.440 -54.393  1.00  0.00     0.001 A 
HETATM   29  C   UNL     1     -39.839  50.078 -54.245  1.00  0.00     0.000 A 
HETATM   30  C   UNL     1     -39.602  49.546 -52.979  1.00  0.00     0.001 A 
HETATM   31  C   UNL     1     -39.613  50.375 -51.855  1.00  0.00     0.009 A 
ENDBRANCH  25  26
ENDBRANCH  21  25
ENDBRANCH  15  18
ENDBRANCH  14  15
ENDBRANCH  12  14
BRANCH  11  32
HETATM   32  O   UNL     1     -41.570  54.773 -56.045  1.00  0.00    -0.359 OA
HETATM   33  H   UNL     1     -42.305  54.173 -56.309  1.00  0.00     0.217 HD
ENDBRANCH  11  32
BRANCH   3  34
HETATM   34  C   UNL     1     -44.668  62.041 -56.451  1.00  0.00     0.156 C 
BRANCH  34  35
HETATM   35  C   UNL     1     -46.171  62.106 -56.252  1.00  0.00     0.262 C 
HETATM   36  O   UNL     1     -46.746  61.872 -55.197  1.00  0.00    -0.265 OA
BRANCH  35  37
HETATM   37  O   UNL     1     -46.761  62.514 -57.408  1.00  0.00    -0.326 OA
HETATM   38  C   UNL     1     -47.639  61.555 -58.001  1.00  0.00     0.213 C 
ENDBRANCH  35  37
ENDBRANCH  34  35
ENDBRANCH   3  34
TORSDOF 9
ENDMDL
