MODEL 1
REMARK VINA RESULT:      -9.6      0.000      0.000
REMARK  6 active torsions:
REMARK  status: ('A' for Active; 'I' for Inactive)
REMARK    1  A    between atoms: C_2  and  C_3 
REMARK       I    between atoms: C_3  and  N_4 
REMARK    2  A    between atoms: N_4  and  C_5 
REMARK    3  A    between atoms: C_16  and  N_17 
REMARK    4  A    between atoms: C_20  and  N_21 
REMARK    5  A    between atoms: N_21  and  C_24 
REMARK    6  A    between atoms: C_24  and  C_25 
ROOT
HETATM    1  C   UNL     1     -43.511  56.393 -55.441  1.00  0.00     0.019 A 
HETATM    2  C   UNL     1     -44.349  57.500 -55.316  1.00  0.00     0.032 A 
HETATM    3  C   UNL     1     -44.601  58.036 -54.053  1.00  0.00     0.019 A 
HETATM    4  C   UNL     1     -43.992  57.473 -52.922  1.00  0.00     0.030 A 
HETATM    5  C   UNL     1     -43.129  56.370 -53.023  1.00  0.00     0.030 A 
HETATM    6  C   UNL     1     -42.919  55.835 -54.305  1.00  0.00     0.030 A 
ENDROOT
BRANCH   5   7
HETATM    7  N   UNL     1     -42.438  55.851 -51.932  1.00  0.00    -0.381 N 
HETATM    8  C   UNL     1     -41.128  56.406 -51.615  1.00  0.00     0.125 C 
HETATM    9  C   UNL     1     -41.002  56.486 -50.099  1.00  0.00     0.053 C 
HETATM   10  C   UNL     1     -41.303  55.147 -49.422  1.00  0.00     0.189 C 
HETATM   11  C   UNL     1     -42.630  54.548 -49.901  1.00  0.00     0.053 C 
HETATM   12  C   UNL     1     -42.756  54.523 -51.424  1.00  0.00     0.125 C 
BRANCH  10  13
HETATM   13  N   UNL     1     -40.203  54.145 -49.653  1.00  0.00    -0.067 N 
HETATM   14  H   UNL     1     -40.032  54.065 -50.666  1.00  0.00     0.277 HD
HETATM   15  H   UNL     1     -39.311  54.472 -49.262  1.00  0.00     0.277 HD
BRANCH  13  16
HETATM   16  C   UNL     1     -40.452  52.753 -49.167  1.00  0.00     0.271 C 
BRANCH  16  17
HETATM   17  C   UNL     1     -40.222  51.768 -50.278  1.00  0.00    -0.030 A 
HETATM   18  C   UNL     1     -39.975  52.220 -51.584  1.00  0.00     0.048 A 
HETATM   19  C   UNL     1     -39.723  51.277 -52.559  1.00  0.00     0.105 A 
HETATM   20  C   UNL     1     -39.700  49.933 -52.282  1.00  0.00     0.105 A 
HETATM   21  O   UNL     1     -39.470  51.543 -53.867  1.00  0.00    -0.323 OA
HETATM   22  O   UNL     1     -39.430  49.183 -53.381  1.00  0.00    -0.323 OA
HETATM   23  C   UNL     1     -39.929  49.452 -51.013  1.00  0.00     0.040 A 
HETATM   24  C   UNL     1     -39.318  50.204 -54.394  1.00  0.00     0.352 A 
HETATM   25  C   UNL     1     -40.193  50.381 -50.000  1.00  0.00     0.012 A 
ENDBRANCH  16  17
ENDBRANCH  13  16
ENDBRANCH  10  13
ENDBRANCH   5   7
BRANCH   2  26
HETATM   26  C   UNL     1     -44.862  58.135 -56.552  1.00  0.00     0.252 C 
HETATM   27  N   UNL     1     -44.682  57.440 -57.722  1.00  0.00    -0.344 N 
HETATM   28  H   UNL     1     -44.089  56.621 -57.718  1.00  0.00     0.163 HD
HETATM   29  O   UNL     1     -45.389  59.240 -56.480  1.00  0.00    -0.268 OA
BRANCH  27  30
HETATM   30  C   UNL     1     -45.200  57.871 -59.021  1.00  0.00     0.171 C 
HETATM   31  C   UNL     1     -46.703  57.586 -59.197  1.00  0.00     0.220 C 
HETATM   32  O   UNL     1     -47.562  58.371 -58.797  1.00  0.00    -0.278 OA
HETATM   33  N   UNL     1     -47.035  56.325 -59.641  1.00  0.00    -0.261 NA
HETATM   34  C   UNL     1     -46.684  55.961 -60.997  1.00  0.00     0.095 C 
HETATM   35  H   UNL     1     -46.662  55.631 -58.989  1.00  0.00     0.130 HD
HETATM   36  C   UNL     1     -45.319  55.291 -61.108  1.00  0.00     0.015 C 
HETATM   37  C   UNL     1     -44.111  56.049 -60.551  1.00  0.00     0.004 C 
HETATM   38  C   UNL     1     -44.308  57.525 -60.221  1.00  0.00     0.034 C 
ENDBRANCH  27  30
ENDBRANCH   2  26
TORSDOF 6
ENDMDL
MODEL 2
REMARK VINA RESULT:      -9.0      1.658      2.321
REMARK  6 active torsions:
REMARK  status: ('A' for Active; 'I' for Inactive)
REMARK    1  A    between atoms: C_2  and  C_3 
REMARK       I    between atoms: C_3  and  N_4 
REMARK    2  A    between atoms: N_4  and  C_5 
REMARK    3  A    between atoms: C_16  and  N_17 
REMARK    4  A    between atoms: C_20  and  N_21 
REMARK    5  A    between atoms: N_21  and  C_24 
REMARK    6  A    between atoms: C_24  and  C_25 
ROOT
HETATM    1  C   UNL     1     -43.302  56.253 -55.730  1.00  0.00     0.019 A 
HETATM    2  C   UNL     1     -44.221  57.299 -55.686  1.00  0.00     0.032 A 
HETATM    3  C   UNL     1     -44.601  57.835 -54.455  1.00  0.00     0.019 A 
HETATM    4  C   UNL     1     -44.037  57.332 -53.273  1.00  0.00     0.030 A 
HETATM    5  C   UNL     1     -43.095  56.292 -53.291  1.00  0.00     0.030 A 
HETATM    6  C   UNL     1     -42.757  55.754 -54.544  1.00  0.00     0.030 A 
ENDROOT
BRANCH   5   7
HETATM    7  N   UNL     1     -42.450  55.839 -52.144  1.00  0.00    -0.381 N 
HETATM    8  C   UNL     1     -41.178  56.450 -51.778  1.00  0.00     0.125 C 
HETATM    9  C   UNL     1     -41.140  56.592 -50.262  1.00  0.00     0.053 C 
HETATM   10  C   UNL     1     -41.436  55.271 -49.549  1.00  0.00     0.189 C 
HETATM   11  C   UNL     1     -42.714  54.609 -50.075  1.00  0.00     0.053 C 
HETATM   12  C   UNL     1     -42.754  54.522 -51.601  1.00  0.00     0.125 C 
BRANCH  10  13
HETATM   13  N   UNL     1     -40.293  54.298 -49.679  1.00  0.00    -0.067 N 
HETATM   14  H   UNL     1     -40.069  54.180 -50.677  1.00  0.00     0.277 HD
HETATM   15  H   UNL     1     -39.434  54.672 -49.259  1.00  0.00     0.277 HD
BRANCH  13  16
HETATM   16  C   UNL     1     -40.523  52.921 -49.143  1.00  0.00     0.271 C 
BRANCH  16  17
HETATM   17  C   UNL     1     -40.277  51.900 -50.217  1.00  0.00    -0.030 A 
HETATM   18  C   UNL     1     -40.026  52.309 -51.537  1.00  0.00     0.048 A 
HETATM   19  C   UNL     1     -39.760  51.335 -52.477  1.00  0.00     0.105 A 
HETATM   20  C   UNL     1     -39.727  50.001 -52.153  1.00  0.00     0.105 A 
HETATM   21  O   UNL     1     -39.501  51.557 -53.792  1.00  0.00    -0.323 OA
HETATM   22  O   UNL     1     -39.444  49.216 -53.224  1.00  0.00    -0.323 OA
HETATM   23  C   UNL     1     -39.960  49.563 -50.869  1.00  0.00     0.040 A 
HETATM   24  C   UNL     1     -39.334  50.202 -54.272  1.00  0.00     0.352 A 
HETATM   25  C   UNL     1     -40.238  50.523 -49.891  1.00  0.00     0.012 A 
ENDBRANCH  16  17
ENDBRANCH  13  16
ENDBRANCH  10  13
ENDBRANCH   5   7
BRANCH   2  26
HETATM   26  C   UNL     1     -44.687  57.879 -56.967  1.00  0.00     0.252 C 
HETATM   27  N   UNL     1     -43.756  57.978 -57.973  1.00  0.00    -0.344 N 
HETATM   28  H   UNL     1     -42.784  57.801 -57.758  1.00  0.00     0.163 HD
HETATM   29  O   UNL     1     -45.849  58.261 -57.062  1.00  0.00    -0.268 OA
BRANCH  27  30
HETATM   30  C   UNL     1     -44.059  58.443 -59.327  1.00  0.00     0.171 C 
HETATM   31  C   UNL     1     -43.235  57.722 -60.411  1.00  0.00     0.220 C 
HETATM   32  O   UNL     1     -43.598  56.650 -60.893  1.00  0.00    -0.278 OA
HETATM   33  N   UNL     1     -41.982  58.237 -60.665  1.00  0.00    -0.261 NA
HETATM   34  C   UNL     1     -41.890  59.539 -61.289  1.00  0.00     0.095 C 
HETATM   35  H   UNL     1     -41.434  58.227 -59.801  1.00  0.00     0.130 HD
HETATM   36  C   UNL     1     -41.803  60.684 -60.286  1.00  0.00     0.015 C 
HETATM   37  C   UNL     1     -42.919  60.797 -59.244  1.00  0.00     0.004 C 
HETATM   38  C   UNL     1     -44.176  59.965 -59.478  1.00  0.00     0.034 C 
ENDBRANCH  27  30
ENDBRANCH   2  26
TORSDOF 6
ENDMDL
MODEL 3
REMARK VINA RESULT:      -8.5      4.468      5.651
REMARK  6 active torsions:
REMARK  status: ('A' for Active; 'I' for Inactive)
REMARK    1  A    between atoms: C_2  and  C_3 
REMARK       I    between atoms: C_3  and  N_4 
REMARK    2  A    between atoms: N_4  and  C_5 
REMARK    3  A    between atoms: C_16  and  N_17 
REMARK    4  A    between atoms: C_20  and  N_21 
REMARK    5  A    between atoms: N_21  and  C_24 
REMARK    6  A    between atoms: C_24  and  C_25 
ROOT
HETATM    1  C   UNL     1     -46.325  60.464 -51.528  1.00  0.00     0.019 A 
HETATM    2  C   UNL     1     -46.488  61.175 -52.715  1.00  0.00     0.032 A 
HETATM    3  C   UNL     1     -45.643  60.920 -53.796  1.00  0.00     0.019 A 
HETATM    4  C   UNL     1     -44.651  59.933 -53.687  1.00  0.00     0.030 A 
HETATM    5  C   UNL     1     -44.478  59.189 -52.509  1.00  0.00     0.030 A 
HETATM    6  C   UNL     1     -45.325  59.491 -51.430  1.00  0.00     0.030 A 
ENDROOT
BRANCH   5   7
HETATM    7  N   UNL     1     -43.568  58.142 -52.405  1.00  0.00    -0.381 N 
HETATM    8  C   UNL     1     -42.689  57.874 -53.537  1.00  0.00     0.125 C 
HETATM    9  C   UNL     1     -41.317  57.498 -52.991  1.00  0.00     0.053 C 
HETATM   10  C   UNL     1     -41.392  56.365 -51.966  1.00  0.00     0.189 C 
HETATM   11  C   UNL     1     -42.434  56.645 -50.877  1.00  0.00     0.053 C 
HETATM   12  C   UNL     1     -43.789  57.069 -51.445  1.00  0.00     0.125 C 
BRANCH  10  13
HETATM   13  N   UNL     1     -41.709  55.044 -52.616  1.00  0.00    -0.067 N 
HETATM   14  H   UNL     1     -41.712  54.310 -51.893  1.00  0.00     0.277 HD
HETATM   15  H   UNL     1     -42.661  55.037 -53.003  1.00  0.00     0.277 HD
BRANCH  13  16
HETATM   16  C   UNL     1     -40.763  54.575 -53.675  1.00  0.00     0.271 C 
BRANCH  16  17
HETATM   17  C   UNL     1     -40.392  53.139 -53.438  1.00  0.00    -0.030 A 
HETATM   18  C   UNL     1     -40.173  52.670 -52.132  1.00  0.00     0.048 A 
HETATM   19  C   UNL     1     -39.882  51.333 -51.965  1.00  0.00     0.105 A 
HETATM   20  C   UNL     1     -39.813  50.465 -53.026  1.00  0.00     0.105 A 
HETATM   21  O   UNL     1     -39.640  50.720 -50.776  1.00  0.00    -0.323 OA
HETATM   22  O   UNL     1     -39.517  49.197 -52.640  1.00  0.00    -0.323 OA
HETATM   23  C   UNL     1     -40.029  50.884 -54.319  1.00  0.00     0.040 A 
HETATM   24  C   UNL     1     -39.374  49.367 -51.213  1.00  0.00     0.352 A 
HETATM   25  C   UNL     1     -40.322  52.236 -54.526  1.00  0.00     0.012 A 
ENDBRANCH  16  17
ENDBRANCH  13  16
ENDBRANCH  10  13
ENDBRANCH   5   7
BRANCH   2  26
HETATM   26  C   UNL     1     -47.630  62.112 -52.822  1.00  0.00     0.252 C 
HETATM   27  N   UNL     1     -48.545  61.856 -53.814  1.00  0.00    -0.344 N 
HETATM   28  H   UNL     1     -48.330  61.153 -54.508  1.00  0.00     0.163 HD
HETATM   29  O   UNL     1     -47.693  63.066 -52.055  1.00  0.00    -0.268 OA
BRANCH  27  30
HETATM   30  C   UNL     1     -49.777  62.621 -54.010  1.00  0.00     0.171 C 
HETATM   31  C   UNL     1     -50.909  62.201 -53.053  1.00  0.00     0.220 C 
HETATM   32  O   UNL     1     -51.008  62.676 -51.922  1.00  0.00    -0.278 OA
HETATM   33  N   UNL     1     -51.676  61.129 -53.452  1.00  0.00    -0.261 NA
HETATM   34  C   UNL     1     -52.544  61.297 -54.598  1.00  0.00     0.095 C 
HETATM   35  H   UNL     1     -51.071  60.316 -53.591  1.00  0.00     0.130 HD
HETATM   36  C   UNL     1     -51.886  60.903 -55.916  1.00  0.00     0.015 C 
HETATM   37  C   UNL     1     -50.570  61.593 -56.283  1.00  0.00     0.004 C 
HETATM   38  C   UNL     1     -50.183  62.828 -55.476  1.00  0.00     0.034 C 
ENDBRANCH  27  30
ENDBRANCH   2  26
TORSDOF 6
ENDMDL
MODEL 4
REMARK VINA RESULT:      -8.5      1.939      2.535
REMARK  6 active torsions:
REMARK  status: ('A' for Active; 'I' for Inactive)
REMARK    1  A    between atoms: C_2  and  C_3 
REMARK       I    between atoms: C_3  and  N_4 
REMARK    2  A    between atoms: N_4  and  C_5 
REMARK    3  A    between atoms: C_16  and  N_17 
REMARK    4  A    between atoms: C_20  and  N_21 
REMARK    5  A    between atoms: N_21  and  C_24 
REMARK    6  A    between atoms: C_24  and  C_25 
ROOT
HETATM    1  C   UNL     1     -43.141  55.361 -56.794  1.00  0.00     0.019 A 
HETATM    2  C   UNL     1     -43.334  56.691 -57.162  1.00  0.00     0.032 A 
HETATM    3  C   UNL     1     -43.201  57.698 -56.205  1.00  0.00     0.019 A 
HETATM    4  C   UNL     1     -42.852  57.367 -54.888  1.00  0.00     0.030 A 
HETATM    5  C   UNL     1     -42.634  56.037 -54.496  1.00  0.00     0.030 A 
HETATM    6  C   UNL     1     -42.805  55.043 -55.475  1.00  0.00     0.030 A 
ENDROOT
BRANCH   5   7
HETATM    7  N   UNL     1     -42.195  55.688 -53.223  1.00  0.00    -0.381 N 
HETATM    8  C   UNL     1     -41.127  56.475 -52.618  1.00  0.00     0.125 C 
HETATM    9  C   UNL     1     -41.436  56.632 -51.135  1.00  0.00     0.053 C 
HETATM   10  C   UNL     1     -41.695  55.287 -50.452  1.00  0.00     0.189 C 
HETATM   11  C   UNL     1     -42.728  54.448 -51.212  1.00  0.00     0.053 C 
HETATM   12  C   UNL     1     -42.426  54.344 -52.707  1.00  0.00     0.125 C 
BRANCH  10  13
HETATM   13  N   UNL     1     -40.429  54.484 -50.301  1.00  0.00    -0.067 N 
HETATM   14  H   UNL     1     -40.073  54.245 -51.237  1.00  0.00     0.277 HD
HETATM   15  H   UNL     1     -39.682  55.043 -49.870  1.00  0.00     0.277 HD
BRANCH  13  16
HETATM   16  C   UNL     1     -40.542  53.190 -49.560  1.00  0.00     0.271 C 
BRANCH  16  17
HETATM   17  C   UNL     1     -40.266  52.040 -50.485  1.00  0.00    -0.030 A 
HETATM   18  C   UNL     1     -39.983  52.273 -51.840  1.00  0.00     0.048 A 
HETATM   19  C   UNL     1     -39.690  51.186 -52.637  1.00  0.00     0.105 A 
HETATM   20  C   UNL     1     -39.661  49.907 -52.141  1.00  0.00     0.105 A 
HETATM   21  O   UNL     1     -39.399  51.236 -53.964  1.00  0.00    -0.323 OA
HETATM   22  O   UNL     1     -39.348  48.990 -53.092  1.00  0.00    -0.323 OA
HETATM   23  C   UNL     1     -39.925  49.639 -50.817  1.00  0.00     0.040 A 
HETATM   24  C   UNL     1     -39.216  49.831 -54.257  1.00  0.00     0.352 A 
HETATM   25  C   UNL     1     -40.231  50.718 -49.980  1.00  0.00     0.012 A 
ENDBRANCH  16  17
ENDBRANCH  13  16
ENDBRANCH  10  13
ENDBRANCH   5   7
BRANCH   2  26
HETATM   26  C   UNL     1     -43.572  56.997 -58.591  1.00  0.00     0.252 C 
HETATM   27  N   UNL     1     -44.585  57.883 -58.870  1.00  0.00    -0.344 N 
HETATM   28  H   UNL     1     -45.208  58.164 -58.125  1.00  0.00     0.163 HD
HETATM   29  O   UNL     1     -42.889  56.439 -59.443  1.00  0.00    -0.268 OA
BRANCH  27  30
HETATM   30  C   UNL     1     -44.903  58.368 -60.213  1.00  0.00     0.171 C 
HETATM   31  C   UNL     1     -44.242  59.720 -60.541  1.00  0.00     0.220 C 
HETATM   32  O   UNL     1     -43.096  59.788 -60.984  1.00  0.00    -0.278 OA
HETATM   33  N   UNL     1     -44.920  60.845 -60.126  1.00  0.00    -0.261 NA
HETATM   34  C   UNL     1     -46.175  61.166 -60.771  1.00  0.00     0.095 C 
HETATM   35  H   UNL     1     -45.052  60.802 -59.112  1.00  0.00     0.130 HD
HETATM   36  C   UNL     1     -47.386  60.568 -60.064  1.00  0.00     0.015 C 
HETATM   37  C   UNL     1     -47.403  59.053 -59.847  1.00  0.00     0.004 C 
HETATM   38  C   UNL     1     -46.377  58.229 -60.619  1.00  0.00     0.034 C 
ENDBRANCH  27  30
ENDBRANCH   2  26
TORSDOF 6
ENDMDL
MODEL 5
REMARK VINA RESULT:      -8.3      2.612      3.389
REMARK  6 active torsions:
REMARK  status: ('A' for Active; 'I' for Inactive)
REMARK    1  A    between atoms: C_2  and  C_3 
REMARK       I    between atoms: C_3  and  N_4 
REMARK    2  A    between atoms: N_4  and  C_5 
REMARK    3  A    between atoms: C_16  and  N_17 
REMARK    4  A    between atoms: C_20  and  N_21 
REMARK    5  A    between atoms: N_21  and  C_24 
REMARK    6  A    between atoms: C_24  and  C_25 
ROOT
HETATM    1  C   UNL     1     -42.673  57.386 -56.598  1.00  0.00     0.019 A 
HETATM    2  C   UNL     1     -43.941  57.960 -56.655  1.00  0.00     0.032 A 
HETATM    3  C   UNL     1     -44.783  57.888 -55.545  1.00  0.00     0.019 A 
HETATM    4  C   UNL     1     -44.337  57.260 -54.373  1.00  0.00     0.030 A 
HETATM    5  C   UNL     1     -43.057  56.691 -54.282  1.00  0.00     0.030 A 
HETATM    6  C   UNL     1     -42.246  56.753 -55.428  1.00  0.00     0.030 A 
ENDROOT
BRANCH   5   7
HETATM    7  N   UNL     1     -42.555  56.147 -53.105  1.00  0.00    -0.381 N 
HETATM    8  C   UNL     1     -41.501  56.869 -52.402  1.00  0.00     0.125 C 
HETATM    9  C   UNL     1     -41.760  56.747 -50.906  1.00  0.00     0.053 C 
HETATM   10  C   UNL     1     -41.932  55.292 -50.465  1.00  0.00     0.189 C 
HETATM   11  C   UNL     1     -42.954  54.547 -51.331  1.00  0.00     0.053 C 
HETATM   12  C   UNL     1     -42.706  54.724 -52.829  1.00  0.00     0.125 C 
BRANCH  10  13
HETATM   13  N   UNL     1     -40.627  54.541 -50.496  1.00  0.00    -0.067 N 
HETATM   14  H   UNL     1     -40.415  54.283 -51.470  1.00  0.00     0.277 HD
HETATM   15  H   UNL     1     -39.844  55.141 -50.206  1.00  0.00     0.277 HD
BRANCH  13  16
HETATM   16  C   UNL     1     -40.567  53.270 -49.710  1.00  0.00     0.271 C 
BRANCH  16  17
HETATM   17  C   UNL     1     -40.286  52.111 -50.622  1.00  0.00    -0.030 A 
HETATM   18  C   UNL     1     -40.073  52.325 -51.994  1.00  0.00     0.048 A 
HETATM   19  C   UNL     1     -39.772  51.233 -52.781  1.00  0.00     0.105 A 
HETATM   20  C   UNL     1     -39.668  49.968 -52.260  1.00  0.00     0.105 A 
HETATM   21  O   UNL     1     -39.541  51.265 -54.120  1.00  0.00    -0.323 OA
HETATM   22  O   UNL     1     -39.361  49.043 -53.205  1.00  0.00    -0.323 OA
HETATM   23  C   UNL     1     -39.862  49.719 -50.920  1.00  0.00     0.040 A 
HETATM   24  C   UNL     1     -39.314  49.862 -54.392  1.00  0.00     0.352 A 
HETATM   25  C   UNL     1     -40.174  50.803 -50.093  1.00  0.00     0.012 A 
ENDBRANCH  16  17
ENDBRANCH  13  16
ENDBRANCH  10  13
ENDBRANCH   5   7
BRANCH   2  26
HETATM   26  C   UNL     1     -44.313  58.723 -57.869  1.00  0.00     0.252 C 
HETATM   27  N   UNL     1     -43.343  59.532 -58.409  1.00  0.00    -0.344 N 
HETATM   28  H   UNL     1     -42.491  59.689 -57.887  1.00  0.00     0.163 HD
HETATM   29  O   UNL     1     -45.452  58.622 -58.312  1.00  0.00    -0.268 OA
BRANCH  27  30
HETATM   30  C   UNL     1     -43.503  60.288 -59.652  1.00  0.00     0.171 C 
HETATM   31  C   UNL     1     -42.194  60.423 -60.451  1.00  0.00     0.220 C 
HETATM   32  O   UNL     1     -41.825  59.554 -61.240  1.00  0.00    -0.278 OA
HETATM   33  N   UNL     1     -41.366  61.464 -60.089  1.00  0.00    -0.261 NA
HETATM   34  C   UNL     1     -41.808  62.816 -60.354  1.00  0.00     0.095 C 
HETATM   35  H   UNL     1     -41.117  61.367 -59.101  1.00  0.00     0.130 HD
HETATM   36  C   UNL     1     -42.567  63.441 -59.189  1.00  0.00     0.015 C 
HETATM   37  C   UNL     1     -43.796  62.693 -58.663  1.00  0.00     0.004 C 
HETATM   38  C   UNL     1     -44.346  61.565 -59.528  1.00  0.00     0.034 C 
ENDBRANCH  27  30
ENDBRANCH   2  26
TORSDOF 6
ENDMDL
MODEL 6
REMARK VINA RESULT:      -8.3      5.283      8.495
REMARK  6 active torsions:
REMARK  status: ('A' for Active; 'I' for Inactive)
REMARK    1  A    between atoms: C_2  and  C_3 
REMARK       I    between atoms: C_3  and  N_4 
REMARK    2  A    between atoms: N_4  and  C_5 
REMARK    3  A    between atoms: C_16  and  N_17 
REMARK    4  A    between atoms: C_20  and  N_21 
REMARK    5  A    between atoms: N_21  and  C_24 
REMARK    6  A    between atoms: C_24  and  C_25 
ROOT
HETATM    1  C   UNL     1     -45.317  58.977 -50.421  1.00  0.00     0.019 A 
HETATM    2  C   UNL     1     -44.799  60.216 -50.049  1.00  0.00     0.032 A 
HETATM    3  C   UNL     1     -43.698  60.737 -50.729  1.00  0.00     0.019 A 
HETATM    4  C   UNL     1     -43.136  60.021 -51.796  1.00  0.00     0.030 A 
HETATM    5  C   UNL     1     -43.650  58.780 -52.203  1.00  0.00     0.030 A 
HETATM    6  C   UNL     1     -44.740  58.269 -51.478  1.00  0.00     0.030 A 
ENDROOT
BRANCH   5   7
HETATM    7  N   UNL     1     -43.173  58.093 -53.315  1.00  0.00    -0.381 N 
HETATM    8  C   UNL     1     -43.668  56.744 -53.561  1.00  0.00     0.125 C 
HETATM    9  C   UNL     1     -43.855  56.575 -55.063  1.00  0.00     0.053 C 
HETATM   10  C   UNL     1     -42.593  56.939 -55.848  1.00  0.00     0.189 C 
HETATM   11  C   UNL     1     -42.043  58.312 -55.445  1.00  0.00     0.053 C 
HETATM   12  C   UNL     1     -41.911  58.479 -53.932  1.00  0.00     0.125 C 
BRANCH  10  13
HETATM   13  N   UNL     1     -41.508  55.908 -55.672  1.00  0.00    -0.067 N 
HETATM   14  H   UNL     1     -40.844  55.987 -56.455  1.00  0.00     0.277 HD
HETATM   15  H   UNL     1     -40.948  56.096 -54.832  1.00  0.00     0.277 HD
BRANCH  13  16
HETATM   16  C   UNL     1     -41.943  54.478 -55.642  1.00  0.00     0.271 C 
BRANCH  16  17
HETATM   17  C   UNL     1     -41.280  53.760 -54.502  1.00  0.00    -0.030 A 
HETATM   18  C   UNL     1     -41.614  54.078 -53.175  1.00  0.00     0.048 A 
HETATM   19  C   UNL     1     -41.012  53.357 -52.166  1.00  0.00     0.105 A 
HETATM   20  C   UNL     1     -40.118  52.348 -52.425  1.00  0.00     0.105 A 
HETATM   21  O   UNL     1     -41.220  53.538 -50.835  1.00  0.00    -0.323 OA
HETATM   22  O   UNL     1     -39.648  51.768 -51.290  1.00  0.00    -0.323 OA
HETATM   23  C   UNL     1     -39.771  52.003 -53.711  1.00  0.00     0.040 A 
HETATM   24  C   UNL     1     -40.323  52.547 -50.280  1.00  0.00     0.352 A 
HETATM   25  C   UNL     1     -40.359  52.716 -54.761  1.00  0.00     0.012 A 
ENDBRANCH  16  17
ENDBRANCH  13  16
ENDBRANCH  10  13
ENDBRANCH   5   7
BRANCH   2  26
HETATM   26  C   UNL     1     -45.509  60.990 -49.004  1.00  0.00     0.252 C 
HETATM   27  N   UNL     1     -45.065  60.831 -47.713  1.00  0.00    -0.344 N 
HETATM   28  H   UNL     1     -44.395  60.101 -47.513  1.00  0.00     0.163 HD
HETATM   29  O   UNL     1     -46.455  61.699 -49.325  1.00  0.00    -0.268 OA
BRANCH  27  30
HETATM   30  C   UNL     1     -45.587  61.579 -46.569  1.00  0.00     0.171 C 
HETATM   31  C   UNL     1     -47.122  61.523 -46.459  1.00  0.00     0.220 C 
HETATM   32  O   UNL     1     -47.696  60.598 -45.886  1.00  0.00    -0.278 OA
HETATM   33  N   UNL     1     -47.818  62.450 -47.204  1.00  0.00    -0.261 NA
HETATM   34  C   UNL     1     -47.722  63.844 -46.828  1.00  0.00     0.095 C 
HETATM   35  H   UNL     1     -47.574  62.339 -48.191  1.00  0.00     0.130 HD
HETATM   36  C   UNL     1     -46.601  64.586 -47.548  1.00  0.00     0.015 C 
HETATM   37  C   UNL     1     -45.184  64.019 -47.424  1.00  0.00     0.004 C 
HETATM   38  C   UNL     1     -44.950  62.959 -46.353  1.00  0.00     0.034 C 
ENDBRANCH  27  30
ENDBRANCH   2  26
TORSDOF 6
ENDMDL
MODEL 7
REMARK VINA RESULT:      -8.1      4.511      5.866
REMARK  6 active torsions:
REMARK  status: ('A' for Active; 'I' for Inactive)
REMARK    1  A    between atoms: C_2  and  C_3 
REMARK       I    between atoms: C_3  and  N_4 
REMARK    2  A    between atoms: N_4  and  C_5 
REMARK    3  A    between atoms: C_16  and  N_17 
REMARK    4  A    between atoms: C_20  and  N_21 
REMARK    5  A    between atoms: N_21  and  C_24 
REMARK    6  A    between atoms: C_24  and  C_25 
ROOT
HETATM    1  C   UNL     1     -46.069  60.359 -52.434  1.00  0.00     0.019 A 
HETATM    2  C   UNL     1     -45.898  60.974 -53.673  1.00  0.00     0.032 A 
HETATM    3  C   UNL     1     -44.950  60.475 -54.567  1.00  0.00     0.019 A 
HETATM    4  C   UNL     1     -44.195  59.344 -54.223  1.00  0.00     0.030 A 
HETATM    5  C   UNL     1     -44.362  58.694 -52.989  1.00  0.00     0.030 A 
HETATM    6  C   UNL     1     -45.302  59.240 -52.099  1.00  0.00     0.030 A 
ENDROOT
BRANCH   5   7
HETATM    7  N   UNL     1     -43.696  57.518 -52.660  1.00  0.00    -0.381 N 
HETATM    8  C   UNL     1     -43.315  57.303 -51.270  1.00  0.00     0.125 C 
HETATM    9  C   UNL     1     -43.527  55.831 -50.942  1.00  0.00     0.053 C 
HETATM   10  C   UNL     1     -42.825  54.908 -51.941  1.00  0.00     0.189 C 
HETATM   11  C   UNL     1     -43.159  55.273 -53.391  1.00  0.00     0.053 C 
HETATM   12  C   UNL     1     -42.987  56.763 -53.685  1.00  0.00     0.125 C 
BRANCH  10  13
HETATM   13  N   UNL     1     -41.329  54.931 -51.764  1.00  0.00    -0.067 N 
HETATM   14  H   UNL     1     -40.884  54.687 -52.661  1.00  0.00     0.277 HD
HETATM   15  H   UNL     1     -40.992  55.878 -51.552  1.00  0.00     0.277 HD
BRANCH  13  16
HETATM   16  C   UNL     1     -40.760  53.987 -50.753  1.00  0.00     0.271 C 
BRANCH  16  17
HETATM   17  C   UNL     1     -40.405  52.682 -51.406  1.00  0.00    -0.030 A 
HETATM   18  C   UNL     1     -40.431  52.561 -52.805  1.00  0.00     0.048 A 
HETATM   19  C   UNL     1     -40.050  51.355 -53.357  1.00  0.00     0.105 A 
HETATM   20  C   UNL     1     -39.645  50.296 -52.584  1.00  0.00     0.105 A 
HETATM   21  O   UNL     1     -40.021  51.070 -54.685  1.00  0.00    -0.323 OA
HETATM   22  O   UNL     1     -39.311  49.210 -53.327  1.00  0.00    -0.323 OA
HETATM   23  C   UNL     1     -39.599  50.379 -51.210  1.00  0.00     0.040 A 
HETATM   24  C   UNL     1     -39.584  49.691 -54.660  1.00  0.00     0.352 A 
HETATM   25  C   UNL     1     -39.983  51.586 -50.616  1.00  0.00     0.012 A 
ENDBRANCH  16  17
ENDBRANCH  13  16
ENDBRANCH  10  13
ENDBRANCH   5   7
BRANCH   2  26
HETATM   26  C   UNL     1     -46.809  62.083 -54.039  1.00  0.00     0.252 C 
HETATM   27  N   UNL     1     -48.013  62.133 -53.380  1.00  0.00    -0.344 N 
HETATM   28  H   UNL     1     -48.288  61.350 -52.802  1.00  0.00     0.163 HD
HETATM   29  O   UNL     1     -46.467  62.873 -54.912  1.00  0.00    -0.268 OA
BRANCH  27  30
HETATM   30  C   UNL     1     -48.997  63.203 -53.549  1.00  0.00     0.171 C 
HETATM   31  C   UNL     1     -49.429  63.843 -52.217  1.00  0.00     0.220 C 
HETATM   32  O   UNL     1     -48.789  64.759 -51.702  1.00  0.00    -0.278 OA
HETATM   33  N   UNL     1     -50.446  63.206 -51.539  1.00  0.00    -0.261 NA
HETATM   34  C   UNL     1     -51.772  63.225 -52.117  1.00  0.00     0.095 C 
HETATM   35  H   UNL     1     -50.166  62.242 -51.343  1.00  0.00     0.130 HD
HETATM   36  C   UNL     1     -52.056  62.026 -53.014  1.00  0.00     0.015 C 
HETATM   37  C   UNL     1     -51.095  61.770 -54.178  1.00  0.00     0.004 C 
HETATM   38  C   UNL     1     -50.127  62.893 -54.540  1.00  0.00     0.034 C 
ENDBRANCH  27  30
ENDBRANCH   2  26
TORSDOF 6
ENDMDL
MODEL 8
REMARK VINA RESULT:      -8.1      5.048      8.324
REMARK  6 active torsions:
REMARK  status: ('A' for Active; 'I' for Inactive)
REMARK    1  A    between atoms: C_2  and  C_3 
REMARK       I    between atoms: C_3  and  N_4 
REMARK    2  A    between atoms: N_4  and  C_5 
REMARK    3  A    between atoms: C_16  and  N_17 
REMARK    4  A    between atoms: C_20  and  N_21 
REMARK    5  A    between atoms: N_21  and  C_24 
REMARK    6  A    between atoms: C_24  and  C_25 
ROOT
HETATM    1  C   UNL     1     -45.174  59.378 -50.849  1.00  0.00     0.019 A 
HETATM    2  C   UNL     1     -45.236  60.734 -51.163  1.00  0.00     0.032 A 
HETATM    3  C   UNL     1     -44.548  61.217 -52.276  1.00  0.00     0.019 A 
HETATM    4  C   UNL     1     -43.819  60.331 -53.084  1.00  0.00     0.030 A 
HETATM    5  C   UNL     1     -43.756  58.958 -52.800  1.00  0.00     0.030 A 
HETATM    6  C   UNL     1     -44.434  58.508 -51.655  1.00  0.00     0.030 A 
ENDROOT
BRANCH   5   7
HETATM    7  N   UNL     1     -43.121  58.044 -53.635  1.00  0.00    -0.381 N 
HETATM    8  C   UNL     1     -43.342  56.622 -53.401  1.00  0.00     0.125 C 
HETATM    9  C   UNL     1     -43.443  55.930 -54.755  1.00  0.00     0.053 C 
HETATM   10  C   UNL     1     -42.247  56.244 -55.655  1.00  0.00     0.189 C 
HETATM   11  C   UNL     1     -41.981  57.750 -55.751  1.00  0.00     0.053 C 
HETATM   12  C   UNL     1     -41.933  58.434 -54.384  1.00  0.00     0.125 C 
BRANCH  10  13
HETATM   13  N   UNL     1     -40.994  55.556 -55.180  1.00  0.00    -0.067 N 
HETATM   14  H   UNL     1     -40.182  55.979 -55.653  1.00  0.00     0.277 HD
HETATM   15  H   UNL     1     -40.832  55.725 -54.180  1.00  0.00     0.277 HD
BRANCH  13  16
HETATM   16  C   UNL     1     -40.900  54.086 -55.435  1.00  0.00     0.271 C 
BRANCH  16  17
HETATM   17  C   UNL     1     -40.663  53.352 -54.146  1.00  0.00    -0.030 A 
HETATM   18  C   UNL     1     -40.154  52.043 -54.160  1.00  0.00     0.048 A 
HETATM   19  C   UNL     1     -39.909  51.431 -52.949  1.00  0.00     0.105 A 
HETATM   20  C   UNL     1     -40.139  52.064 -51.753  1.00  0.00     0.105 A 
HETATM   21  O   UNL     1     -39.423  50.172 -52.785  1.00  0.00    -0.323 OA
HETATM   22  O   UNL     1     -39.828  51.285 -50.686  1.00  0.00    -0.323 OA
HETATM   23  C   UNL     1     -40.630  53.349 -51.699  1.00  0.00     0.040 A 
HETATM   24  C   UNL     1     -39.406  50.071 -51.342  1.00  0.00     0.352 A 
HETATM   25  C   UNL     1     -40.894  53.999 -52.909  1.00  0.00     0.012 A 
ENDBRANCH  16  17
ENDBRANCH  13  16
ENDBRANCH  10  13
ENDBRANCH   5   7
BRANCH   2  26
HETATM   26  C   UNL     1     -46.123  61.602 -50.355  1.00  0.00     0.252 C 
HETATM   27  N   UNL     1     -45.902  61.616 -48.999  1.00  0.00    -0.344 N 
HETATM   28  H   UNL     1     -45.266  60.939 -48.600  1.00  0.00     0.163 HD
HETATM   29  O   UNL     1     -47.011  62.235 -50.916  1.00  0.00    -0.268 OA
BRANCH  27  30
HETATM   30  C   UNL     1     -46.621  62.478 -48.060  1.00  0.00     0.171 C 
HETATM   31  C   UNL     1     -46.047  63.906 -47.989  1.00  0.00     0.220 C 
HETATM   32  O   UNL     1     -46.395  64.782 -48.779  1.00  0.00    -0.278 OA
HETATM   33  N   UNL     1     -44.986  64.092 -47.130  1.00  0.00    -0.261 NA
HETATM   34  C   UNL     1     -45.229  63.989 -45.708  1.00  0.00     0.095 C 
HETATM   35  H   UNL     1     -44.223  63.464 -47.398  1.00  0.00     0.130 HD
HETATM   36  C   UNL     1     -45.009  62.584 -45.158  1.00  0.00     0.015 C 
HETATM   37  C   UNL     1     -45.799  61.441 -45.802  1.00  0.00     0.004 C 
HETATM   38  C   UNL     1     -46.960  61.826 -46.713  1.00  0.00     0.034 C 
ENDBRANCH  27  30
ENDBRANCH   2  26
TORSDOF 6
ENDMDL
MODEL 9
REMARK VINA RESULT:      -7.9      4.056      5.819
REMARK  6 active torsions:
REMARK  status: ('A' for Active; 'I' for Inactive)
REMARK    1  A    between atoms: C_2  and  C_3 
REMARK       I    between atoms: C_3  and  N_4 
REMARK    2  A    between atoms: N_4  and  C_5 
REMARK    3  A    between atoms: C_16  and  N_17 
REMARK    4  A    between atoms: C_20  and  N_21 
REMARK    5  A    between atoms: N_21  and  C_24 
REMARK    6  A    between atoms: C_24  and  C_25 
ROOT
HETATM    1  C   UNL     1     -45.924  60.479 -56.403  1.00  0.00     0.019 A 
HETATM    2  C   UNL     1     -46.971  60.211 -57.281  1.00  0.00     0.032 A 
HETATM    3  C   UNL     1     -47.023  58.982 -57.941  1.00  0.00     0.019 A 
HETATM    4  C   UNL     1     -46.034  58.018 -57.697  1.00  0.00     0.030 A 
HETATM    5  C   UNL     1     -44.979  58.256 -56.802  1.00  0.00     0.030 A 
HETATM    6  C   UNL     1     -44.939  59.513 -56.177  1.00  0.00     0.030 A 
ENDROOT
BRANCH   5   7
HETATM    7  N   UNL     1     -44.039  57.285 -56.469  1.00  0.00    -0.381 N 
HETATM    8  C   UNL     1     -43.770  57.037 -55.058  1.00  0.00     0.125 C 
HETATM    9  C   UNL     1     -43.578  55.537 -54.869  1.00  0.00     0.053 C 
HETATM   10  C   UNL     1     -42.529  54.963 -55.824  1.00  0.00     0.189 C 
HETATM   11  C   UNL     1     -42.791  55.374 -57.277  1.00  0.00     0.053 C 
HETATM   12  C   UNL     1     -43.031  56.875 -57.437  1.00  0.00     0.125 C 
BRANCH  10  13
HETATM   13  N   UNL     1     -41.135  55.385 -55.441  1.00  0.00    -0.067 N 
HETATM   14  H   UNL     1     -40.459  54.774 -55.921  1.00  0.00     0.277 HD
HETATM   15  H   UNL     1     -40.924  56.330 -55.784  1.00  0.00     0.277 HD
BRANCH  13  16
HETATM   16  C   UNL     1     -40.792  55.319 -53.987  1.00  0.00     0.271 C 
BRANCH  16  17
HETATM   17  C   UNL     1     -40.431  53.912 -53.605  1.00  0.00    -0.030 A 
HETATM   18  C   UNL     1     -40.369  53.541 -52.252  1.00  0.00     0.048 A 
HETATM   19  C   UNL     1     -40.080  52.225 -51.955  1.00  0.00     0.105 A 
HETATM   20  C   UNL     1     -39.865  51.288 -52.934  1.00  0.00     0.105 A 
HETATM   21  O   UNL     1     -39.978  51.703 -50.704  1.00  0.00    -0.323 OA
HETATM   22  O   UNL     1     -39.600  50.058 -52.424  1.00  0.00    -0.323 OA
HETATM   23  C   UNL     1     -39.925  51.612 -54.271  1.00  0.00     0.040 A 
HETATM   24  C   UNL     1     -39.638  50.330 -51.007  1.00  0.00     0.352 A 
HETATM   25  C   UNL     1     -40.212  52.939 -54.609  1.00  0.00     0.012 A 
ENDBRANCH  16  17
ENDBRANCH  13  16
ENDBRANCH  10  13
ENDBRANCH   5   7
BRANCH   2  26
HETATM   26  C   UNL     1     -48.058  61.210 -57.405  1.00  0.00     0.252 C 
HETATM   27  N   UNL     1     -49.270  60.872 -56.854  1.00  0.00    -0.344 N 
HETATM   28  H   UNL     1     -49.414  59.925 -56.532  1.00  0.00     0.163 HD
HETATM   29  O   UNL     1     -47.840  62.258 -58.003  1.00  0.00    -0.268 OA
BRANCH  27  30
HETATM   30  C   UNL     1     -50.427  61.768 -56.804  1.00  0.00     0.171 C 
HETATM   31  C   UNL     1     -50.959  61.989 -55.376  1.00  0.00     0.220 C 
HETATM   32  O   UNL     1     -50.488  62.851 -54.636  1.00  0.00    -0.278 OA
HETATM   33  N   UNL     1     -51.846  61.045 -54.905  1.00  0.00    -0.261 NA
HETATM   34  C   UNL     1     -53.157  60.974 -55.513  1.00  0.00     0.095 C 
HETATM   35  H   UNL     1     -51.402  60.124 -54.931  1.00  0.00     0.130 HD
HETATM   36  C   UNL     1     -53.230  59.992 -56.677  1.00  0.00     0.015 C 
HETATM   37  C   UNL     1     -52.243  60.189 -57.832  1.00  0.00     0.004 C 
HETATM   38  C   UNL     1     -51.489  61.514 -57.882  1.00  0.00     0.034 C 
ENDBRANCH  27  30
ENDBRANCH   2  26
TORSDOF 6
ENDMDL
MODEL 10
REMARK VINA RESULT:      -7.5      2.342      2.857
REMARK  6 active torsions:
REMARK  status: ('A' for Active; 'I' for Inactive)
REMARK    1  A    between atoms: C_2  and  C_3 
REMARK       I    between atoms: C_3  and  N_4 
REMARK    2  A    between atoms: N_4  and  C_5 
REMARK    3  A    between atoms: C_16  and  N_17 
REMARK    4  A    between atoms: C_20  and  N_21 
REMARK    5  A    between atoms: N_21  and  C_24 
REMARK    6  A    between atoms: C_24  and  C_25 
ROOT
HETATM    1  C   UNL     1     -43.738  58.030 -55.891  1.00  0.00     0.019 A 
HETATM    2  C   UNL     1     -43.005  59.178 -56.182  1.00  0.00     0.032 A 
HETATM    3  C   UNL     1     -41.986  59.584 -55.319  1.00  0.00     0.019 A 
HETATM    4  C   UNL     1     -41.692  58.821 -54.180  1.00  0.00     0.030 A 
HETATM    5  C   UNL     1     -42.403  57.649 -53.874  1.00  0.00     0.030 A 
HETATM    6  C   UNL     1     -43.442  57.284 -54.746  1.00  0.00     0.030 A 
ENDROOT
BRANCH   5   7
HETATM    7  N   UNL     1     -42.071  56.823 -52.805  1.00  0.00    -0.381 N 
HETATM    8  C   UNL     1     -41.108  57.311 -51.826  1.00  0.00     0.125 C 
HETATM    9  C   UNL     1     -41.565  56.858 -50.445  1.00  0.00     0.053 C 
HETATM   10  C   UNL     1     -41.820  55.350 -50.386  1.00  0.00     0.189 C 
HETATM   11  C   UNL     1     -42.731  54.877 -51.524  1.00  0.00     0.053 C 
HETATM   12  C   UNL     1     -42.283  55.384 -52.895  1.00  0.00     0.125 C 
BRANCH  10  13
HETATM   13  N   UNL     1     -40.536  54.564 -50.430  1.00  0.00    -0.067 N 
HETATM   14  H   UNL     1     -40.343  54.297 -51.406  1.00  0.00     0.277 HD
HETATM   15  H   UNL     1     -39.734  55.143 -50.152  1.00  0.00     0.277 HD
BRANCH  13  16
HETATM   16  C   UNL     1     -40.501  53.295 -49.641  1.00  0.00     0.271 C 
BRANCH  16  17
HETATM   17  C   UNL     1     -40.257  52.126 -50.552  1.00  0.00    -0.030 A 
HETATM   18  C   UNL     1     -40.052  52.331 -51.926  1.00  0.00     0.048 A 
HETATM   19  C   UNL     1     -39.785  51.229 -52.712  1.00  0.00     0.105 A 
HETATM   20  C   UNL     1     -39.708  49.963 -52.189  1.00  0.00     0.105 A 
HETATM   21  O   UNL     1     -39.568  51.251 -54.054  1.00  0.00    -0.323 OA
HETATM   22  O   UNL     1     -39.433  49.028 -53.133  1.00  0.00    -0.323 OA
HETATM   23  C   UNL     1     -39.895  49.723 -50.846  1.00  0.00     0.040 A 
HETATM   24  C   UNL     1     -39.378  49.843 -54.324  1.00  0.00     0.352 A 
HETATM   25  C   UNL     1     -40.172  50.817 -50.019  1.00  0.00     0.012 A 
ENDBRANCH  16  17
ENDBRANCH  13  16
ENDBRANCH  10  13
ENDBRANCH   5   7
BRANCH   2  26
HETATM   26  C   UNL     1     -43.268  59.875 -57.462  1.00  0.00     0.252 C 
HETATM   27  N   UNL     1     -42.198  60.029 -58.310  1.00  0.00    -0.344 N 
HETATM   28  H   UNL     1     -41.271  59.807 -57.973  1.00  0.00     0.163 HD
HETATM   29  O   UNL     1     -44.397  60.296 -57.692  1.00  0.00    -0.268 OA
BRANCH  27  30
HETATM   30  C   UNL     1     -42.291  60.612 -59.649  1.00  0.00     0.171 C 
HETATM   31  C   UNL     1     -43.006  61.976 -59.667  1.00  0.00     0.220 C 
HETATM   32  O   UNL     1     -42.402  63.025 -59.449  1.00  0.00    -0.278 OA
HETATM   33  N   UNL     1     -44.382  61.940 -59.740  1.00  0.00    -0.261 NA
HETATM   34  C   UNL     1     -44.990  61.469 -60.965  1.00  0.00     0.095 C 
HETATM   35  H   UNL     1     -44.746  61.409 -58.945  1.00  0.00     0.130 HD
HETATM   36  C   UNL     1     -45.273  59.971 -60.961  1.00  0.00     0.015 C 
HETATM   37  C   UNL     1     -44.097  59.029 -60.689  1.00  0.00     0.004 C 
HETATM   38  C   UNL     1     -42.696  59.629 -60.756  1.00  0.00     0.034 C 
ENDBRANCH  27  30
ENDBRANCH   2  26
TORSDOF 6
ENDMDL
