MODEL 1
REMARK VINA RESULT:      -9.3      0.000      0.000
REMARK  6 active torsions:
REMARK  status: ('A' for Active; 'I' for Inactive)
REMARK    1  A    between atoms: C_2  and  O_3 
REMARK    2  A    between atoms: C_2  and  C_4 
REMARK    3  A    between atoms: C_7  and  N_8 
REMARK       I    between atoms: N_8  and  C_9 
REMARK    4  A    between atoms: C_9  and  C_10 
REMARK    5  A    between atoms: C_13  and  C_14 
REMARK    6  A    between atoms: C_19  and  C_20 
ROOT
HETATM    1  C   UNL     1     -42.774  56.189 -55.816  1.00  0.00     0.096 A 
HETATM    2  C   UNL     1     -42.698  56.755 -57.077  1.00  0.00     0.138 A 
HETATM    3  N   UNL     1     -43.078  58.070 -56.922  1.00  0.00    -0.240 N 
HETATM    4  C   UNL     1     -43.061  59.067 -57.976  1.00  0.00     0.221 C 
HETATM    5  C   UNL     1     -42.292  58.531 -59.203  1.00  0.00     0.066 C 
HETATM    6  C   UNL     1     -42.671  57.071 -59.499  1.00  0.00     0.118 C 
HETATM    7  N   UNL     1     -42.319  56.275 -58.302  1.00  0.00    -0.365 N 
HETATM    8  N   UNL     1     -43.497  58.367 -55.685  1.00  0.00    -0.181 NA
HETATM    9  C   UNL     1     -43.282  57.237 -55.007  1.00  0.00     0.160 A 
HETATM   10  H   UNL     1     -41.364  55.912 -58.364  1.00  0.00     0.161 HD
ENDROOT
BRANCH   1  11
HETATM   11  C   UNL     1     -42.450  54.847 -55.352  1.00  0.00     0.261 C 
HETATM   12  N   UNL     1     -41.212  54.743 -54.748  1.00  0.00    -0.323 N 
HETATM   13  H   UNL     1     -40.640  55.578 -54.786  1.00  0.00     0.169 HD
HETATM   14  O   UNL     1     -43.256  53.938 -55.502  1.00  0.00    -0.267 OA
BRANCH  12  15
HETATM   15  C   UNL     1     -40.682  53.632 -54.061  1.00  0.00     0.035 A 
HETATM   16  C   UNL     1     -40.243  52.466 -54.688  1.00  0.00     0.030 A 
HETATM   17  C   UNL     1     -39.778  51.377 -53.936  1.00  0.00     0.012 A 
HETATM   18  C   UNL     1     -39.745  51.424 -52.538  1.00  0.00    -0.030 A 
HETATM   19  C   UNL     1     -40.173  52.609 -51.917  1.00  0.00     0.012 A 
HETATM   20  C   UNL     1     -40.628  53.700 -52.667  1.00  0.00     0.030 A 
BRANCH  18  21
HETATM   21  C   UNL     1     -39.312  50.254 -51.676  1.00  0.00     0.147 C 
HETATM   22  C   UNL     1     -40.056  50.067 -50.356  1.00  0.00     0.044 C 
BRANCH  21  23
HETATM   23  O   UNL     1     -39.450  49.058 -52.444  1.00  0.00    -0.391 OA
HETATM   24  H   UNL     1     -39.595  48.328 -51.819  1.00  0.00     0.210 HD
ENDBRANCH  21  23
ENDBRANCH  18  21
ENDBRANCH  12  15
ENDBRANCH   1  11
BRANCH   4  25
HETATM   25  C   UNL     1     -42.420  60.362 -57.520  1.00  0.00     0.409 C 
HETATM   26  F   UNL     1     -43.281  61.232 -56.959  1.00  0.00    -0.169 F 
HETATM   27  F   UNL     1     -41.397  60.152 -56.660  1.00  0.00    -0.169 F 
HETATM   28  F   UNL     1     -41.886  61.002 -58.598  1.00  0.00    -0.169 F 
ENDBRANCH   4  25
BRANCH   6  29
HETATM   29  C   UNL     1     -44.121  56.851 -59.933  1.00  0.00    -0.035 A 
HETATM   30  C   UNL     1     -45.035  57.922 -60.006  1.00  0.00     0.012 A 
HETATM   31  C   UNL     1     -46.359  57.718 -60.404  1.00  0.00     0.043 A 
HETATM   32  C   UNL     1     -46.780  56.446 -60.762  1.00  0.00     0.116 A 
HETATM   33  F   UNL     1     -48.050  56.253 -61.145  1.00  0.00    -0.206 F 
HETATM   34  C   UNL     1     -45.900  55.377 -60.740  1.00  0.00     0.043 A 
HETATM   35  C   UNL     1     -44.577  55.580 -60.337  1.00  0.00     0.012 A 
ENDBRANCH   6  29
TORSDOF 6
ENDMDL
MODEL 2
REMARK VINA RESULT:      -9.2      3.976      8.885
REMARK  6 active torsions:
REMARK  status: ('A' for Active; 'I' for Inactive)
REMARK    1  A    between atoms: C_2  and  O_3 
REMARK    2  A    between atoms: C_2  and  C_4 
REMARK    3  A    between atoms: C_7  and  N_8 
REMARK       I    between atoms: N_8  and  C_9 
REMARK    4  A    between atoms: C_9  and  C_10 
REMARK    5  A    between atoms: C_13  and  C_14 
REMARK    6  A    between atoms: C_19  and  C_20 
ROOT
HETATM    1  C   UNL     1     -43.000  57.867 -54.330  1.00  0.00     0.096 A 
HETATM    2  C   UNL     1     -42.685  57.397 -53.067  1.00  0.00     0.138 A 
HETATM    3  N   UNL     1     -41.507  58.020 -52.718  1.00  0.00    -0.240 N 
HETATM    4  C   UNL     1     -40.852  57.891 -51.429  1.00  0.00     0.221 C 
HETATM    5  C   UNL     1     -41.796  57.203 -50.419  1.00  0.00     0.066 C 
HETATM    6  C   UNL     1     -42.521  56.010 -51.063  1.00  0.00     0.118 C 
HETATM    7  N   UNL     1     -43.306  56.536 -52.203  1.00  0.00    -0.365 N 
HETATM    8  N   UNL     1     -40.982  58.767 -53.697  1.00  0.00    -0.181 NA
HETATM    9  C   UNL     1     -41.902  58.701 -54.662  1.00  0.00     0.160 A 
HETATM   10  H   UNL     1     -44.252  56.798 -51.912  1.00  0.00     0.161 HD
ENDROOT
BRANCH   1  11
HETATM   11  C   UNL     1     -44.147  57.602 -55.187  1.00  0.00     0.261 C 
HETATM   12  N   UNL     1     -43.961  57.965 -56.507  1.00  0.00    -0.323 N 
HETATM   13  H   UNL     1     -43.098  58.458 -56.703  1.00  0.00     0.169 HD
HETATM   14  O   UNL     1     -45.153  57.086 -54.719  1.00  0.00    -0.267 OA
BRANCH  12  15
HETATM   15  C   UNL     1     -44.809  57.696 -57.600  1.00  0.00     0.035 A 
HETATM   16  C   UNL     1     -46.098  58.212 -57.732  1.00  0.00     0.030 A 
HETATM   17  C   UNL     1     -46.907  57.857 -58.821  1.00  0.00     0.012 A 
HETATM   18  C   UNL     1     -46.450  56.971 -59.804  1.00  0.00    -0.030 A 
HETATM   19  C   UNL     1     -45.145  56.470 -59.671  1.00  0.00     0.012 A 
HETATM   20  C   UNL     1     -44.332  56.832 -58.590  1.00  0.00     0.030 A 
BRANCH  18  21
HETATM   21  C   UNL     1     -47.305  56.504 -60.966  1.00  0.00     0.147 C 
HETATM   22  C   UNL     1     -48.070  57.584 -61.727  1.00  0.00     0.044 C 
BRANCH  21  23
HETATM   23  O   UNL     1     -46.464  55.812 -61.890  1.00  0.00    -0.391 OA
HETATM   24  H   UNL     1     -45.926  56.479 -62.346  1.00  0.00     0.210 HD
ENDBRANCH  21  23
ENDBRANCH  18  21
ENDBRANCH  12  15
ENDBRANCH   1  11
BRANCH   4  25
HETATM   25  C   UNL     1     -40.429  59.235 -50.872  1.00  0.00     0.409 C 
HETATM   26  F   UNL     1     -39.164  59.580 -51.175  1.00  0.00    -0.169 F 
HETATM   27  F   UNL     1     -41.254  60.233 -51.262  1.00  0.00    -0.169 F 
HETATM   28  F   UNL     1     -40.494  59.196 -49.511  1.00  0.00    -0.169 F 
ENDBRANCH   4  25
BRANCH   6  29
HETATM   29  C   UNL     1     -41.618  54.845 -51.473  1.00  0.00    -0.035 A 
HETATM   30  C   UNL     1     -40.642  54.330 -50.595  1.00  0.00     0.012 A 
HETATM   31  C   UNL     1     -39.819  53.264 -50.973  1.00  0.00     0.043 A 
HETATM   32  C   UNL     1     -39.981  52.680 -52.220  1.00  0.00     0.116 A 
HETATM   33  F   UNL     1     -39.193  51.658 -52.579  1.00  0.00    -0.206 F 
HETATM   34  C   UNL     1     -40.956  53.135 -53.094  1.00  0.00     0.043 A 
HETATM   35  C   UNL     1     -41.775  54.205 -52.719  1.00  0.00     0.012 A 
ENDBRANCH   6  29
TORSDOF 6
ENDMDL
MODEL 3
REMARK VINA RESULT:      -8.8      3.541      8.815
REMARK  6 active torsions:
REMARK  status: ('A' for Active; 'I' for Inactive)
REMARK    1  A    between atoms: C_2  and  O_3 
REMARK    2  A    between atoms: C_2  and  C_4 
REMARK    3  A    between atoms: C_7  and  N_8 
REMARK       I    between atoms: N_8  and  C_9 
REMARK    4  A    between atoms: C_9  and  C_10 
REMARK    5  A    between atoms: C_13  and  C_14 
REMARK    6  A    between atoms: C_19  and  C_20 
ROOT
HETATM    1  C   UNL     1     -43.180  57.523 -56.560  1.00  0.00     0.096 A 
HETATM    2  C   UNL     1     -43.343  56.915 -55.327  1.00  0.00     0.138 A 
HETATM    3  N   UNL     1     -42.608  57.666 -54.438  1.00  0.00    -0.240 N 
HETATM    4  C   UNL     1     -42.563  57.444 -53.004  1.00  0.00     0.221 C 
HETATM    5  C   UNL     1     -43.666  56.448 -52.586  1.00  0.00     0.066 C 
HETATM    6  C   UNL     1     -43.749  55.269 -53.568  1.00  0.00     0.118 C 
HETATM    7  N   UNL     1     -44.062  55.830 -54.902  1.00  0.00    -0.365 N 
HETATM    8  N   UNL     1     -41.897  58.642 -55.016  1.00  0.00    -0.181 NA
HETATM    9  C   UNL     1     -42.268  58.577 -56.297  1.00  0.00     0.160 A 
HETATM   10  H   UNL     1     -45.073  55.874 -55.059  1.00  0.00     0.161 HD
ENDROOT
BRANCH   1  11
HETATM   11  C   UNL     1     -43.751  57.207 -57.862  1.00  0.00     0.261 C 
HETATM   12  N   UNL     1     -45.115  57.411 -57.944  1.00  0.00    -0.323 N 
HETATM   13  H   UNL     1     -45.569  57.657 -57.072  1.00  0.00     0.169 HD
HETATM   14  O   UNL     1     -43.027  56.815 -58.768  1.00  0.00    -0.267 OA
BRANCH  12  15
HETATM   15  C   UNL     1     -45.924  57.352 -59.095  1.00  0.00     0.035 A 
HETATM   16  C   UNL     1     -46.629  58.442 -59.609  1.00  0.00     0.030 A 
HETATM   17  C   UNL     1     -47.459  58.298 -60.729  1.00  0.00     0.012 A 
HETATM   18  C   UNL     1     -47.613  57.059 -61.363  1.00  0.00    -0.030 A 
HETATM   19  C   UNL     1     -46.886  55.972 -60.849  1.00  0.00     0.012 A 
HETATM   20  C   UNL     1     -46.048  56.117 -59.737  1.00  0.00     0.030 A 
BRANCH  18  21
HETATM   21  C   UNL     1     -48.546  56.834 -62.537  1.00  0.00     0.147 C 
HETATM   22  C   UNL     1     -49.420  58.016 -62.949  1.00  0.00     0.044 C 
BRANCH  21  23
HETATM   23  O   UNL     1     -47.761  56.440 -63.663  1.00  0.00    -0.391 OA
HETATM   24  H   UNL     1     -46.846  56.713 -63.487  1.00  0.00     0.210 HD
ENDBRANCH  21  23
ENDBRANCH  18  21
ENDBRANCH  12  15
ENDBRANCH   1  11
BRANCH   4  25
HETATM   25  C   UNL     1     -42.741  58.732 -52.226  1.00  0.00     0.409 C 
HETATM   26  F   UNL     1     -43.231  58.558 -50.984  1.00  0.00    -0.169 F 
HETATM   27  F   UNL     1     -41.593  59.441 -52.141  1.00  0.00    -0.169 F 
HETATM   28  F   UNL     1     -43.635  59.528 -52.876  1.00  0.00    -0.169 F 
ENDBRANCH   4  25
BRANCH   6  29
HETATM   29  C   UNL     1     -42.519  54.360 -53.599  1.00  0.00    -0.035 A 
HETATM   30  C   UNL     1     -41.941  53.951 -54.819  1.00  0.00     0.012 A 
HETATM   31  C   UNL     1     -40.816  53.122 -54.845  1.00  0.00     0.043 A 
HETATM   32  C   UNL     1     -40.237  52.713 -53.652  1.00  0.00     0.116 A 
HETATM   33  F   UNL     1     -39.158  51.919 -53.680  1.00  0.00    -0.206 F 
HETATM   34  C   UNL     1     -40.755  53.127 -52.435  1.00  0.00     0.043 A 
HETATM   35  C   UNL     1     -41.883  53.952 -52.410  1.00  0.00     0.012 A 
ENDBRANCH   6  29
TORSDOF 6
ENDMDL
MODEL 4
REMARK VINA RESULT:      -8.6      2.295      4.566
REMARK  6 active torsions:
REMARK  status: ('A' for Active; 'I' for Inactive)
REMARK    1  A    between atoms: C_2  and  O_3 
REMARK    2  A    between atoms: C_2  and  C_4 
REMARK    3  A    between atoms: C_7  and  N_8 
REMARK       I    between atoms: N_8  and  C_9 
REMARK    4  A    between atoms: C_9  and  C_10 
REMARK    5  A    between atoms: C_13  and  C_14 
REMARK    6  A    between atoms: C_19  and  C_20 
ROOT
HETATM    1  C   UNL     1     -43.544  56.144 -57.740  1.00  0.00     0.096 A 
HETATM    2  C   UNL     1     -44.244  57.223 -58.252  1.00  0.00     0.138 A 
HETATM    3  N   UNL     1     -44.780  56.790 -59.445  1.00  0.00    -0.240 N 
HETATM    4  C   UNL     1     -45.670  57.571 -60.285  1.00  0.00     0.221 C 
HETATM    5  C   UNL     1     -46.158  58.822 -59.524  1.00  0.00     0.066 C 
HETATM    6  C   UNL     1     -45.005  59.488 -58.757  1.00  0.00     0.118 C 
HETATM    7  N   UNL     1     -44.483  58.491 -57.796  1.00  0.00    -0.365 N 
HETATM    8  N   UNL     1     -44.391  55.558 -59.795  1.00  0.00    -0.181 NA
HETATM    9  C   UNL     1     -43.669  55.153 -58.747  1.00  0.00     0.160 A 
HETATM   10  H   UNL     1     -44.961  58.559 -56.893  1.00  0.00     0.161 HD
ENDROOT
BRANCH   1  11
HETATM   11  C   UNL     1     -42.813  55.989 -56.490  1.00  0.00     0.261 C 
HETATM   12  N   UNL     1     -43.000  54.766 -55.875  1.00  0.00    -0.323 N 
HETATM   13  H   UNL     1     -43.692  54.166 -56.307  1.00  0.00     0.169 HD
HETATM   14  O   UNL     1     -42.099  56.897 -56.083  1.00  0.00    -0.267 OA
BRANCH  12  15
HETATM   15  C   UNL     1     -42.316  54.255 -54.754  1.00  0.00     0.035 A 
HETATM   16  C   UNL     1     -42.794  54.338 -53.446  1.00  0.00     0.030 A 
HETATM   17  C   UNL     1     -42.034  53.855 -52.371  1.00  0.00     0.012 A 
HETATM   18  C   UNL     1     -40.773  53.282 -52.575  1.00  0.00    -0.030 A 
HETATM   19  C   UNL     1     -40.308  53.188 -53.897  1.00  0.00     0.012 A 
HETATM   20  C   UNL     1     -41.071  53.660 -54.972  1.00  0.00     0.030 A 
BRANCH  18  21
HETATM   21  C   UNL     1     -39.883  52.804 -51.444  1.00  0.00     0.147 C 
HETATM   22  C   UNL     1     -40.424  52.985 -50.028  1.00  0.00     0.044 C 
BRANCH  21  23
HETATM   23  O   UNL     1     -39.609  51.417 -51.647  1.00  0.00    -0.391 OA
HETATM   24  H   UNL     1     -38.737  51.235 -51.261  1.00  0.00     0.210 HD
ENDBRANCH  21  23
ENDBRANCH  18  21
ENDBRANCH  12  15
ENDBRANCH   1  11
BRANCH   4  25
HETATM   25  C   UNL     1     -46.872  56.767 -60.736  1.00  0.00     0.409 C 
HETATM   26  F   UNL     1     -46.599  55.863 -61.696  1.00  0.00    -0.169 F 
HETATM   27  F   UNL     1     -47.480  56.133 -59.707  1.00  0.00    -0.169 F 
HETATM   28  F   UNL     1     -47.801  57.610 -61.267  1.00  0.00    -0.169 F 
ENDBRANCH   4  25
BRANCH   6  29
HETATM   29  C   UNL     1     -43.898  60.081 -59.631  1.00  0.00    -0.035 A 
HETATM   30  C   UNL     1     -44.117  60.369 -60.994  1.00  0.00     0.012 A 
HETATM   31  C   UNL     1     -43.104  60.912 -61.791  1.00  0.00     0.043 A 
HETATM   32  C   UNL     1     -41.870  61.201 -61.229  1.00  0.00     0.116 A 
HETATM   33  F   UNL     1     -40.901  61.723 -61.994  1.00  0.00    -0.206 F 
HETATM   34  C   UNL     1     -41.632  60.968 -59.884  1.00  0.00     0.043 A 
HETATM   35  C   UNL     1     -42.643  60.420 -59.089  1.00  0.00     0.012 A 
ENDBRANCH   6  29
TORSDOF 6
ENDMDL
MODEL 5
REMARK VINA RESULT:      -8.5      1.619      2.156
REMARK  6 active torsions:
REMARK  status: ('A' for Active; 'I' for Inactive)
REMARK    1  A    between atoms: C_2  and  O_3 
REMARK    2  A    between atoms: C_2  and  C_4 
REMARK    3  A    between atoms: C_7  and  N_8 
REMARK       I    between atoms: N_8  and  C_9 
REMARK    4  A    between atoms: C_9  and  C_10 
REMARK    5  A    between atoms: C_13  and  C_14 
REMARK    6  A    between atoms: C_19  and  C_20 
ROOT
HETATM    1  C   UNL     1     -42.744  56.913 -54.590  1.00  0.00     0.096 A 
HETATM    2  C   UNL     1     -42.759  57.565 -55.810  1.00  0.00     0.138 A 
HETATM    3  N   UNL     1     -43.923  58.302 -55.829  1.00  0.00    -0.240 N 
HETATM    4  C   UNL     1     -44.308  59.216 -56.888  1.00  0.00     0.221 C 
HETATM    5  C   UNL     1     -43.115  59.465 -57.835  1.00  0.00     0.066 C 
HETATM    6  C   UNL     1     -42.374  58.156 -58.149  1.00  0.00     0.118 C 
HETATM    7  N   UNL     1     -41.885  57.609 -56.863  1.00  0.00    -0.365 N 
HETATM    8  N   UNL     1     -44.710  58.091 -54.766  1.00  0.00    -0.181 NA
HETATM    9  C   UNL     1     -43.982  57.275 -54.000  1.00  0.00     0.160 A 
HETATM   10  H   UNL     1     -40.943  57.948 -56.649  1.00  0.00     0.161 HD
ENDROOT
BRANCH   1  11
HETATM   11  C   UNL     1     -41.750  56.035 -53.990  1.00  0.00     0.261 C 
HETATM   12  N   UNL     1     -42.160  54.722 -53.862  1.00  0.00    -0.323 N 
HETATM   13  H   UNL     1     -43.127  54.545 -54.105  1.00  0.00     0.169 HD
HETATM   14  O   UNL     1     -40.657  56.482 -53.664  1.00  0.00    -0.267 OA
BRANCH  12  15
HETATM   15  C   UNL     1     -41.382  53.613 -53.474  1.00  0.00     0.035 A 
HETATM   16  C   UNL     1     -40.920  52.638 -54.359  1.00  0.00     0.030 A 
HETATM   17  C   UNL     1     -40.196  51.531 -53.894  1.00  0.00     0.012 A 
HETATM   18  C   UNL     1     -39.920  51.366 -52.532  1.00  0.00    -0.030 A 
HETATM   19  C   UNL     1     -40.374  52.361 -51.652  1.00  0.00     0.012 A 
HETATM   20  C   UNL     1     -41.089  53.472 -52.116  1.00  0.00     0.030 A 
BRANCH  18  21
HETATM   21  C   UNL     1     -39.198  50.157 -51.970  1.00  0.00     0.147 C 
HETATM   22  C   UNL     1     -39.595  49.719 -50.563  1.00  0.00     0.044 C 
BRANCH  21  23
HETATM   23  O   UNL     1     -39.405  49.058 -52.859  1.00  0.00    -0.391 OA
HETATM   24  H   UNL     1     -39.410  48.249 -52.322  1.00  0.00     0.210 HD
ENDBRANCH  21  23
ENDBRANCH  18  21
ENDBRANCH  12  15
ENDBRANCH   1  11
BRANCH   4  25
HETATM   25  C   UNL     1     -44.790  60.544 -56.341  1.00  0.00     0.409 C 
HETATM   26  F   UNL     1     -44.166  60.931 -55.213  1.00  0.00    -0.169 F 
HETATM   27  F   UNL     1     -44.691  61.539 -57.252  1.00  0.00    -0.169 F 
HETATM   28  F   UNL     1     -46.112  60.446 -56.026  1.00  0.00    -0.169 F 
ENDBRANCH   4  25
BRANCH   6  29
HETATM   29  C   UNL     1     -43.180  57.127 -58.945  1.00  0.00    -0.035 A 
HETATM   30  C   UNL     1     -43.171  55.761 -58.595  1.00  0.00     0.012 A 
HETATM   31  C   UNL     1     -43.909  54.823 -59.324  1.00  0.00     0.043 A 
HETATM   32  C   UNL     1     -44.688  55.242 -60.392  1.00  0.00     0.116 A 
HETATM   33  F   UNL     1     -45.396  54.342 -61.087  1.00  0.00    -0.206 F 
HETATM   34  C   UNL     1     -44.751  56.582 -60.740  1.00  0.00     0.043 A 
HETATM   35  C   UNL     1     -44.008  57.519 -60.015  1.00  0.00     0.012 A 
ENDBRANCH   6  29
TORSDOF 6
ENDMDL
MODEL 6
REMARK VINA RESULT:      -8.3     15.893     19.168
REMARK  6 active torsions:
REMARK  status: ('A' for Active; 'I' for Inactive)
REMARK    1  A    between atoms: C_2  and  O_3 
REMARK    2  A    between atoms: C_2  and  C_4 
REMARK    3  A    between atoms: C_7  and  N_8 
REMARK       I    between atoms: N_8  and  C_9 
REMARK    4  A    between atoms: C_9  and  C_10 
REMARK    5  A    between atoms: C_13  and  C_14 
REMARK    6  A    between atoms: C_19  and  C_20 
ROOT
HETATM    1  C   UNL     1     -36.680  41.115 -55.360  1.00  0.00     0.096 A 
HETATM    2  C   UNL     1     -35.785  40.353 -54.629  1.00  0.00     0.138 A 
HETATM    3  N   UNL     1     -35.240  41.206 -53.696  1.00  0.00    -0.240 N 
HETATM    4  C   UNL     1     -34.312  40.809 -52.652  1.00  0.00     0.221 C 
HETATM    5  C   UNL     1     -34.250  39.269 -52.553  1.00  0.00     0.066 C 
HETATM    6  C   UNL     1     -34.197  38.626 -53.948  1.00  0.00     0.118 C 
HETATM    7  N   UNL     1     -35.426  39.032 -54.666  1.00  0.00    -0.365 N 
HETATM    8  N   UNL     1     -35.628  42.480 -53.838  1.00  0.00    -0.181 NA
HETATM    9  C   UNL     1     -36.526  42.419 -54.825  1.00  0.00     0.160 A 
HETATM   10  H   UNL     1     -36.182  38.358 -54.519  1.00  0.00     0.161 HD
ENDROOT
BRANCH   1  11
HETATM   11  C   UNL     1     -37.581  40.750 -56.444  1.00  0.00     0.261 C 
HETATM   12  N   UNL     1     -36.949  40.191 -57.538  1.00  0.00    -0.323 N 
HETATM   13  H   UNL     1     -35.937  40.191 -57.501  1.00  0.00     0.169 HD
HETATM   14  O   UNL     1     -38.785  40.934 -56.325  1.00  0.00    -0.267 OA
BRANCH  12  15
HETATM   15  C   UNL     1     -37.550  39.594 -58.664  1.00  0.00     0.035 A 
HETATM   16  C   UNL     1     -38.441  38.523 -58.596  1.00  0.00     0.030 A 
HETATM   17  C   UNL     1     -38.960  37.943 -59.763  1.00  0.00     0.012 A 
HETATM   18  C   UNL     1     -38.595  38.415 -61.029  1.00  0.00    -0.030 A 
HETATM   19  C   UNL     1     -37.711  39.505 -61.087  1.00  0.00     0.012 A 
HETATM   20  C   UNL     1     -37.201  40.091 -59.923  1.00  0.00     0.030 A 
BRANCH  18  21
HETATM   21  C   UNL     1     -39.075  37.784 -62.322  1.00  0.00     0.147 C 
HETATM   22  C   UNL     1     -40.558  37.939 -62.647  1.00  0.00     0.044 C 
BRANCH  21  23
HETATM   23  O   UNL     1     -38.318  38.340 -63.398  1.00  0.00    -0.391 OA
HETATM   24  H   UNL     1     -37.382  38.312 -63.139  1.00  0.00     0.210 HD
ENDBRANCH  21  23
ENDBRANCH  18  21
ENDBRANCH  12  15
ENDBRANCH   1  11
BRANCH   4  25
HETATM   25  C   UNL     1     -34.703  41.374 -51.302  1.00  0.00     0.409 C 
HETATM   26  F   UNL     1     -34.445  42.689 -51.163  1.00  0.00    -0.169 F 
HETATM   27  F   UNL     1     -36.006  41.158 -51.014  1.00  0.00    -0.169 F 
HETATM   28  F   UNL     1     -33.987  40.745 -50.328  1.00  0.00    -0.169 F 
ENDBRANCH   4  25
BRANCH   6  29
HETATM   29  C   UNL     1     -32.931  38.927 -54.754  1.00  0.00    -0.035 A 
HETATM   30  C   UNL     1     -31.694  38.340 -54.420  1.00  0.00     0.012 A 
HETATM   31  C   UNL     1     -30.539  38.615 -55.160  1.00  0.00     0.043 A 
HETATM   32  C   UNL     1     -30.613  39.457 -56.260  1.00  0.00     0.116 A 
HETATM   33  F   UNL     1     -29.506  39.718 -56.968  1.00  0.00    -0.206 F 
HETATM   34  C   UNL     1     -31.820  40.021 -56.640  1.00  0.00     0.043 A 
HETATM   35  C   UNL     1     -32.973  39.750 -55.897  1.00  0.00     0.012 A 
ENDBRANCH   6  29
TORSDOF 6
ENDMDL
MODEL 7
REMARK VINA RESULT:      -8.2      4.490      9.160
REMARK  6 active torsions:
REMARK  status: ('A' for Active; 'I' for Inactive)
REMARK    1  A    between atoms: C_2  and  O_3 
REMARK    2  A    between atoms: C_2  and  C_4 
REMARK    3  A    between atoms: C_7  and  N_8 
REMARK       I    between atoms: N_8  and  C_9 
REMARK    4  A    between atoms: C_9  and  C_10 
REMARK    5  A    between atoms: C_13  and  C_14 
REMARK    6  A    between atoms: C_19  and  C_20 
ROOT
HETATM    1  C   UNL     1     -42.161  59.038 -55.803  1.00  0.00     0.096 A 
HETATM    2  C   UNL     1     -42.826  57.961 -55.244  1.00  0.00     0.138 A 
HETATM    3  N   UNL     1     -42.795  58.166 -53.882  1.00  0.00    -0.240 N 
HETATM    4  C   UNL     1     -43.455  57.323 -52.902  1.00  0.00     0.221 C 
HETATM    5  C   UNL     1     -44.423  56.347 -53.606  1.00  0.00     0.066 C 
HETATM    6  C   UNL     1     -43.784  55.745 -54.867  1.00  0.00     0.118 C 
HETATM    7  N   UNL     1     -43.459  56.870 -55.774  1.00  0.00    -0.365 N 
HETATM    8  N   UNL     1     -42.070  59.230 -53.514  1.00  0.00    -0.181 NA
HETATM    9  C   UNL     1     -41.713  59.777 -54.678  1.00  0.00     0.160 A 
HETATM   10  H   UNL     1     -44.236  57.068 -56.411  1.00  0.00     0.161 HD
ENDROOT
BRANCH   1  11
HETATM   11  C   UNL     1     -41.917  59.391 -57.195  1.00  0.00     0.261 C 
HETATM   12  N   UNL     1     -41.790  60.748 -57.419  1.00  0.00    -0.323 N 
HETATM   13  H   UNL     1     -41.977  61.339 -56.617  1.00  0.00     0.169 HD
HETATM   14  O   UNL     1     -41.828  58.511 -58.041  1.00  0.00    -0.267 OA
BRANCH  12  15
HETATM   15  C   UNL     1     -41.396  61.388 -58.610  1.00  0.00     0.035 A 
HETATM   16  C   UNL     1     -42.039  61.216 -59.837  1.00  0.00     0.030 A 
HETATM   17  C   UNL     1     -41.559  61.843 -60.995  1.00  0.00     0.012 A 
HETATM   18  C   UNL     1     -40.420  62.656 -60.959  1.00  0.00    -0.030 A 
HETATM   19  C   UNL     1     -39.790  62.837 -59.717  1.00  0.00     0.012 A 
HETATM   20  C   UNL     1     -40.274  62.219 -58.558  1.00  0.00     0.030 A 
BRANCH  18  21
HETATM   21  C   UNL     1     -39.821  63.305 -62.192  1.00  0.00     0.147 C 
HETATM   22  C   UNL     1     -38.400  63.844 -62.057  1.00  0.00     0.044 C 
BRANCH  21  23
HETATM   23  O   UNL     1     -39.842  62.352 -63.255  1.00  0.00    -0.391 OA
HETATM   24  H   UNL     1     -38.939  62.292 -63.608  1.00  0.00     0.210 HD
ENDBRANCH  21  23
ENDBRANCH  18  21
ENDBRANCH  12  15
ENDBRANCH   1  11
BRANCH   4  25
HETATM   25  C   UNL     1     -44.228  58.136 -51.884  1.00  0.00     0.409 C 
HETATM   26  F   UNL     1     -43.457  58.706 -50.939  1.00  0.00    -0.169 F 
HETATM   27  F   UNL     1     -44.982  59.098 -52.463  1.00  0.00    -0.169 F 
HETATM   28  F   UNL     1     -45.094  57.319 -51.222  1.00  0.00    -0.169 F 
ENDBRANCH   4  25
BRANCH   6  29
HETATM   29  C   UNL     1     -42.576  54.840 -54.615  1.00  0.00    -0.035 A 
HETATM   30  C   UNL     1     -41.458  54.857 -55.473  1.00  0.00     0.012 A 
HETATM   31  C   UNL     1     -40.354  54.030 -55.240  1.00  0.00     0.043 A 
HETATM   32  C   UNL     1     -40.343  53.197 -54.131  1.00  0.00     0.116 A 
HETATM   33  F   UNL     1     -39.284  52.407 -53.909  1.00  0.00    -0.206 F 
HETATM   34  C   UNL     1     -41.408  53.183 -53.245  1.00  0.00     0.043 A 
HETATM   35  C   UNL     1     -42.513  54.006 -53.481  1.00  0.00     0.012 A 
ENDBRANCH   6  29
TORSDOF 6
ENDMDL
MODEL 8
REMARK VINA RESULT:      -8.1      2.887      4.989
REMARK  6 active torsions:
REMARK  status: ('A' for Active; 'I' for Inactive)
REMARK    1  A    between atoms: C_2  and  O_3 
REMARK    2  A    between atoms: C_2  and  C_4 
REMARK    3  A    between atoms: C_7  and  N_8 
REMARK       I    between atoms: N_8  and  C_9 
REMARK    4  A    between atoms: C_9  and  C_10 
REMARK    5  A    between atoms: C_13  and  C_14 
REMARK    6  A    between atoms: C_19  and  C_20 
ROOT
HETATM    1  C   UNL     1     -43.346  56.399 -57.116  1.00  0.00     0.096 A 
HETATM    2  C   UNL     1     -44.057  57.204 -57.989  1.00  0.00     0.138 A 
HETATM    3  N   UNL     1     -44.136  56.499 -59.170  1.00  0.00    -0.240 N 
HETATM    4  C   UNL     1     -44.876  56.927 -60.343  1.00  0.00     0.221 C 
HETATM    5  C   UNL     1     -45.786  58.123 -59.990  1.00  0.00     0.066 C 
HETATM    6  C   UNL     1     -45.048  59.138 -59.104  1.00  0.00     0.118 C 
HETATM    7  N   UNL     1     -44.648  58.432 -57.866  1.00  0.00    -0.365 N 
HETATM    8  N   UNL     1     -43.440  55.354 -59.161  1.00  0.00    -0.181 NA
HETATM    9  C   UNL     1     -42.989  55.277 -57.907  1.00  0.00     0.160 A 
HETATM   10  H   UNL     1     -45.370  58.511 -57.144  1.00  0.00     0.161 HD
ENDROOT
BRANCH   1  11
HETATM   11  C   UNL     1     -42.990  56.592 -55.717  1.00  0.00     0.261 C 
HETATM   12  N   UNL     1     -43.151  55.466 -54.934  1.00  0.00    -0.323 N 
HETATM   13  H   UNL     1     -43.586  54.676 -55.395  1.00  0.00     0.169 HD
HETATM   14  O   UNL     1     -42.574  57.679 -55.337  1.00  0.00    -0.267 OA
BRANCH  12  15
HETATM   15  C   UNL     1     -42.747  55.285 -53.596  1.00  0.00     0.035 A 
HETATM   16  C   UNL     1     -43.438  55.796 -52.497  1.00  0.00     0.030 A 
HETATM   17  C   UNL     1     -42.948  55.624 -51.195  1.00  0.00     0.012 A 
HETATM   18  C   UNL     1     -41.750  54.941 -50.957  1.00  0.00    -0.030 A 
HETATM   19  C   UNL     1     -41.069  54.416 -52.068  1.00  0.00     0.012 A 
HETATM   20  C   UNL     1     -41.563  54.578 -53.368  1.00  0.00     0.030 A 
BRANCH  18  21
HETATM   21  C   UNL     1     -41.142  54.782 -49.577  1.00  0.00     0.147 C 
HETATM   22  C   UNL     1     -39.687  54.324 -49.521  1.00  0.00     0.044 C 
BRANCH  21  23
HETATM   23  O   UNL     1     -41.247  56.033 -48.895  1.00  0.00    -0.391 OA
HETATM   24  H   UNL     1     -40.372  56.235 -48.525  1.00  0.00     0.210 HD
ENDBRANCH  21  23
ENDBRANCH  18  21
ENDBRANCH  12  15
ENDBRANCH   1  11
BRANCH   4  25
HETATM   25  C   UNL     1     -45.726  55.811 -60.915  1.00  0.00     0.409 C 
HETATM   26  F   UNL     1     -46.887  56.228 -61.454  1.00  0.00    -0.169 F 
HETATM   27  F   UNL     1     -45.060  55.081 -61.837  1.00  0.00    -0.169 F 
HETATM   28  F   UNL     1     -46.063  54.948 -59.916  1.00  0.00    -0.169 F 
ENDBRANCH   4  25
BRANCH   6  29
HETATM   29  C   UNL     1     -43.867  59.847 -59.771  1.00  0.00    -0.035 A 
HETATM   30  C   UNL     1     -43.863  60.119 -61.154  1.00  0.00     0.012 A 
HETATM   31  C   UNL     1     -42.783  60.767 -61.761  1.00  0.00     0.043 A 
HETATM   32  C   UNL     1     -41.706  61.178 -60.988  1.00  0.00     0.116 A 
HETATM   33  F   UNL     1     -40.674  61.800 -61.571  1.00  0.00    -0.206 F 
HETATM   34  C   UNL     1     -41.694  60.961 -59.619  1.00  0.00     0.043 A 
HETATM   35  C   UNL     1     -42.772  60.308 -59.014  1.00  0.00     0.012 A 
ENDBRANCH   6  29
TORSDOF 6
ENDMDL
MODEL 9
REMARK VINA RESULT:      -7.9      3.162      4.497
REMARK  6 active torsions:
REMARK  status: ('A' for Active; 'I' for Inactive)
REMARK    1  A    between atoms: C_2  and  O_3 
REMARK    2  A    between atoms: C_2  and  C_4 
REMARK    3  A    between atoms: C_7  and  N_8 
REMARK       I    between atoms: N_8  and  C_9 
REMARK    4  A    between atoms: C_9  and  C_10 
REMARK    5  A    between atoms: C_13  and  C_14 
REMARK    6  A    between atoms: C_19  and  C_20 
ROOT
HETATM    1  C   UNL     1     -43.564  56.883 -51.961  1.00  0.00     0.096 A 
HETATM    2  C   UNL     1     -43.009  57.966 -52.619  1.00  0.00     0.138 A 
HETATM    3  N   UNL     1     -43.795  59.048 -52.292  1.00  0.00    -0.240 N 
HETATM    4  C   UNL     1     -43.529  60.418 -52.692  1.00  0.00     0.221 C 
HETATM    5  C   UNL     1     -42.106  60.533 -53.279  1.00  0.00     0.066 C 
HETATM    6  C   UNL     1     -41.799  59.358 -54.221  1.00  0.00     0.118 C 
HETATM    7  N   UNL     1     -41.912  58.115 -53.425  1.00  0.00    -0.365 N 
HETATM    8  N   UNL     1     -44.874  58.730 -51.566  1.00  0.00    -0.181 NA
HETATM    9  C   UNL     1     -44.717  57.424 -51.336  1.00  0.00     0.160 A 
HETATM   10  H   UNL     1     -41.013  57.858 -53.009  1.00  0.00     0.161 HD
ENDROOT
BRANCH   1  11
HETATM   11  C   UNL     1     -43.141  55.491 -51.890  1.00  0.00     0.261 C 
HETATM   12  N   UNL     1     -42.303  55.104 -52.918  1.00  0.00    -0.323 N 
HETATM   13  H   UNL     1     -42.161  55.795 -53.645  1.00  0.00     0.169 HD
HETATM   14  O   UNL     1     -43.520  54.784 -50.966  1.00  0.00    -0.267 OA
BRANCH  12  15
HETATM   15  C   UNL     1     -41.604  53.887 -53.043  1.00  0.00     0.035 A 
HETATM   16  C   UNL     1     -40.714  53.397 -52.087  1.00  0.00     0.030 A 
HETATM   17  C   UNL     1     -40.011  52.203 -52.303  1.00  0.00     0.012 A 
HETATM   18  C   UNL     1     -40.175  51.470 -53.484  1.00  0.00    -0.030 A 
HETATM   19  C   UNL     1     -41.086  51.962 -54.433  1.00  0.00     0.012 A 
HETATM   20  C   UNL     1     -41.796  53.148 -54.214  1.00  0.00     0.030 A 
BRANCH  18  21
HETATM   21  C   UNL     1     -39.393  50.209 -53.795  1.00  0.00     0.147 C 
HETATM   22  C   UNL     1     -39.250  49.197 -52.661  1.00  0.00     0.044 C 
BRANCH  21  23
HETATM   23  O   UNL     1     -40.017  49.558 -54.903  1.00  0.00    -0.391 OA
HETATM   24  H   UNL     1     -39.446  49.692 -55.677  1.00  0.00     0.210 HD
ENDBRANCH  21  23
ENDBRANCH  18  21
ENDBRANCH  12  15
ENDBRANCH   1  11
BRANCH   4  25
HETATM   25  C   UNL     1     -43.663  61.383 -51.531  1.00  0.00     0.409 C 
HETATM   26  F   UNL     1     -44.933  61.733 -51.254  1.00  0.00    -0.169 F 
HETATM   27  F   UNL     1     -43.090  60.908 -50.401  1.00  0.00    -0.169 F 
HETATM   28  F   UNL     1     -43.010  62.540 -51.832  1.00  0.00    -0.169 F 
ENDBRANCH   4  25
BRANCH   6  29
HETATM   29  C   UNL     1     -42.646  59.307 -55.494  1.00  0.00    -0.035 A 
HETATM   30  C   UNL     1     -42.922  60.473 -56.237  1.00  0.00     0.012 A 
HETATM   31  C   UNL     1     -43.695  60.423 -57.401  1.00  0.00     0.043 A 
HETATM   32  C   UNL     1     -44.179  59.204 -57.852  1.00  0.00     0.116 A 
HETATM   33  F   UNL     1     -44.918  59.158 -58.969  1.00  0.00    -0.206 F 
HETATM   34  C   UNL     1     -43.895  58.033 -57.168  1.00  0.00     0.043 A 
HETATM   35  C   UNL     1     -43.126  58.083 -56.002  1.00  0.00     0.012 A 
ENDBRANCH   6  29
TORSDOF 6
ENDMDL
MODEL 10
REMARK VINA RESULT:      -7.8      6.593      9.852
REMARK  6 active torsions:
REMARK  status: ('A' for Active; 'I' for Inactive)
REMARK    1  A    between atoms: C_2  and  O_3 
REMARK    2  A    between atoms: C_2  and  C_4 
REMARK    3  A    between atoms: C_7  and  N_8 
REMARK       I    between atoms: N_8  and  C_9 
REMARK    4  A    between atoms: C_9  and  C_10 
REMARK    5  A    between atoms: C_13  and  C_14 
REMARK    6  A    between atoms: C_19  and  C_20 
ROOT
HETATM    1  C   UNL     1     -42.163  58.803 -50.768  1.00  0.00     0.096 A 
HETATM    2  C   UNL     1     -42.537  57.491 -51.003  1.00  0.00     0.138 A 
HETATM    3  N   UNL     1     -41.392  56.741 -50.855  1.00  0.00    -0.240 N 
HETATM    4  C   UNL     1     -41.336  55.292 -50.924  1.00  0.00     0.221 C 
HETATM    5  C   UNL     1     -42.762  54.703 -50.896  1.00  0.00     0.066 C 
HETATM    6  C   UNL     1     -43.710  55.503 -51.803  1.00  0.00     0.118 C 
HETATM    7  N   UNL     1     -43.734  56.893 -51.295  1.00  0.00    -0.365 N 
HETATM    8  N   UNL     1     -40.290  57.475 -50.652  1.00  0.00    -0.181 NA
HETATM    9  C   UNL     1     -40.761  58.721 -50.566  1.00  0.00     0.160 A 
HETATM   10  H   UNL     1     -44.480  57.024 -50.606  1.00  0.00     0.161 HD
ENDROOT
BRANCH   1  11
HETATM   11  C   UNL     1     -42.949  60.028 -50.738  1.00  0.00     0.261 C 
HETATM   12  N   UNL     1     -44.098  59.943 -49.976  1.00  0.00    -0.323 N 
HETATM   13  H   UNL     1     -44.309  59.021 -49.612  1.00  0.00     0.169 HD
HETATM   14  O   UNL     1     -42.560  61.018 -51.345  1.00  0.00    -0.267 OA
BRANCH  12  15
HETATM   15  C   UNL     1     -44.973  60.988 -49.621  1.00  0.00     0.035 A 
HETATM   16  C   UNL     1     -44.987  61.603 -48.369  1.00  0.00     0.030 A 
HETATM   17  C   UNL     1     -45.923  62.601 -48.067  1.00  0.00     0.012 A 
HETATM   18  C   UNL     1     -46.875  63.009 -49.008  1.00  0.00    -0.030 A 
HETATM   19  C   UNL     1     -46.843  62.397 -50.272  1.00  0.00     0.012 A 
HETATM   20  C   UNL     1     -45.902  61.406 -50.578  1.00  0.00     0.030 A 
BRANCH  18  21
HETATM   21  C   UNL     1     -47.950  64.037 -48.714  1.00  0.00     0.147 C 
HETATM   22  C   UNL     1     -49.169  64.033 -49.633  1.00  0.00     0.044 C 
BRANCH  21  23
HETATM   23  O   UNL     1     -48.398  63.844 -47.371  1.00  0.00    -0.391 OA
HETATM   24  H   UNL     1     -48.065  64.588 -46.845  1.00  0.00     0.210 HD
ENDBRANCH  21  23
ENDBRANCH  18  21
ENDBRANCH  12  15
ENDBRANCH   1  11
BRANCH   4  25
HETATM   25  C   UNL     1     -40.535  54.702 -49.781  1.00  0.00     0.409 C 
HETATM   26  F   UNL     1     -39.206  54.882 -49.892  1.00  0.00    -0.169 F 
HETATM   27  F   UNL     1     -40.935  55.174 -48.578  1.00  0.00    -0.169 F 
HETATM   28  F   UNL     1     -40.731  53.354 -49.746  1.00  0.00    -0.169 F 
ENDBRANCH   4  25
BRANCH   6  29
HETATM   29  C   UNL     1     -43.388  55.440 -53.298  1.00  0.00    -0.035 A 
HETATM   30  C   UNL     1     -42.879  54.265 -53.888  1.00  0.00     0.012 A 
HETATM   31  C   UNL     1     -42.586  54.210 -55.254  1.00  0.00     0.043 A 
HETATM   32  C   UNL     1     -42.826  55.319 -56.053  1.00  0.00     0.116 A 
HETATM   33  F   UNL     1     -42.547  55.263 -57.362  1.00  0.00    -0.206 F 
HETATM   34  C   UNL     1     -43.362  56.477 -55.514  1.00  0.00     0.043 A 
HETATM   35  C   UNL     1     -43.649  56.534 -54.146  1.00  0.00     0.012 A 
ENDBRANCH   6  29
TORSDOF 6
ENDMDL
