MODEL 1
REMARK VINA RESULT:      -8.6      0.000      0.000
REMARK  5 active torsions:
REMARK  status: ('A' for Active; 'I' for Inactive)
REMARK    1  A    between atoms: C_4  and  N_5 
REMARK       I    between atoms: N_5  and  C_6 
REMARK       I    between atoms: C_6  and  N_7 
REMARK    2  A    between atoms: N_7  and  C_8 
REMARK    3  A    between atoms: C_8  and  C_9 
REMARK       I    between atoms: C_9  and  N_10 
REMARK    4  A    between atoms: N_10  and  C_11 
REMARK    5  A    between atoms: C_13  and  C_14 
ROOT
HETATM    1  C   UNL     1     -43.147  55.571 -53.803  1.00  0.00     0.239 C 
HETATM    2  N   UNL     1     -41.875  55.657 -53.267  1.00  0.00    -0.326 N 
HETATM    3  O   UNL     1     -43.923  54.624 -53.702  1.00  0.00    -0.271 OA
HETATM    4  H   UNL     1     -41.313  56.441 -53.607  1.00  0.00     0.169 HD
ENDROOT
BRANCH   1   5
HETATM    5  C   UNL     1     -43.574  56.865 -54.517  1.00  0.00     0.227 C 
BRANCH   5   6
HETATM    6  N   UNL     1     -43.687  56.784 -55.964  1.00  0.00    -0.334 N 
HETATM    7  C   UNL     1     -43.110  57.720 -56.762  1.00  0.00     0.321 C 
HETATM    8  N   UNL     1     -43.414  57.710 -58.087  1.00  0.00    -0.309 N 
HETATM    9  O   UNL     1     -42.372  58.597 -56.313  1.00  0.00    -0.247 OA
HETATM   10  H   UNL     1     -43.054  58.541 -58.542  1.00  0.00     0.170 HD
HETATM   11  H   UNL     1     -44.605  56.521 -56.288  1.00  0.00     0.164 HD
BRANCH   8  12
HETATM   12  C   UNL     1     -44.142  56.827 -58.909  1.00  0.00     0.036 A 
HETATM   13  C   UNL     1     -45.417  57.079 -59.425  1.00  0.00     0.036 A 
HETATM   14  C   UNL     1     -46.037  56.165 -60.295  1.00  0.00    -0.060 A 
HETATM   15  C   UNL     1     -47.402  56.449 -60.852  1.00  0.00     0.048 C 
HETATM   16  C   UNL     1     -45.395  54.960 -60.595  1.00  0.00     0.007 A 
HETATM   17  C   UNL     1     -44.150  54.675 -60.044  1.00  0.00     0.003 A 
HETATM   18  C   UNL     1     -43.531  55.602 -59.203  1.00  0.00     0.029 A 
ENDBRANCH   8  12
ENDBRANCH   5   6
ENDBRANCH   1   5
BRANCH   2  19
HETATM   19  C   UNL     1     -41.260  54.798 -52.337  1.00  0.00     0.035 A 
HETATM   20  C   UNL     1     -40.949  53.502 -52.778  1.00  0.00     0.042 A 
HETATM   21  C   UNL     1     -40.261  52.595 -51.954  1.00  0.00    -0.021 A 
HETATM   22  C   UNL     1     -39.922  52.997 -50.657  1.00  0.00     0.012 A 
HETATM   23  C   UNL     1     -40.246  54.277 -50.204  1.00  0.00     0.003 A 
HETATM   24  C   UNL     1     -40.905  55.176 -51.044  1.00  0.00     0.029 A 
BRANCH  21  25
HETATM   25  C   UNL     1     -39.884  51.274 -52.433  1.00  0.00     0.010 A 
HETATM   26  C   UNL     1     -39.801  50.750 -53.746  1.00  0.00     0.152 A 
HETATM   27  N   UNL     1     -39.449  49.462 -53.773  1.00  0.00    -0.187 NA
HETATM   28  N   UNL     1     -39.308  49.151 -52.475  1.00  0.00    -0.289 N 
HETATM   29  H   UNL     1     -39.047  48.201 -52.234  1.00  0.00     0.188 HD
HETATM   30  C   UNL     1     -39.559  50.197 -51.635  1.00  0.00     0.123 A 
ENDBRANCH  21  25
ENDBRANCH   2  19
TORSDOF 5
ENDMDL
MODEL 2
REMARK VINA RESULT:      -8.5      1.704      2.043
REMARK  5 active torsions:
REMARK  status: ('A' for Active; 'I' for Inactive)
REMARK    1  A    between atoms: C_4  and  N_5 
REMARK       I    between atoms: N_5  and  C_6 
REMARK       I    between atoms: C_6  and  N_7 
REMARK    2  A    between atoms: N_7  and  C_8 
REMARK    3  A    between atoms: C_8  and  C_9 
REMARK       I    between atoms: C_9  and  N_10 
REMARK    4  A    between atoms: N_10  and  C_11 
REMARK    5  A    between atoms: C_13  and  C_14 
ROOT
HETATM    1  C   UNL     1     -42.584  56.080 -53.156  1.00  0.00     0.239 C 
HETATM    2  N   UNL     1     -41.341  55.834 -52.601  1.00  0.00    -0.326 N 
HETATM    3  O   UNL     1     -43.555  55.328 -53.142  1.00  0.00    -0.271 OA
HETATM    4  H   UNL     1     -40.607  56.495 -52.869  1.00  0.00     0.169 HD
ENDROOT
BRANCH   1   5
HETATM    5  C   UNL     1     -42.688  57.488 -53.766  1.00  0.00     0.227 C 
BRANCH   5   6
HETATM    6  N   UNL     1     -43.042  57.546 -55.174  1.00  0.00    -0.334 N 
HETATM    7  C   UNL     1     -44.342  57.597 -55.565  1.00  0.00     0.321 C 
HETATM    8  N   UNL     1     -44.621  57.446 -56.888  1.00  0.00    -0.309 N 
HETATM    9  O   UNL     1     -45.264  57.719 -54.759  1.00  0.00    -0.247 OA
HETATM   10  H   UNL     1     -45.619  57.344 -57.032  1.00  0.00     0.170 HD
HETATM   11  H   UNL     1     -42.491  56.936 -55.759  1.00  0.00     0.164 HD
BRANCH   8  12
HETATM   12  C   UNL     1     -43.821  57.364 -58.045  1.00  0.00     0.036 A 
HETATM   13  C   UNL     1     -43.351  58.460 -58.774  1.00  0.00     0.036 A 
HETATM   14  C   UNL     1     -42.499  58.281 -59.878  1.00  0.00    -0.060 A 
HETATM   15  C   UNL     1     -41.992  59.464 -60.649  1.00  0.00     0.048 C 
HETATM   16  C   UNL     1     -42.172  56.985 -60.288  1.00  0.00     0.007 A 
HETATM   17  C   UNL     1     -42.677  55.886 -59.603  1.00  0.00     0.003 A 
HETATM   18  C   UNL     1     -43.500  56.075 -58.490  1.00  0.00     0.029 A 
ENDBRANCH   8  12
ENDBRANCH   5   6
ENDBRANCH   1   5
BRANCH   2  19
HETATM   19  C   UNL     1     -40.962  54.789 -51.738  1.00  0.00     0.035 A 
HETATM   20  C   UNL     1     -40.673  53.549 -52.330  1.00  0.00     0.042 A 
HETATM   21  C   UNL     1     -40.208  52.465 -51.567  1.00  0.00    -0.021 A 
HETATM   22  C   UNL     1     -40.071  52.632 -50.184  1.00  0.00     0.012 A 
HETATM   23  C   UNL     1     -40.375  53.856 -49.585  1.00  0.00     0.003 A 
HETATM   24  C   UNL     1     -40.811  54.932 -50.361  1.00  0.00     0.029 A 
BRANCH  21  25
HETATM   25  C   UNL     1     -39.850  51.199 -52.189  1.00  0.00     0.010 A 
HETATM   26  C   UNL     1     -39.774  50.824 -53.553  1.00  0.00     0.152 A 
HETATM   27  N   UNL     1     -39.441  49.541 -53.723  1.00  0.00    -0.187 NA
HETATM   28  N   UNL     1     -39.306  49.086 -52.468  1.00  0.00    -0.289 N 
HETATM   29  H   UNL     1     -39.060  48.111 -52.334  1.00  0.00     0.188 HD
HETATM   30  C   UNL     1     -39.542  50.036 -51.517  1.00  0.00     0.123 A 
ENDBRANCH  21  25
ENDBRANCH   2  19
TORSDOF 5
ENDMDL
MODEL 3
REMARK VINA RESULT:      -8.4      3.173      5.938
REMARK  5 active torsions:
REMARK  status: ('A' for Active; 'I' for Inactive)
REMARK    1  A    between atoms: C_4  and  N_5 
REMARK       I    between atoms: N_5  and  C_6 
REMARK       I    between atoms: C_6  and  N_7 
REMARK    2  A    between atoms: N_7  and  C_8 
REMARK    3  A    between atoms: C_8  and  C_9 
REMARK       I    between atoms: C_9  and  N_10 
REMARK    4  A    between atoms: N_10  and  C_11 
REMARK    5  A    between atoms: C_13  and  C_14 
ROOT
HETATM    1  C   UNL     1     -42.516  54.953 -55.734  1.00  0.00     0.239 C 
HETATM    2  N   UNL     1     -41.322  55.001 -55.037  1.00  0.00    -0.326 N 
HETATM    3  O   UNL     1     -43.281  53.995 -55.813  1.00  0.00    -0.271 OA
HETATM    4  H   UNL     1     -40.737  55.817 -55.234  1.00  0.00     0.169 HD
ENDROOT
BRANCH   1   5
HETATM    5  C   UNL     1     -42.876  56.302 -56.379  1.00  0.00     0.227 C 
BRANCH   5   6
HETATM    6  N   UNL     1     -42.654  57.479 -55.555  1.00  0.00    -0.334 N 
HETATM    7  C   UNL     1     -42.283  58.660 -56.113  1.00  0.00     0.321 C 
HETATM    8  N   UNL     1     -41.895  59.667 -55.285  1.00  0.00    -0.309 N 
HETATM    9  O   UNL     1     -42.238  58.823 -57.332  1.00  0.00    -0.247 OA
HETATM   10  H   UNL     1     -41.495  60.432 -55.817  1.00  0.00     0.170 HD
HETATM   11  H   UNL     1     -42.158  57.290 -54.697  1.00  0.00     0.164 HD
BRANCH   8  12
HETATM   12  C   UNL     1     -41.900  59.829 -53.886  1.00  0.00     0.036 A 
HETATM   13  C   UNL     1     -41.017  59.201 -53.003  1.00  0.00     0.036 A 
HETATM   14  C   UNL     1     -41.052  59.479 -51.626  1.00  0.00    -0.060 A 
HETATM   15  C   UNL     1     -40.094  58.806 -50.686  1.00  0.00     0.048 C 
HETATM   16  C   UNL     1     -42.028  60.347 -51.126  1.00  0.00     0.007 A 
HETATM   17  C   UNL     1     -42.947  60.936 -51.989  1.00  0.00     0.003 A 
HETATM   18  C   UNL     1     -42.884  60.676 -53.359  1.00  0.00     0.029 A 
ENDBRANCH   8  12
ENDBRANCH   5   6
ENDBRANCH   1   5
BRANCH   2  19
HETATM   19  C   UNL     1     -40.810  54.068 -54.117  1.00  0.00     0.035 A 
HETATM   20  C   UNL     1     -40.899  54.402 -52.756  1.00  0.00     0.042 A 
HETATM   21  C   UNL     1     -40.491  53.505 -51.754  1.00  0.00    -0.021 A 
HETATM   22  C   UNL     1     -39.953  52.272 -52.141  1.00  0.00     0.012 A 
HETATM   23  C   UNL     1     -39.844  51.940 -53.493  1.00  0.00     0.003 A 
HETATM   24  C   UNL     1     -40.278  52.832 -54.476  1.00  0.00     0.029 A 
BRANCH  21  25
HETATM   25  C   UNL     1     -40.640  53.828 -50.343  1.00  0.00     0.010 A 
HETATM   26  C   UNL     1     -41.023  55.030 -49.701  1.00  0.00     0.152 A 
HETATM   27  N   UNL     1     -41.004  54.939 -48.368  1.00  0.00    -0.187 NA
HETATM   28  N   UNL     1     -40.604  53.677 -48.149  1.00  0.00    -0.289 N 
HETATM   29  H   UNL     1     -40.502  53.365 -47.189  1.00  0.00     0.188 HD
HETATM   30  C   UNL     1     -40.371  52.973 -49.295  1.00  0.00     0.123 A 
ENDBRANCH  21  25
ENDBRANCH   2  19
TORSDOF 5
ENDMDL
MODEL 4
REMARK VINA RESULT:      -8.3      2.447      8.010
REMARK  5 active torsions:
REMARK  status: ('A' for Active; 'I' for Inactive)
REMARK    1  A    between atoms: C_4  and  N_5 
REMARK       I    between atoms: N_5  and  C_6 
REMARK       I    between atoms: C_6  and  N_7 
REMARK    2  A    between atoms: N_7  and  C_8 
REMARK    3  A    between atoms: C_8  and  C_9 
REMARK       I    between atoms: C_9  and  N_10 
REMARK    4  A    between atoms: N_10  and  C_11 
REMARK    5  A    between atoms: C_13  and  C_14 
ROOT
HETATM    1  C   UNL     1     -44.184  57.437 -54.275  1.00  0.00     0.239 C 
HETATM    2  N   UNL     1     -43.034  57.220 -55.012  1.00  0.00    -0.326 N 
HETATM    3  O   UNL     1     -45.193  58.029 -54.648  1.00  0.00    -0.271 OA
HETATM    4  H   UNL     1     -42.235  56.870 -54.478  1.00  0.00     0.169 HD
ENDROOT
BRANCH   1   5
HETATM    5  C   UNL     1     -44.131  56.768 -52.891  1.00  0.00     0.227 C 
BRANCH   5   6
HETATM    6  N   UNL     1     -43.036  55.835 -52.678  1.00  0.00    -0.334 N 
HETATM    7  C   UNL     1     -42.123  56.045 -51.696  1.00  0.00     0.321 C 
HETATM    8  N   UNL     1     -41.015  55.256 -51.670  1.00  0.00    -0.309 N 
HETATM    9  O   UNL     1     -42.243  56.952 -50.872  1.00  0.00    -0.247 OA
HETATM   10  H   UNL     1     -40.342  55.608 -50.999  1.00  0.00     0.170 HD
HETATM   11  H   UNL     1     -42.611  55.503 -53.530  1.00  0.00     0.164 HD
BRANCH   8  12
HETATM   12  C   UNL     1     -40.617  54.117 -52.398  1.00  0.00     0.036 A 
HETATM   13  C   UNL     1     -40.242  52.895 -51.833  1.00  0.00     0.036 A 
HETATM   14  C   UNL     1     -39.928  51.791 -52.644  1.00  0.00    -0.060 A 
HETATM   15  C   UNL     1     -39.536  50.480 -52.028  1.00  0.00     0.048 C 
HETATM   16  C   UNL     1     -39.928  51.939 -54.034  1.00  0.00     0.007 A 
HETATM   17  C   UNL     1     -40.248  53.166 -54.607  1.00  0.00     0.003 A 
HETATM   18  C   UNL     1     -40.586  54.248 -53.793  1.00  0.00     0.029 A 
ENDBRANCH   8  12
ENDBRANCH   5   6
ENDBRANCH   1   5
BRANCH   2  19
HETATM   19  C   UNL     1     -42.823  57.439 -56.386  1.00  0.00     0.035 A 
HETATM   20  C   UNL     1     -43.386  56.506 -57.272  1.00  0.00     0.042 A 
HETATM   21  C   UNL     1     -43.303  56.677 -58.664  1.00  0.00    -0.021 A 
HETATM   22  C   UNL     1     -42.609  57.787 -59.160  1.00  0.00     0.012 A 
HETATM   23  C   UNL     1     -42.029  58.709 -58.286  1.00  0.00     0.003 A 
HETATM   24  C   UNL     1     -42.143  58.538 -56.905  1.00  0.00     0.029 A 
BRANCH  21  25
HETATM   25  C   UNL     1     -43.939  55.744 -59.581  1.00  0.00     0.010 A 
HETATM   26  C   UNL     1     -44.451  55.929 -60.888  1.00  0.00     0.152 A 
HETATM   27  N   UNL     1     -45.000  54.822 -61.395  1.00  0.00    -0.187 NA
HETATM   28  N   UNL     1     -44.847  53.921 -60.413  1.00  0.00    -0.289 N 
HETATM   29  H   UNL     1     -45.202  52.982 -60.562  1.00  0.00     0.188 HD
HETATM   30  C   UNL     1     -44.222  54.421 -59.308  1.00  0.00     0.123 A 
ENDBRANCH  21  25
ENDBRANCH   2  19
TORSDOF 5
ENDMDL
MODEL 5
REMARK VINA RESULT:      -8.2      2.383      3.098
REMARK  5 active torsions:
REMARK  status: ('A' for Active; 'I' for Inactive)
REMARK    1  A    between atoms: C_4  and  N_5 
REMARK       I    between atoms: N_5  and  C_6 
REMARK       I    between atoms: C_6  and  N_7 
REMARK    2  A    between atoms: N_7  and  C_8 
REMARK    3  A    between atoms: C_8  and  C_9 
REMARK       I    between atoms: C_9  and  N_10 
REMARK    4  A    between atoms: N_10  and  C_11 
REMARK    5  A    between atoms: C_13  and  C_14 
ROOT
HETATM    1  C   UNL     1     -41.793  57.847 -54.400  1.00  0.00     0.239 C 
HETATM    2  N   UNL     1     -42.032  56.519 -54.706  1.00  0.00    -0.326 N 
HETATM    3  O   UNL     1     -41.120  58.274 -53.465  1.00  0.00    -0.271 OA
HETATM    4  H   UNL     1     -42.759  56.359 -55.408  1.00  0.00     0.169 HD
ENDROOT
BRANCH   1   5
HETATM    5  C   UNL     1     -42.408  58.808 -55.430  1.00  0.00     0.227 C 
BRANCH   5   6
HETATM    6  N   UNL     1     -42.733  58.230 -56.724  1.00  0.00    -0.334 N 
HETATM    7  C   UNL     1     -42.219  58.749 -57.869  1.00  0.00     0.321 C 
HETATM    8  N   UNL     1     -42.711  58.300 -59.054  1.00  0.00    -0.309 N 
HETATM    9  O   UNL     1     -41.371  59.641 -57.860  1.00  0.00    -0.247 OA
HETATM   10  H   UNL     1     -42.369  58.868 -59.821  1.00  0.00     0.170 HD
HETATM   11  H   UNL     1     -43.703  57.972 -56.824  1.00  0.00     0.164 HD
BRANCH   8  12
HETATM   12  C   UNL     1     -43.604  57.269 -59.407  1.00  0.00     0.036 A 
HETATM   13  C   UNL     1     -44.944  57.454 -59.759  1.00  0.00     0.036 A 
HETATM   14  C   UNL     1     -45.741  56.369 -60.165  1.00  0.00    -0.060 A 
HETATM   15  C   UNL     1     -47.176  56.579 -60.551  1.00  0.00     0.048 C 
HETATM   16  C   UNL     1     -45.201  55.079 -60.151  1.00  0.00     0.007 A 
HETATM   17  C   UNL     1     -43.885  54.876 -59.750  1.00  0.00     0.003 A 
HETATM   18  C   UNL     1     -43.093  55.965 -59.377  1.00  0.00     0.029 A 
ENDBRANCH   8  12
ENDBRANCH   5   6
ENDBRANCH   1   5
BRANCH   2  19
HETATM   19  C   UNL     1     -41.419  55.374 -54.163  1.00  0.00     0.035 A 
HETATM   20  C   UNL     1     -41.377  55.279 -52.763  1.00  0.00     0.042 A 
HETATM   21  C   UNL     1     -40.860  54.140 -52.123  1.00  0.00    -0.021 A 
HETATM   22  C   UNL     1     -40.346  53.105 -52.914  1.00  0.00     0.012 A 
HETATM   23  C   UNL     1     -40.367  53.201 -54.306  1.00  0.00     0.003 A 
HETATM   24  C   UNL     1     -40.908  54.328 -54.928  1.00  0.00     0.029 A 
BRANCH  21  25
HETATM   25  C   UNL     1     -40.873  54.015 -50.673  1.00  0.00     0.010 A 
HETATM   26  C   UNL     1     -41.345  54.896 -49.669  1.00  0.00     0.152 A 
HETATM   27  N   UNL     1     -41.142  54.434 -48.433  1.00  0.00    -0.187 NA
HETATM   28  N   UNL     1     -40.534  53.255 -48.637  1.00  0.00    -0.289 N 
HETATM   29  H   UNL     1     -40.264  52.707 -47.827  1.00  0.00     0.188 HD
HETATM   30  C   UNL     1     -40.348  52.961 -49.956  1.00  0.00     0.123 A 
ENDBRANCH  21  25
ENDBRANCH   2  19
TORSDOF 5
ENDMDL
MODEL 6
REMARK VINA RESULT:      -8.0      4.282      6.560
REMARK  5 active torsions:
REMARK  status: ('A' for Active; 'I' for Inactive)
REMARK    1  A    between atoms: C_4  and  N_5 
REMARK       I    between atoms: N_5  and  C_6 
REMARK       I    between atoms: C_6  and  N_7 
REMARK    2  A    between atoms: N_7  and  C_8 
REMARK    3  A    between atoms: C_8  and  C_9 
REMARK       I    between atoms: C_9  and  N_10 
REMARK    4  A    between atoms: N_10  and  C_11 
REMARK    5  A    between atoms: C_13  and  C_14 
ROOT
HETATM    1  C   UNL     1     -42.860  56.386 -52.278  1.00  0.00     0.239 C 
HETATM    2  N   UNL     1     -41.618  55.781 -52.208  1.00  0.00    -0.326 N 
HETATM    3  O   UNL     1     -43.620  56.389 -53.243  1.00  0.00    -0.271 OA
HETATM    4  H   UNL     1     -41.056  56.038 -51.392  1.00  0.00     0.169 HD
ENDROOT
BRANCH   1   5
HETATM    5  C   UNL     1     -43.278  57.029 -50.945  1.00  0.00     0.227 C 
BRANCH   5   6
HETATM    6  N   UNL     1     -43.704  58.417 -51.015  1.00  0.00    -0.334 N 
HETATM    7  C   UNL     1     -45.020  58.747 -50.947  1.00  0.00     0.321 C 
HETATM    8  N   UNL     1     -45.375  60.031 -51.218  1.00  0.00    -0.309 N 
HETATM    9  O   UNL     1     -45.891  57.913 -50.701  1.00  0.00    -0.247 OA
HETATM   10  H   UNL     1     -46.382  60.115 -51.290  1.00  0.00     0.170 HD
HETATM   11  H   UNL     1     -43.210  58.962 -51.706  1.00  0.00     0.164 HD
BRANCH   8  12
HETATM   12  C   UNL     1     -44.642  61.211 -51.454  1.00  0.00     0.036 A 
HETATM   13  C   UNL     1     -44.153  62.063 -50.460  1.00  0.00     0.036 A 
HETATM   14  C   UNL     1     -43.370  63.183 -50.790  1.00  0.00    -0.060 A 
HETATM   15  C   UNL     1     -42.840  64.087 -49.715  1.00  0.00     0.048 C 
HETATM   16  C   UNL     1     -43.135  63.483 -52.135  1.00  0.00     0.007 A 
HETATM   17  C   UNL     1     -43.663  62.673 -53.135  1.00  0.00     0.003 A 
HETATM   18  C   UNL     1     -44.414  61.546 -52.795  1.00  0.00     0.029 A 
ENDBRANCH   8  12
ENDBRANCH   5   6
ENDBRANCH   1   5
BRANCH   2  19
HETATM   19  C   UNL     1     -41.032  54.883 -53.119  1.00  0.00     0.035 A 
HETATM   20  C   UNL     1     -40.670  53.620 -52.623  1.00  0.00     0.042 A 
HETATM   21  C   UNL     1     -40.153  52.624 -53.468  1.00  0.00    -0.021 A 
HETATM   22  C   UNL     1     -39.966  52.927 -54.821  1.00  0.00     0.012 A 
HETATM   23  C   UNL     1     -40.304  54.187 -55.318  1.00  0.00     0.003 A 
HETATM   24  C   UNL     1     -40.842  55.158 -54.471  1.00  0.00     0.029 A 
BRANCH  21  25
HETATM   25  C   UNL     1     -39.836  51.295 -52.966  1.00  0.00     0.010 A 
HETATM   26  C   UNL     1     -39.745  50.048 -53.632  1.00  0.00     0.152 A 
HETATM   27  N   UNL     1     -39.464  49.036 -52.807  1.00  0.00    -0.187 NA
HETATM   28  N   UNL     1     -39.377  49.628 -51.606  1.00  0.00    -0.289 N 
HETATM   29  H   UNL     1     -39.176  49.049 -50.798  1.00  0.00     0.188 HD
HETATM   30  C   UNL     1     -39.594  50.975 -51.646  1.00  0.00     0.123 A 
ENDBRANCH  21  25
ENDBRANCH   2  19
TORSDOF 5
ENDMDL
MODEL 7
REMARK VINA RESULT:      -8.0      1.660      2.112
REMARK  5 active torsions:
REMARK  status: ('A' for Active; 'I' for Inactive)
REMARK    1  A    between atoms: C_4  and  N_5 
REMARK       I    between atoms: N_5  and  C_6 
REMARK       I    between atoms: C_6  and  N_7 
REMARK    2  A    between atoms: N_7  and  C_8 
REMARK    3  A    between atoms: C_8  and  C_9 
REMARK       I    between atoms: C_9  and  N_10 
REMARK    4  A    between atoms: N_10  and  C_11 
REMARK    5  A    between atoms: C_13  and  C_14 
ROOT
HETATM    1  C   UNL     1     -42.154  58.499 -54.102  1.00  0.00     0.239 C 
HETATM    2  N   UNL     1     -42.736  57.539 -53.294  1.00  0.00    -0.326 N 
HETATM    3  O   UNL     1     -40.974  58.841 -54.101  1.00  0.00    -0.271 OA
HETATM    4  H   UNL     1     -43.759  57.519 -53.310  1.00  0.00     0.169 HD
ENDROOT
BRANCH   1   5
HETATM    5  C   UNL     1     -43.144  59.089 -55.121  1.00  0.00     0.227 C 
BRANCH   5   6
HETATM    6  N   UNL     1     -43.236  58.393 -56.393  1.00  0.00    -0.334 N 
HETATM    7  C   UNL     1     -42.475  58.772 -57.452  1.00  0.00     0.321 C 
HETATM    8  N   UNL     1     -42.745  58.222 -58.666  1.00  0.00    -0.309 N 
HETATM    9  O   UNL     1     -41.596  59.628 -57.354  1.00  0.00    -0.247 OA
HETATM   10  H   UNL     1     -42.224  58.695 -59.396  1.00  0.00     0.170 HD
HETATM   11  H   UNL     1     -44.180  58.162 -56.665  1.00  0.00     0.164 HD
BRANCH   8  12
HETATM   12  C   UNL     1     -43.607  57.193 -59.096  1.00  0.00     0.036 A 
HETATM   13  C   UNL     1     -44.930  57.376 -59.507  1.00  0.00     0.036 A 
HETATM   14  C   UNL     1     -45.692  56.296 -59.987  1.00  0.00    -0.060 A 
HETATM   15  C   UNL     1     -47.110  56.503 -60.435  1.00  0.00     0.048 C 
HETATM   16  C   UNL     1     -45.138  55.013 -59.989  1.00  0.00     0.007 A 
HETATM   17  C   UNL     1     -43.840  54.811 -59.531  1.00  0.00     0.003 A 
HETATM   18  C   UNL     1     -43.082  55.894 -59.085  1.00  0.00     0.029 A 
ENDBRANCH   8  12
ENDBRANCH   5   6
ENDBRANCH   1   5
BRANCH   2  19
HETATM   19  C   UNL     1     -42.102  56.609 -52.448  1.00  0.00     0.035 A 
HETATM   20  C   UNL     1     -41.747  55.374 -53.014  1.00  0.00     0.042 A 
HETATM   21  C   UNL     1     -41.039  54.410 -52.278  1.00  0.00    -0.021 A 
HETATM   22  C   UNL     1     -40.723  54.689 -50.942  1.00  0.00     0.012 A 
HETATM   23  C   UNL     1     -41.090  55.906 -50.367  1.00  0.00     0.003 A 
HETATM   24  C   UNL     1     -41.771  56.865 -51.120  1.00  0.00     0.029 A 
BRANCH  21  25
HETATM   25  C   UNL     1     -40.617  53.156 -52.882  1.00  0.00     0.010 A 
HETATM   26  C   UNL     1     -39.836  52.092 -52.366  1.00  0.00     0.152 A 
HETATM   27  N   UNL     1     -39.632  51.116 -53.254  1.00  0.00    -0.187 NA
HETATM   28  N   UNL     1     -40.278  51.550 -54.347  1.00  0.00    -0.289 N 
HETATM   29  H   UNL     1     -40.259  50.970 -55.179  1.00  0.00     0.188 HD
HETATM   30  C   UNL     1     -40.879  52.763 -54.178  1.00  0.00     0.123 A 
ENDBRANCH  21  25
ENDBRANCH   2  19
TORSDOF 5
ENDMDL
MODEL 8
REMARK VINA RESULT:      -7.8      2.677      8.197
REMARK  5 active torsions:
REMARK  status: ('A' for Active; 'I' for Inactive)
REMARK    1  A    between atoms: C_4  and  N_5 
REMARK       I    between atoms: N_5  and  C_6 
REMARK       I    between atoms: C_6  and  N_7 
REMARK    2  A    between atoms: N_7  and  C_8 
REMARK    3  A    between atoms: C_8  and  C_9 
REMARK       I    between atoms: C_9  and  N_10 
REMARK    4  A    between atoms: N_10  and  C_11 
REMARK    5  A    between atoms: C_13  and  C_14 
ROOT
HETATM    1  C   UNL     1     -42.848  59.359 -54.547  1.00  0.00     0.239 C 
HETATM    2  N   UNL     1     -42.116  58.684 -55.507  1.00  0.00    -0.326 N 
HETATM    3  O   UNL     1     -43.721  60.200 -54.747  1.00  0.00    -0.271 OA
HETATM    4  H   UNL     1     -41.312  58.160 -55.151  1.00  0.00     0.169 HD
ENDROOT
BRANCH   1   5
HETATM    5  C   UNL     1     -42.520  58.891 -53.119  1.00  0.00     0.227 C 
BRANCH   5   6
HETATM    6  N   UNL     1     -42.512  57.453 -52.909  1.00  0.00    -0.334 N 
HETATM    7  C   UNL     1     -43.656  56.787 -52.604  1.00  0.00     0.321 C 
HETATM    8  N   UNL     1     -43.558  55.485 -52.221  1.00  0.00    -0.309 N 
HETATM    9  O   UNL     1     -44.757  57.338 -52.612  1.00  0.00    -0.247 OA
HETATM   10  H   UNL     1     -44.448  55.149 -51.871  1.00  0.00     0.170 HD
HETATM   11  H   UNL     1     -41.724  57.123 -52.373  1.00  0.00     0.164 HD
BRANCH   8  12
HETATM   12  C   UNL     1     -42.493  54.564 -52.177  1.00  0.00     0.036 A 
HETATM   13  C   UNL     1     -41.977  53.882 -53.282  1.00  0.00     0.036 A 
HETATM   14  C   UNL     1     -40.864  53.033 -53.152  1.00  0.00    -0.060 A 
HETATM   15  C   UNL     1     -40.311  52.311 -54.346  1.00  0.00     0.048 C 
HETATM   16  C   UNL     1     -40.309  52.820 -51.886  1.00  0.00     0.007 A 
HETATM   17  C   UNL     1     -40.849  53.452 -50.771  1.00  0.00     0.003 A 
HETATM   18  C   UNL     1     -41.936  54.316 -50.916  1.00  0.00     0.029 A 
ENDBRANCH   8  12
ENDBRANCH   5   6
ENDBRANCH   1   5
BRANCH   2  19
HETATM   19  C   UNL     1     -42.325  58.646 -56.898  1.00  0.00     0.035 A 
HETATM   20  C   UNL     1     -43.114  57.595 -57.394  1.00  0.00     0.042 A 
HETATM   21  C   UNL     1     -43.449  57.512 -58.755  1.00  0.00    -0.021 A 
HETATM   22  C   UNL     1     -42.948  58.486 -59.627  1.00  0.00     0.012 A 
HETATM   23  C   UNL     1     -42.147  59.523 -59.145  1.00  0.00     0.003 A 
HETATM   24  C   UNL     1     -41.844  59.606 -57.784  1.00  0.00     0.029 A 
BRANCH  21  25
HETATM   25  C   UNL     1     -44.317  56.458 -59.258  1.00  0.00     0.010 A 
HETATM   26  C   UNL     1     -44.036  55.116 -59.614  1.00  0.00     0.152 A 
HETATM   27  N   UNL     1     -45.107  54.464 -60.076  1.00  0.00    -0.187 NA
HETATM   28  N   UNL     1     -46.079  55.387 -60.024  1.00  0.00    -0.289 N 
HETATM   29  H   UNL     1     -47.007  55.127 -60.340  1.00  0.00     0.188 HD
HETATM   30  C   UNL     1     -45.659  56.594 -59.546  1.00  0.00     0.123 A 
ENDBRANCH  21  25
ENDBRANCH   2  19
TORSDOF 5
ENDMDL
MODEL 9
REMARK VINA RESULT:      -7.8      1.448      2.114
REMARK  5 active torsions:
REMARK  status: ('A' for Active; 'I' for Inactive)
REMARK    1  A    between atoms: C_4  and  N_5 
REMARK       I    between atoms: N_5  and  C_6 
REMARK       I    between atoms: C_6  and  N_7 
REMARK    2  A    between atoms: N_7  and  C_8 
REMARK    3  A    between atoms: C_8  and  C_9 
REMARK       I    between atoms: C_9  and  N_10 
REMARK    4  A    between atoms: N_10  and  C_11 
REMARK    5  A    between atoms: C_13  and  C_14 
ROOT
HETATM    1  C   UNL     1     -43.222  56.428 -54.766  1.00  0.00     0.239 C 
HETATM    2  N   UNL     1     -41.979  55.838 -54.619  1.00  0.00    -0.326 N 
HETATM    3  O   UNL     1     -44.223  56.209 -54.088  1.00  0.00    -0.271 OA
HETATM    4  H   UNL     1     -41.324  56.010 -55.385  1.00  0.00     0.169 HD
ENDROOT
BRANCH   1   5
HETATM    5  C   UNL     1     -43.236  57.506 -55.863  1.00  0.00     0.227 C 
BRANCH   5   6
HETATM    6  N   UNL     1     -43.998  57.185 -57.059  1.00  0.00    -0.334 N 
HETATM    7  C   UNL     1     -43.644  56.141 -57.852  1.00  0.00     0.321 C 
HETATM    8  N   UNL     1     -44.264  56.010 -59.055  1.00  0.00    -0.309 N 
HETATM    9  O   UNL     1     -42.751  55.353 -57.538  1.00  0.00    -0.247 OA
HETATM   10  H   UNL     1     -43.808  55.298 -59.615  1.00  0.00     0.170 HD
HETATM   11  H   UNL     1     -44.278  57.992 -57.593  1.00  0.00     0.164 HD
BRANCH   8  12
HETATM   12  C   UNL     1     -45.345  56.675 -59.667  1.00  0.00     0.036 A 
HETATM   13  C   UNL     1     -45.532  58.060 -59.677  1.00  0.00     0.036 A 
HETATM   14  C   UNL     1     -46.606  58.638 -60.376  1.00  0.00    -0.060 A 
HETATM   15  C   UNL     1     -46.794  60.127 -60.389  1.00  0.00     0.048 C 
HETATM   16  C   UNL     1     -47.535  57.810 -61.014  1.00  0.00     0.007 A 
HETATM   17  C   UNL     1     -47.388  56.428 -60.964  1.00  0.00     0.003 A 
HETATM   18  C   UNL     1     -46.302  55.865 -60.292  1.00  0.00     0.029 A 
ENDBRANCH   8  12
ENDBRANCH   5   6
ENDBRANCH   1   5
BRANCH   2  19
HETATM   19  C   UNL     1     -41.519  55.025 -53.567  1.00  0.00     0.035 A 
HETATM   20  C   UNL     1     -41.164  53.705 -53.892  1.00  0.00     0.042 A 
HETATM   21  C   UNL     1     -40.617  52.838 -52.932  1.00  0.00    -0.021 A 
HETATM   22  C   UNL     1     -40.465  53.303 -51.621  1.00  0.00     0.012 A 
HETATM   23  C   UNL     1     -40.833  54.607 -51.285  1.00  0.00     0.003 A 
HETATM   24  C   UNL     1     -41.351  55.466 -52.257  1.00  0.00     0.029 A 
BRANCH  21  25
HETATM   25  C   UNL     1     -40.192  51.491 -53.284  1.00  0.00     0.010 A 
HETATM   26  C   UNL     1     -39.628  50.460 -52.494  1.00  0.00     0.152 A 
HETATM   27  N   UNL     1     -39.335  49.364 -53.199  1.00  0.00    -0.187 NA
HETATM   28  N   UNL     1     -39.706  49.688 -54.447  1.00  0.00    -0.289 N 
HETATM   29  H   UNL     1     -39.571  49.003 -55.183  1.00  0.00     0.188 HD
HETATM   30  C   UNL     1     -40.222  50.948 -54.551  1.00  0.00     0.123 A 
ENDBRANCH  21  25
ENDBRANCH   2  19
TORSDOF 5
ENDMDL
MODEL 10
REMARK VINA RESULT:      -7.6     14.472     16.422
REMARK  5 active torsions:
REMARK  status: ('A' for Active; 'I' for Inactive)
REMARK    1  A    between atoms: C_4  and  N_5 
REMARK       I    between atoms: N_5  and  C_6 
REMARK       I    between atoms: C_6  and  N_7 
REMARK    2  A    between atoms: N_7  and  C_8 
REMARK    3  A    between atoms: C_8  and  C_9 
REMARK       I    between atoms: C_9  and  N_10 
REMARK    4  A    between atoms: N_10  and  C_11 
REMARK    5  A    between atoms: C_13  and  C_14 
ROOT
HETATM    1  C   UNL     1     -33.036  39.931 -53.882  1.00  0.00     0.239 C 
HETATM    2  N   UNL     1     -32.750  40.570 -52.689  1.00  0.00    -0.326 N 
HETATM    3  O   UNL     1     -33.321  38.745 -54.029  1.00  0.00    -0.271 OA
HETATM    4  H   UNL     1     -32.360  41.511 -52.783  1.00  0.00     0.169 HD
ENDROOT
BRANCH   1   5
HETATM    5  C   UNL     1     -33.046  40.896 -55.079  1.00  0.00     0.227 C 
BRANCH   5   6
HETATM    6  N   UNL     1     -34.340  41.124 -55.700  1.00  0.00    -0.334 N 
HETATM    7  C   UNL     1     -35.372  41.649 -54.990  1.00  0.00     0.321 C 
HETATM    8  N   UNL     1     -36.607  41.653 -55.559  1.00  0.00    -0.309 N 
HETATM    9  O   UNL     1     -35.230  42.065 -53.840  1.00  0.00    -0.247 OA
HETATM   10  H   UNL     1     -37.311  41.919 -54.880  1.00  0.00     0.170 HD
HETATM   11  H   UNL     1     -34.637  40.378 -56.310  1.00  0.00     0.164 HD
BRANCH   8  12
HETATM   12  C   UNL     1     -37.084  41.330 -56.845  1.00  0.00     0.036 A 
HETATM   13  C   UNL     1     -37.027  42.175 -57.956  1.00  0.00     0.036 A 
HETATM   14  C   UNL     1     -37.466  41.738 -59.219  1.00  0.00    -0.060 A 
HETATM   15  C   UNL     1     -37.393  42.649 -60.409  1.00  0.00     0.048 C 
HETATM   16  C   UNL     1     -38.026  40.463 -59.346  1.00  0.00     0.007 A 
HETATM   17  C   UNL     1     -38.137  39.634 -58.235  1.00  0.00     0.003 A 
HETATM   18  C   UNL     1     -37.671  40.067 -56.992  1.00  0.00     0.029 A 
ENDBRANCH   8  12
ENDBRANCH   5   6
ENDBRANCH   1   5
BRANCH   2  19
HETATM   19  C   UNL     1     -32.911  40.083 -51.378  1.00  0.00     0.035 A 
HETATM   20  C   UNL     1     -34.227  39.930 -50.914  1.00  0.00     0.042 A 
HETATM   21  C   UNL     1     -34.497  39.376 -49.651  1.00  0.00    -0.021 A 
HETATM   22  C   UNL     1     -33.417  39.011 -48.838  1.00  0.00     0.012 A 
HETATM   23  C   UNL     1     -32.105  39.179 -49.284  1.00  0.00     0.003 A 
HETATM   24  C   UNL     1     -31.854  39.706 -50.553  1.00  0.00     0.029 A 
BRANCH  21  25
HETATM   25  C   UNL     1     -35.862  39.161 -49.195  1.00  0.00     0.010 A 
HETATM   26  C   UNL     1     -36.362  38.629 -47.982  1.00  0.00     0.152 A 
HETATM   27  N   UNL     1     -37.695  38.557 -47.954  1.00  0.00    -0.187 NA
HETATM   28  N   UNL     1     -38.058  39.038 -49.153  1.00  0.00    -0.289 N 
HETATM   29  H   UNL     1     -39.046  39.075 -49.378  1.00  0.00     0.188 HD
HETATM   30  C   UNL     1     -37.001  39.409 -49.932  1.00  0.00     0.123 A 
ENDBRANCH  21  25
ENDBRANCH   2  19
TORSDOF 5
ENDMDL
