MODEL 1
REMARK VINA RESULT:      -8.0      0.000      0.000
REMARK  9 active torsions:
REMARK  status: ('A' for Active; 'I' for Inactive)
REMARK    1  A    between atoms: C_2  and  C_3 
REMARK    2  A    between atoms: C_3  and  N_4 
REMARK    3  A    between atoms: N_4  and  C_7 
REMARK    4  A    between atoms: C_7  and  C_8 
REMARK       I    between atoms: C_8  and  N_9 
REMARK    5  A    between atoms: N_9  and  C_10 
REMARK    6  A    between atoms: C_16  and  C_17 
REMARK    7  A    between atoms: C_22  and  C_23 
REMARK       I    between atoms: C_23  and  N_24 
REMARK    8  A    between atoms: N_24  and  C_25 
REMARK    9  A    between atoms: C_28  and  O_29 
ROOT
HETATM    1  C   UNL     1     -43.091  57.828 -54.415  1.00  0.00     0.093 A 
HETATM    2  S   UNL     1     -44.230  58.643 -55.360  1.00  0.00    -0.075 SA
HETATM    3  C   UNL     1     -44.106  57.499 -56.605  1.00  0.00    -0.008 A 
HETATM    4  C   UNL     1     -43.242  56.460 -56.300  1.00  0.00    -0.026 A 
HETATM    5  C   UNL     1     -43.015  55.356 -57.295  1.00  0.00     0.041 C 
HETATM    6  C   UNL     1     -43.450  55.742 -58.717  1.00  0.00     0.010 C 
HETATM    7  C   UNL     1     -44.861  56.388 -58.744  1.00  0.00    -0.002 C 
HETATM    8  C   UNL     1     -44.844  57.690 -57.900  1.00  0.00     0.052 C 
HETATM    9  C   UNL     1     -42.640  56.641 -54.990  1.00  0.00     0.073 A 
ENDROOT
BRANCH   1  10
HETATM   10  N   UNL     1     -42.641  58.358 -53.213  1.00  0.00    -0.319 N 
HETATM   11  C   UNL     1     -41.638  59.279 -53.030  1.00  0.00     0.248 C 
HETATM   12  O   UNL     1     -41.008  59.909 -53.877  1.00  0.00    -0.271 OA
HETATM   13  H   UNL     1     -43.200  58.046 -52.414  1.00  0.00     0.169 HD
BRANCH  11  14
HETATM   14  C   UNL     1     -41.363  59.598 -51.560  1.00  0.00     0.335 C 
BRANCH  14  15
HETATM   15  N   UNL     1     -41.902  58.490 -50.681  1.00  0.00    -0.067 N 
HETATM   16  H   UNL     1     -42.621  58.017 -51.258  1.00  0.00     0.277 HD
HETATM   17  H   UNL     1     -42.383  58.884 -49.864  1.00  0.00     0.277 HD
BRANCH  15  18
HETATM   18  C   UNL     1     -40.876  57.485 -50.270  1.00  0.00     0.236 C 
BRANCH  18  19
HETATM   19  C   UNL     1     -41.453  56.066 -50.334  1.00  0.00     0.003 C 
HETATM   20  C   UNL     1     -42.944  56.139 -50.674  1.00  0.00     0.011 C 
HETATM   21  C   UNL     1     -41.258  55.296 -49.027  1.00  0.00     0.011 C 
ENDBRANCH  18  19
ENDBRANCH  15  18
ENDBRANCH  14  15
ENDBRANCH  11  14
ENDBRANCH   1  10
BRANCH   9  22
HETATM   22  C   UNL     1     -41.655  55.806 -54.263  1.00  0.00     0.259 C 
HETATM   23  N   UNL     1     -42.044  54.511 -53.994  1.00  0.00    -0.323 N 
HETATM   24  H   UNL     1     -43.005  54.271 -54.185  1.00  0.00     0.169 HD
HETATM   25  O   UNL     1     -40.600  56.318 -53.885  1.00  0.00    -0.267 OA
BRANCH  23  26
HETATM   26  C   UNL     1     -41.267  53.484 -53.417  1.00  0.00     0.035 A 
HETATM   27  C   UNL     1     -40.976  53.393 -52.055  1.00  0.00     0.032 A 
HETATM   28  C   UNL     1     -40.174  52.354 -51.571  1.00  0.00     0.039 A 
HETATM   29  C   UNL     1     -39.640  51.397 -52.435  1.00  0.00     0.068 A 
HETATM   30  C   UNL     1     -39.931  51.479 -53.795  1.00  0.00     0.039 A 
HETATM   31  C   UNL     1     -40.740  52.516 -54.281  1.00  0.00     0.032 A 
BRANCH  29  32
HETATM   32  O   UNL     1     -38.867  50.448 -51.830  1.00  0.00    -0.356 OA
HETATM   33  C   UNL     1     -39.479  49.675 -50.805  1.00  0.00     0.210 C 
ENDBRANCH  29  32
ENDBRANCH  23  26
ENDBRANCH   9  22
BRANCH   7  34
HETATM   34  C   UNL     1     -45.426  56.592 -60.200  1.00  0.00    -0.047 C 
HETATM   35  C   UNL     1     -44.917  57.934 -60.772  1.00  0.00     0.015 C 
HETATM   36  C   UNL     1     -44.935  55.477 -61.147  1.00  0.00     0.015 C 
HETATM   37  C   UNL     1     -46.968  56.609 -60.237  1.00  0.00     0.015 C 
ENDBRANCH   7  34
TORSDOF 9
ENDMDL
MODEL 2
REMARK VINA RESULT:      -7.9      1.970      2.522
REMARK  9 active torsions:
REMARK  status: ('A' for Active; 'I' for Inactive)
REMARK    1  A    between atoms: C_2  and  C_3 
REMARK    2  A    between atoms: C_3  and  N_4 
REMARK    3  A    between atoms: N_4  and  C_7 
REMARK    4  A    between atoms: C_7  and  C_8 
REMARK       I    between atoms: C_8  and  N_9 
REMARK    5  A    between atoms: N_9  and  C_10 
REMARK    6  A    between atoms: C_16  and  C_17 
REMARK    7  A    between atoms: C_22  and  C_23 
REMARK       I    between atoms: C_23  and  N_24 
REMARK    8  A    between atoms: N_24  and  C_25 
REMARK    9  A    between atoms: C_28  and  O_29 
ROOT
HETATM    1  C   UNL     1     -42.034  58.479 -54.410  1.00  0.00     0.093 A 
HETATM    2  S   UNL     1     -42.165  60.007 -55.120  1.00  0.00    -0.075 SA
HETATM    3  C   UNL     1     -42.411  59.337 -56.658  1.00  0.00    -0.008 A 
HETATM    4  C   UNL     1     -42.448  57.953 -56.645  1.00  0.00    -0.026 A 
HETATM    5  C   UNL     1     -42.659  57.196 -57.927  1.00  0.00     0.041 C 
HETATM    6  C   UNL     1     -42.380  58.051 -59.173  1.00  0.00     0.010 C 
HETATM    7  C   UNL     1     -43.065  59.441 -59.096  1.00  0.00    -0.002 C 
HETATM    8  C   UNL     1     -42.511  60.218 -57.872  1.00  0.00     0.052 C 
HETATM    9  C   UNL     1     -42.237  57.431 -55.306  1.00  0.00     0.073 A 
ENDROOT
BRANCH   1  10
HETATM   10  N   UNL     1     -41.703  58.335 -53.070  1.00  0.00    -0.319 N 
HETATM   11  C   UNL     1     -40.498  58.615 -52.472  1.00  0.00     0.248 C 
HETATM   12  O   UNL     1     -39.504  59.150 -52.959  1.00  0.00    -0.271 OA
HETATM   13  H   UNL     1     -42.503  58.052 -52.496  1.00  0.00     0.169 HD
BRANCH  11  14
HETATM   14  C   UNL     1     -40.463  58.280 -50.981  1.00  0.00     0.335 C 
BRANCH  14  15
HETATM   15  N   UNL     1     -41.842  57.873 -50.510  1.00  0.00    -0.067 N 
HETATM   16  H   UNL     1     -42.481  58.166 -51.271  1.00  0.00     0.277 HD
HETATM   17  H   UNL     1     -42.106  58.406 -49.673  1.00  0.00     0.277 HD
BRANCH  15  18
HETATM   18  C   UNL     1     -42.001  56.404 -50.286  1.00  0.00     0.236 C 
BRANCH  18  19
HETATM   19  C   UNL     1     -43.193  55.861 -51.082  1.00  0.00     0.003 C 
HETATM   20  C   UNL     1     -44.321  56.895 -51.074  1.00  0.00     0.011 C 
HETATM   21  C   UNL     1     -43.707  54.530 -50.531  1.00  0.00     0.011 C 
ENDBRANCH  18  19
ENDBRANCH  15  18
ENDBRANCH  14  15
ENDBRANCH  11  14
ENDBRANCH   1  10
BRANCH   9  22
HETATM   22  C   UNL     1     -42.175  56.033 -54.820  1.00  0.00     0.259 C 
HETATM   23  N   UNL     1     -40.913  55.501 -54.670  1.00  0.00    -0.323 N 
HETATM   24  H   UNL     1     -40.141  56.043 -55.027  1.00  0.00     0.169 HD
HETATM   25  O   UNL     1     -43.226  55.413 -54.648  1.00  0.00    -0.267 OA
BRANCH  23  26
HETATM   26  C   UNL     1     -40.569  54.244 -54.128  1.00  0.00     0.035 A 
HETATM   27  C   UNL     1     -40.253  53.121 -54.894  1.00  0.00     0.032 A 
HETATM   28  C   UNL     1     -39.950  51.904 -54.274  1.00  0.00     0.039 A 
HETATM   29  C   UNL     1     -39.968  51.783 -52.884  1.00  0.00     0.068 A 
HETATM   30  C   UNL     1     -40.277  52.901 -52.113  1.00  0.00     0.039 A 
HETATM   31  C   UNL     1     -40.575  54.123 -52.733  1.00  0.00     0.032 A 
BRANCH  29  32
HETATM   32  O   UNL     1     -39.664  50.537 -52.415  1.00  0.00    -0.356 OA
HETATM   33  C   UNL     1     -39.618  50.374 -51.003  1.00  0.00     0.210 C 
ENDBRANCH  29  32
ENDBRANCH  23  26
ENDBRANCH   9  22
BRANCH   7  34
HETATM   34  C   UNL     1     -42.983  60.254 -60.443  1.00  0.00    -0.047 C 
HETATM   35  C   UNL     1     -42.723  61.745 -60.135  1.00  0.00     0.015 C 
HETATM   36  C   UNL     1     -41.811  59.758 -61.318  1.00  0.00     0.015 C 
HETATM   37  C   UNL     1     -44.278  60.153 -61.273  1.00  0.00     0.015 C 
ENDBRANCH   7  34
TORSDOF 9
ENDMDL
MODEL 3
REMARK VINA RESULT:      -7.9      2.703      6.741
REMARK  9 active torsions:
REMARK  status: ('A' for Active; 'I' for Inactive)
REMARK    1  A    between atoms: C_2  and  C_3 
REMARK    2  A    between atoms: C_3  and  N_4 
REMARK    3  A    between atoms: N_4  and  C_7 
REMARK    4  A    between atoms: C_7  and  C_8 
REMARK       I    between atoms: C_8  and  N_9 
REMARK    5  A    between atoms: N_9  and  C_10 
REMARK    6  A    between atoms: C_16  and  C_17 
REMARK    7  A    between atoms: C_22  and  C_23 
REMARK       I    between atoms: C_23  and  N_24 
REMARK    8  A    between atoms: N_24  and  C_25 
REMARK    9  A    between atoms: C_28  and  O_29 
ROOT
HETATM    1  C   UNL     1     -43.991  57.196 -55.761  1.00  0.00     0.093 A 
HETATM    2  S   UNL     1     -44.579  58.780 -55.797  1.00  0.00    -0.075 SA
HETATM    3  C   UNL     1     -44.573  58.885 -54.105  1.00  0.00    -0.008 A 
HETATM    4  C   UNL     1     -44.080  57.744 -53.494  1.00  0.00    -0.026 A 
HETATM    5  C   UNL     1     -44.005  57.669 -51.995  1.00  0.00     0.041 C 
HETATM    6  C   UNL     1     -44.892  58.715 -51.304  1.00  0.00     0.010 C 
HETATM    7  C   UNL     1     -44.712  60.131 -51.912  1.00  0.00    -0.002 C 
HETATM    8  C   UNL     1     -45.119  60.101 -53.410  1.00  0.00     0.052 C 
HETATM    9  C   UNL     1     -43.717  56.735 -54.475  1.00  0.00     0.073 A 
ENDROOT
BRANCH   1  10
HETATM   10  N   UNL     1     -43.861  56.450 -56.925  1.00  0.00    -0.319 N 
HETATM   11  C   UNL     1     -43.067  56.728 -58.011  1.00  0.00     0.248 C 
HETATM   12  O   UNL     1     -42.229  57.618 -58.144  1.00  0.00    -0.271 OA
HETATM   13  H   UNL     1     -44.383  55.570 -56.886  1.00  0.00     0.169 HD
BRANCH  11  14
HETATM   14  C   UNL     1     -43.214  55.719 -59.149  1.00  0.00     0.335 C 
BRANCH  14  15
HETATM   15  N   UNL     1     -44.636  55.203 -59.203  1.00  0.00    -0.067 N 
HETATM   16  H   UNL     1     -45.096  55.602 -58.365  1.00  0.00     0.277 HD
HETATM   17  H   UNL     1     -44.650  54.182 -59.096  1.00  0.00     0.277 HD
BRANCH  15  18
HETATM   18  C   UNL     1     -45.394  55.629 -60.417  1.00  0.00     0.236 C 
BRANCH  18  19
HETATM   19  C   UNL     1     -46.767  56.190 -60.029  1.00  0.00     0.003 C 
HETATM   20  C   UNL     1     -47.548  56.542 -61.298  1.00  0.00     0.011 C 
HETATM   21  C   UNL     1     -46.663  57.420 -59.127  1.00  0.00     0.011 C 
ENDBRANCH  18  19
ENDBRANCH  15  18
ENDBRANCH  14  15
ENDBRANCH  11  14
ENDBRANCH   1  10
BRANCH   9  22
HETATM   22  C   UNL     1     -43.173  55.369 -54.290  1.00  0.00     0.259 C 
HETATM   23  N   UNL     1     -41.888  55.294 -53.795  1.00  0.00    -0.323 N 
HETATM   24  H   UNL     1     -41.371  56.157 -53.727  1.00  0.00     0.169 HD
HETATM   25  O   UNL     1     -43.850  54.403 -54.644  1.00  0.00    -0.267 OA
BRANCH  23  26
HETATM   26  C   UNL     1     -41.176  54.132 -53.428  1.00  0.00     0.035 A 
HETATM   27  C   UNL     1     -40.727  53.170 -54.333  1.00  0.00     0.032 A 
HETATM   28  C   UNL     1     -40.051  52.032 -53.879  1.00  0.00     0.039 A 
HETATM   29  C   UNL     1     -39.823  51.829 -52.518  1.00  0.00     0.068 A 
HETATM   30  C   UNL     1     -40.265  52.788 -51.609  1.00  0.00     0.039 A 
HETATM   31  C   UNL     1     -40.936  53.932 -52.063  1.00  0.00     0.032 A 
BRANCH  29  32
HETATM   32  O   UNL     1     -39.164  50.672 -52.215  1.00  0.00    -0.356 OA
HETATM   33  C   UNL     1     -39.570  49.988 -51.035  1.00  0.00     0.210 C 
ENDBRANCH  29  32
ENDBRANCH  23  26
ENDBRANCH   9  22
BRANCH   7  34
HETATM   34  C   UNL     1     -45.436  61.262 -51.089  1.00  0.00    -0.047 C 
HETATM   35  C   UNL     1     -44.644  62.582 -51.210  1.00  0.00     0.015 C 
HETATM   36  C   UNL     1     -46.853  61.527 -51.642  1.00  0.00     0.015 C 
HETATM   37  C   UNL     1     -45.563  60.913 -49.592  1.00  0.00     0.015 C 
ENDBRANCH   7  34
TORSDOF 9
ENDMDL
MODEL 4
REMARK VINA RESULT:      -7.5      2.045      3.046
REMARK  9 active torsions:
REMARK  status: ('A' for Active; 'I' for Inactive)
REMARK    1  A    between atoms: C_2  and  C_3 
REMARK    2  A    between atoms: C_3  and  N_4 
REMARK    3  A    between atoms: N_4  and  C_7 
REMARK    4  A    between atoms: C_7  and  C_8 
REMARK       I    between atoms: C_8  and  N_9 
REMARK    5  A    between atoms: N_9  and  C_10 
REMARK    6  A    between atoms: C_16  and  C_17 
REMARK    7  A    between atoms: C_22  and  C_23 
REMARK       I    between atoms: C_23  and  N_24 
REMARK    8  A    between atoms: N_24  and  C_25 
REMARK    9  A    between atoms: C_28  and  O_29 
ROOT
HETATM    1  C   UNL     1     -42.029  58.352 -54.216  1.00  0.00     0.093 A 
HETATM    2  S   UNL     1     -42.178  59.869 -54.945  1.00  0.00    -0.075 SA
HETATM    3  C   UNL     1     -42.422  59.177 -56.474  1.00  0.00    -0.008 A 
HETATM    4  C   UNL     1     -42.445  57.793 -56.443  1.00  0.00    -0.026 A 
HETATM    5  C   UNL     1     -42.652  57.018 -57.715  1.00  0.00     0.041 C 
HETATM    6  C   UNL     1     -42.386  57.860 -58.972  1.00  0.00     0.010 C 
HETATM    7  C   UNL     1     -43.086  59.244 -58.910  1.00  0.00    -0.002 C 
HETATM    8  C   UNL     1     -42.535  60.042 -57.698  1.00  0.00     0.052 C 
HETATM    9  C   UNL     1     -42.223  57.290 -55.098  1.00  0.00     0.073 A 
ENDROOT
BRANCH   1  10
HETATM   10  N   UNL     1     -41.691  58.228 -52.875  1.00  0.00    -0.319 N 
HETATM   11  C   UNL     1     -40.506  58.581 -52.276  1.00  0.00     0.248 C 
HETATM   12  O   UNL     1     -39.546  59.176 -52.761  1.00  0.00    -0.271 OA
HETATM   13  H   UNL     1     -42.473  57.897 -52.303  1.00  0.00     0.169 HD
BRANCH  11  14
HETATM   14  C   UNL     1     -40.453  58.250 -50.784  1.00  0.00     0.335 C 
BRANCH  14  15
HETATM   15  N   UNL     1     -41.644  58.859 -50.077  1.00  0.00    -0.067 N 
HETATM   16  H   UNL     1     -41.492  58.654 -49.073  1.00  0.00     0.277 HD
HETATM   17  H   UNL     1     -42.508  58.378 -50.354  1.00  0.00     0.277 HD
BRANCH  15  18
HETATM   18  C   UNL     1     -41.768  60.337 -50.253  1.00  0.00     0.236 C 
BRANCH  18  19
HETATM   19  C   UNL     1     -43.208  60.721 -50.612  1.00  0.00     0.003 C 
HETATM   20  C   UNL     1     -43.193  61.719 -51.772  1.00  0.00     0.011 C 
HETATM   21  C   UNL     1     -43.968  61.316 -49.426  1.00  0.00     0.011 C 
ENDBRANCH  18  19
ENDBRANCH  15  18
ENDBRANCH  14  15
ENDBRANCH  11  14
ENDBRANCH   1  10
BRANCH   9  22
HETATM   22  C   UNL     1     -42.146  55.899 -54.594  1.00  0.00     0.259 C 
HETATM   23  N   UNL     1     -40.877  55.386 -54.430  1.00  0.00    -0.323 N 
HETATM   24  H   UNL     1     -40.110  55.935 -54.789  1.00  0.00     0.169 HD
HETATM   25  O   UNL     1     -43.189  55.267 -54.421  1.00  0.00    -0.267 OA
BRANCH  23  26
HETATM   26  C   UNL     1     -40.519  54.141 -53.871  1.00  0.00     0.035 A 
HETATM   27  C   UNL     1     -40.235  52.999 -54.621  1.00  0.00     0.032 A 
HETATM   28  C   UNL     1     -39.915  51.796 -53.983  1.00  0.00     0.039 A 
HETATM   29  C   UNL     1     -39.885  51.708 -52.591  1.00  0.00     0.068 A 
HETATM   30  C   UNL     1     -40.163  52.845 -51.836  1.00  0.00     0.039 A 
HETATM   31  C   UNL     1     -40.477  54.053 -52.474  1.00  0.00     0.032 A 
BRANCH  29  32
HETATM   32  O   UNL     1     -39.570  50.471 -52.103  1.00  0.00    -0.356 OA
HETATM   33  C   UNL     1     -39.832  50.237 -50.725  1.00  0.00     0.210 C 
ENDBRANCH  29  32
ENDBRANCH  23  26
ENDBRANCH   9  22
BRANCH   7  34
HETATM   34  C   UNL     1     -43.016  60.040 -60.267  1.00  0.00    -0.047 C 
HETATM   35  C   UNL     1     -44.336  59.850 -61.049  1.00  0.00     0.015 C 
HETATM   36  C   UNL     1     -42.849  61.553 -60.014  1.00  0.00     0.015 C 
HETATM   37  C   UNL     1     -41.855  59.572 -61.167  1.00  0.00     0.015 C 
ENDBRANCH   7  34
TORSDOF 9
ENDMDL
MODEL 5
REMARK VINA RESULT:      -7.4      1.306      2.207
REMARK  9 active torsions:
REMARK  status: ('A' for Active; 'I' for Inactive)
REMARK    1  A    between atoms: C_2  and  C_3 
REMARK    2  A    between atoms: C_3  and  N_4 
REMARK    3  A    between atoms: N_4  and  C_7 
REMARK    4  A    between atoms: C_7  and  C_8 
REMARK       I    between atoms: C_8  and  N_9 
REMARK    5  A    between atoms: N_9  and  C_10 
REMARK    6  A    between atoms: C_16  and  C_17 
REMARK    7  A    between atoms: C_22  and  C_23 
REMARK       I    between atoms: C_23  and  N_24 
REMARK    8  A    between atoms: N_24  and  C_25 
REMARK    9  A    between atoms: C_28  and  O_29 
ROOT
HETATM    1  C   UNL     1     -42.954  57.798 -54.204  1.00  0.00     0.093 A 
HETATM    2  S   UNL     1     -44.128  58.639 -55.081  1.00  0.00    -0.075 SA
HETATM    3  C   UNL     1     -44.001  57.571 -56.391  1.00  0.00    -0.008 A 
HETATM    4  C   UNL     1     -43.108  56.537 -56.161  1.00  0.00    -0.026 A 
HETATM    5  C   UNL     1     -42.875  55.498 -57.222  1.00  0.00     0.041 C 
HETATM    6  C   UNL     1     -43.345  55.954 -58.612  1.00  0.00     0.010 C 
HETATM    7  C   UNL     1     -44.770  56.567 -58.578  1.00  0.00    -0.002 C 
HETATM    8  C   UNL     1     -44.767  57.819 -57.660  1.00  0.00     0.052 C 
HETATM    9  C   UNL     1     -42.487  56.657 -54.853  1.00  0.00     0.073 A 
ENDROOT
BRANCH   1  10
HETATM   10  N   UNL     1     -42.494  58.269 -52.981  1.00  0.00    -0.319 N 
HETATM   11  C   UNL     1     -41.434  59.112 -52.756  1.00  0.00     0.248 C 
HETATM   12  O   UNL     1     -40.743  59.715 -53.575  1.00  0.00    -0.271 OA
HETATM   13  H   UNL     1     -43.091  57.980 -52.200  1.00  0.00     0.169 HD
BRANCH  11  14
HETATM   14  C   UNL     1     -41.169  59.380 -51.275  1.00  0.00     0.335 C 
BRANCH  14  15
HETATM   15  N   UNL     1     -42.476  59.615 -50.550  1.00  0.00    -0.067 N 
HETATM   16  H   UNL     1     -42.359  59.154 -49.630  1.00  0.00     0.277 HD
HETATM   17  H   UNL     1     -43.244  59.134 -51.032  1.00  0.00     0.277 HD
BRANCH  15  18
HETATM   18  C   UNL     1     -42.799  61.057 -50.327  1.00  0.00     0.236 C 
BRANCH  18  19
HETATM   19  C   UNL     1     -44.271  61.338 -50.646  1.00  0.00     0.003 C 
HETATM   20  C   UNL     1     -45.159  60.494 -49.728  1.00  0.00     0.011 C 
HETATM   21  C   UNL     1     -44.618  61.052 -52.108  1.00  0.00     0.011 C 
ENDBRANCH  18  19
ENDBRANCH  15  18
ENDBRANCH  14  15
ENDBRANCH  11  14
ENDBRANCH   1  10
BRANCH   9  22
HETATM   22  C   UNL     1     -41.471  55.805 -54.192  1.00  0.00     0.259 C 
HETATM   23  N   UNL     1     -41.940  54.646 -53.612  1.00  0.00    -0.323 N 
HETATM   24  H   UNL     1     -42.941  54.531 -53.559  1.00  0.00     0.169 HD
HETATM   25  O   UNL     1     -40.305  56.200 -54.135  1.00  0.00    -0.267 OA
BRANCH  23  26
HETATM   26  C   UNL     1     -41.182  53.615 -53.018  1.00  0.00     0.035 A 
HETATM   27  C   UNL     1     -40.572  52.581 -53.729  1.00  0.00     0.032 A 
HETATM   28  C   UNL     1     -39.860  51.583 -53.056  1.00  0.00     0.039 A 
HETATM   29  C   UNL     1     -39.753  51.592 -51.665  1.00  0.00     0.068 A 
HETATM   30  C   UNL     1     -40.355  52.623 -50.948  1.00  0.00     0.039 A 
HETATM   31  C   UNL     1     -41.064  53.628 -51.622  1.00  0.00     0.032 A 
BRANCH  29  32
HETATM   32  O   UNL     1     -39.040  50.552 -51.139  1.00  0.00    -0.356 OA
HETATM   33  C   UNL     1     -39.665  49.274 -51.146  1.00  0.00     0.210 C 
ENDBRANCH  29  32
ENDBRANCH  23  26
ENDBRANCH   9  22
BRANCH   7  34
HETATM   34  C   UNL     1     -45.366  56.841 -60.009  1.00  0.00    -0.047 C 
HETATM   35  C   UNL     1     -44.806  58.171 -60.560  1.00  0.00     0.015 C 
HETATM   36  C   UNL     1     -44.960  55.730 -61.001  1.00  0.00     0.015 C 
HETATM   37  C   UNL     1     -46.905  56.936 -59.999  1.00  0.00     0.015 C 
ENDBRANCH   7  34
TORSDOF 9
ENDMDL
MODEL 6
REMARK VINA RESULT:      -7.3      2.937      7.152
REMARK  9 active torsions:
REMARK  status: ('A' for Active; 'I' for Inactive)
REMARK    1  A    between atoms: C_2  and  C_3 
REMARK    2  A    between atoms: C_3  and  N_4 
REMARK    3  A    between atoms: N_4  and  C_7 
REMARK    4  A    between atoms: C_7  and  C_8 
REMARK       I    between atoms: C_8  and  N_9 
REMARK    5  A    between atoms: N_9  and  C_10 
REMARK    6  A    between atoms: C_16  and  C_17 
REMARK    7  A    between atoms: C_22  and  C_23 
REMARK       I    between atoms: C_23  and  N_24 
REMARK    8  A    between atoms: N_24  and  C_25 
REMARK    9  A    between atoms: C_28  and  O_29 
ROOT
HETATM    1  C   UNL     1     -42.385  59.986 -54.771  1.00  0.00     0.093 A 
HETATM    2  S   UNL     1     -43.219  61.451 -54.651  1.00  0.00    -0.075 SA
HETATM    3  C   UNL     1     -43.047  61.479 -52.964  1.00  0.00    -0.008 A 
HETATM    4  C   UNL     1     -42.314  60.409 -52.478  1.00  0.00    -0.026 A 
HETATM    5  C   UNL     1     -42.066  60.280 -51.001  1.00  0.00     0.041 C 
HETATM    6  C   UNL     1     -43.029  61.132 -50.161  1.00  0.00     0.010 C 
HETATM    7  C   UNL     1     -43.144  62.585 -50.695  1.00  0.00    -0.002 C 
HETATM    8  C   UNL     1     -43.701  62.555 -52.144  1.00  0.00     0.052 C 
HETATM    9  C   UNL     1     -41.903  59.519 -53.550  1.00  0.00     0.073 A 
ENDROOT
BRANCH   1  10
HETATM   10  N   UNL     1     -42.264  59.325 -55.986  1.00  0.00    -0.319 N 
HETATM   11  C   UNL     1     -41.788  59.834 -57.170  1.00  0.00     0.248 C 
HETATM   12  O   UNL     1     -41.270  60.927 -57.385  1.00  0.00    -0.271 OA
HETATM   13  H   UNL     1     -42.504  58.332 -55.918  1.00  0.00     0.169 HD
BRANCH  11  14
HETATM   14  C   UNL     1     -41.851  58.841 -58.331  1.00  0.00     0.335 C 
BRANCH  14  15
HETATM   15  N   UNL     1     -43.188  58.132 -58.334  1.00  0.00    -0.067 N 
HETATM   16  H   UNL     1     -43.893  58.892 -58.317  1.00  0.00     0.277 HD
HETATM   17  H   UNL     1     -43.308  57.592 -57.469  1.00  0.00     0.277 HD
BRANCH  15  18
HETATM   18  C   UNL     1     -43.426  57.282 -59.539  1.00  0.00     0.236 C 
BRANCH  18  19
HETATM   19  C   UNL     1     -43.179  55.804 -59.216  1.00  0.00     0.003 C 
HETATM   20  C   UNL     1     -44.277  54.954 -59.859  1.00  0.00     0.011 C 
HETATM   21  C   UNL     1     -43.130  55.534 -57.711  1.00  0.00     0.011 C 
ENDBRANCH  18  19
ENDBRANCH  15  18
ENDBRANCH  14  15
ENDBRANCH  11  14
ENDBRANCH   1  10
BRANCH   9  22
HETATM   22  C   UNL     1     -41.131  58.255 -53.505  1.00  0.00     0.259 C 
HETATM   23  N   UNL     1     -41.867  57.094 -53.602  1.00  0.00    -0.323 N 
HETATM   24  H   UNL     1     -42.871  57.182 -53.558  1.00  0.00     0.169 HD
HETATM   25  O   UNL     1     -39.914  58.305 -53.317  1.00  0.00    -0.267 OA
BRANCH  23  26
HETATM   26  C   UNL     1     -41.380  55.773 -53.692  1.00  0.00     0.035 A 
HETATM   27  C   UNL     1     -41.425  54.848 -52.649  1.00  0.00     0.032 A 
HETATM   28  C   UNL     1     -40.893  53.565 -52.816  1.00  0.00     0.039 A 
HETATM   29  C   UNL     1     -40.297  53.187 -54.020  1.00  0.00     0.068 A 
HETATM   30  C   UNL     1     -40.253  54.103 -55.068  1.00  0.00     0.039 A 
HETATM   31  C   UNL     1     -40.792  55.387 -54.904  1.00  0.00     0.032 A 
BRANCH  29  32
HETATM   32  O   UNL     1     -39.809  51.912 -54.040  1.00  0.00    -0.356 OA
HETATM   33  C   UNL     1     -39.547  51.301 -52.783  1.00  0.00     0.210 C 
ENDBRANCH  29  32
ENDBRANCH  23  26
ENDBRANCH   9  22
BRANCH   7  34
HETATM   34  C   UNL     1     -43.947  63.541 -49.735  1.00  0.00    -0.047 C 
HETATM   35  C   UNL     1     -43.016  64.663 -49.222  1.00  0.00     0.015 C 
HETATM   36  C   UNL     1     -45.114  64.223 -50.482  1.00  0.00     0.015 C 
HETATM   37  C   UNL     1     -44.526  62.801 -48.513  1.00  0.00     0.015 C 
ENDBRANCH   7  34
TORSDOF 9
ENDMDL
MODEL 7
REMARK VINA RESULT:      -7.3      3.466      8.758
REMARK  9 active torsions:
REMARK  status: ('A' for Active; 'I' for Inactive)
REMARK    1  A    between atoms: C_2  and  C_3 
REMARK    2  A    between atoms: C_3  and  N_4 
REMARK    3  A    between atoms: N_4  and  C_7 
REMARK    4  A    between atoms: C_7  and  C_8 
REMARK       I    between atoms: C_8  and  N_9 
REMARK    5  A    between atoms: N_9  and  C_10 
REMARK    6  A    between atoms: C_16  and  C_17 
REMARK    7  A    between atoms: C_22  and  C_23 
REMARK       I    between atoms: C_23  and  N_24 
REMARK    8  A    between atoms: N_24  and  C_25 
REMARK    9  A    between atoms: C_28  and  O_29 
ROOT
HETATM    1  C   UNL     1     -42.464  59.008 -55.829  1.00  0.00     0.093 A 
HETATM    2  S   UNL     1     -41.823  59.058 -54.266  1.00  0.00    -0.075 SA
HETATM    3  C   UNL     1     -41.889  57.370 -54.120  1.00  0.00    -0.008 A 
HETATM    4  C   UNL     1     -42.348  56.746 -55.268  1.00  0.00    -0.026 A 
HETATM    5  C   UNL     1     -42.468  55.248 -55.311  1.00  0.00     0.041 C 
HETATM    6  C   UNL     1     -42.470  54.614 -53.912  1.00  0.00     0.010 C 
HETATM    7  C   UNL     1     -41.331  55.169 -53.014  1.00  0.00    -0.002 C 
HETATM    8  C   UNL     1     -41.526  56.697 -52.826  1.00  0.00     0.052 C 
HETATM    9  C   UNL     1     -42.682  57.715 -56.299  1.00  0.00     0.073 A 
ENDROOT
BRANCH   1  10
HETATM   10  N   UNL     1     -42.776  60.174 -56.516  1.00  0.00    -0.319 N 
HETATM   11  C   UNL     1     -41.943  60.922 -57.312  1.00  0.00     0.248 C 
HETATM   12  O   UNL     1     -40.796  60.672 -57.676  1.00  0.00    -0.271 OA
HETATM   13  H   UNL     1     -43.768  60.418 -56.444  1.00  0.00     0.169 HD
BRANCH  11  14
HETATM   14  C   UNL     1     -42.602  62.184 -57.869  1.00  0.00     0.335 C 
BRANCH  14  15
HETATM   15  N   UNL     1     -42.311  62.308 -59.349  1.00  0.00    -0.067 N 
HETATM   16  H   UNL     1     -41.616  61.566 -59.548  1.00  0.00     0.277 HD
HETATM   17  H   UNL     1     -41.857  63.207 -59.550  1.00  0.00     0.277 HD
BRANCH  15  18
HETATM   18  C   UNL     1     -43.503  62.098 -60.225  1.00  0.00     0.236 C 
BRANCH  18  19
HETATM   19  C   UNL     1     -43.252  60.955 -61.215  1.00  0.00     0.003 C 
HETATM   20  C   UNL     1     -44.233  59.815 -60.933  1.00  0.00     0.011 C 
HETATM   21  C   UNL     1     -41.816  60.430 -61.152  1.00  0.00     0.011 C 
ENDBRANCH  18  19
ENDBRANCH  15  18
ENDBRANCH  14  15
ENDBRANCH  11  14
ENDBRANCH   1  10
BRANCH   9  22
HETATM   22  C   UNL     1     -43.220  57.515 -57.665  1.00  0.00     0.259 C 
HETATM   23  N   UNL     1     -44.491  56.987 -57.741  1.00  0.00    -0.323 N 
HETATM   24  H   UNL     1     -44.902  56.652 -56.883  1.00  0.00     0.169 HD
HETATM   25  O   UNL     1     -42.498  57.757 -58.633  1.00  0.00    -0.267 OA
BRANCH  23  26
HETATM   26  C   UNL     1     -45.274  56.797 -58.900  1.00  0.00     0.035 A 
HETATM   27  C   UNL     1     -46.440  57.509 -59.183  1.00  0.00     0.032 A 
HETATM   28  C   UNL     1     -47.171  57.237 -60.344  1.00  0.00     0.039 A 
HETATM   29  C   UNL     1     -46.759  56.246 -61.236  1.00  0.00     0.068 A 
HETATM   30  C   UNL     1     -45.593  55.535 -60.963  1.00  0.00     0.039 A 
HETATM   31  C   UNL     1     -44.856  55.810 -59.802  1.00  0.00     0.032 A 
BRANCH  29  32
HETATM   32  O   UNL     1     -47.572  56.079 -62.320  1.00  0.00    -0.356 OA
HETATM   33  C   UNL     1     -48.763  56.855 -62.359  1.00  0.00     0.210 C 
ENDBRANCH  29  32
ENDBRANCH  23  26
ENDBRANCH   9  22
BRANCH   7  34
HETATM   34  C   UNL     1     -41.168  54.386 -51.657  1.00  0.00    -0.047 C 
HETATM   35  C   UNL     1     -42.543  53.853 -51.196  1.00  0.00     0.015 C 
HETATM   36  C   UNL     1     -40.240  53.165 -51.830  1.00  0.00     0.015 C 
HETATM   37  C   UNL     1     -40.594  55.270 -50.532  1.00  0.00     0.015 C 
ENDBRANCH   7  34
TORSDOF 9
ENDMDL
MODEL 8
REMARK VINA RESULT:      -7.0      3.080      7.981
REMARK  9 active torsions:
REMARK  status: ('A' for Active; 'I' for Inactive)
REMARK    1  A    between atoms: C_2  and  C_3 
REMARK    2  A    between atoms: C_3  and  N_4 
REMARK    3  A    between atoms: N_4  and  C_7 
REMARK    4  A    between atoms: C_7  and  C_8 
REMARK       I    between atoms: C_8  and  N_9 
REMARK    5  A    between atoms: N_9  and  C_10 
REMARK    6  A    between atoms: C_16  and  C_17 
REMARK    7  A    between atoms: C_22  and  C_23 
REMARK       I    between atoms: C_23  and  N_24 
REMARK    8  A    between atoms: N_24  and  C_25 
REMARK    9  A    between atoms: C_28  and  O_29 
ROOT
HETATM    1  C   UNL     1     -42.090  57.863 -52.555  1.00  0.00     0.093 A 
HETATM    2  S   UNL     1     -41.619  58.685 -51.156  1.00  0.00    -0.075 SA
HETATM    3  C   UNL     1     -42.791  59.887 -51.395  1.00  0.00    -0.008 A 
HETATM    4  C   UNL     1     -43.585  59.654 -52.505  1.00  0.00    -0.026 A 
HETATM    5  C   UNL     1     -44.677  60.624 -52.863  1.00  0.00     0.041 C 
HETATM    6  C   UNL     1     -44.499  61.992 -52.188  1.00  0.00     0.010 C 
HETATM    7  C   UNL     1     -44.189  61.862 -50.672  1.00  0.00    -0.002 C 
HETATM    8  C   UNL     1     -42.860  61.082 -50.486  1.00  0.00     0.052 C 
HETATM    9  C   UNL     1     -43.183  58.441 -53.198  1.00  0.00     0.073 A 
ENDROOT
BRANCH   1  10
HETATM   10  N   UNL     1     -41.390  56.752 -53.008  1.00  0.00    -0.319 N 
HETATM   11  C   UNL     1     -41.651  55.432 -52.733  1.00  0.00     0.248 C 
HETATM   12  O   UNL     1     -42.607  54.944 -52.134  1.00  0.00    -0.271 OA
HETATM   13  H   UNL     1     -40.651  56.999 -53.672  1.00  0.00     0.169 HD
BRANCH  11  14
HETATM   14  C   UNL     1     -40.638  54.468 -53.352  1.00  0.00     0.335 C 
BRANCH  14  15
HETATM   15  N   UNL     1     -41.110  53.040 -53.178  1.00  0.00    -0.067 N 
HETATM   16  H   UNL     1     -42.145  53.098 -53.192  1.00  0.00     0.277 HD
HETATM   17  H   UNL     1     -40.841  52.685 -52.253  1.00  0.00     0.277 HD
BRANCH  15  18
HETATM   18  C   UNL     1     -40.664  52.114 -54.262  1.00  0.00     0.236 C 
BRANCH  18  19
HETATM   19  C   UNL     1     -39.541  51.198 -53.763  1.00  0.00     0.003 C 
HETATM   20  C   UNL     1     -39.716  49.804 -54.371  1.00  0.00     0.011 C 
HETATM   21  C   UNL     1     -39.504  51.096 -52.237  1.00  0.00     0.011 C 
ENDBRANCH  18  19
ENDBRANCH  15  18
ENDBRANCH  14  15
ENDBRANCH  11  14
ENDBRANCH   1  10
BRANCH   9  22
HETATM   22  C   UNL     1     -43.723  57.815 -54.427  1.00  0.00     0.259 C 
HETATM   23  N   UNL     1     -43.046  58.095 -55.595  1.00  0.00    -0.323 N 
HETATM   24  H   UNL     1     -42.329  58.804 -55.551  1.00  0.00     0.169 HD
HETATM   25  O   UNL     1     -44.760  57.153 -54.355  1.00  0.00    -0.267 OA
BRANCH  23  26
HETATM   26  C   UNL     1     -43.280  57.551 -56.875  1.00  0.00     0.035 A 
HETATM   27  C   UNL     1     -42.934  56.252 -57.249  1.00  0.00     0.032 A 
HETATM   28  C   UNL     1     -43.178  55.801 -58.551  1.00  0.00     0.039 A 
HETATM   29  C   UNL     1     -43.760  56.639 -59.503  1.00  0.00     0.068 A 
HETATM   30  C   UNL     1     -44.113  57.935 -59.135  1.00  0.00     0.039 A 
HETATM   31  C   UNL     1     -43.875  58.386 -57.829  1.00  0.00     0.032 A 
BRANCH  29  32
HETATM   32  O   UNL     1     -43.930  56.074 -60.734  1.00  0.00    -0.356 OA
HETATM   33  C   UNL     1     -45.017  55.170 -60.884  1.00  0.00     0.210 C 
ENDBRANCH  29  32
ENDBRANCH  23  26
ENDBRANCH   9  22
BRANCH   7  34
HETATM   34  C   UNL     1     -44.219  63.239 -49.909  1.00  0.00    -0.047 C 
HETATM   35  C   UNL     1     -45.290  64.159 -50.537  1.00  0.00     0.015 C 
HETATM   36  C   UNL     1     -44.599  63.042 -48.426  1.00  0.00     0.015 C 
HETATM   37  C   UNL     1     -42.864  63.974 -49.963  1.00  0.00     0.015 C 
ENDBRANCH   7  34
TORSDOF 9
ENDMDL
MODEL 9
REMARK VINA RESULT:      -7.0      3.715      9.434
REMARK  9 active torsions:
REMARK  status: ('A' for Active; 'I' for Inactive)
REMARK    1  A    between atoms: C_2  and  C_3 
REMARK    2  A    between atoms: C_3  and  N_4 
REMARK    3  A    between atoms: N_4  and  C_7 
REMARK    4  A    between atoms: C_7  and  C_8 
REMARK       I    between atoms: C_8  and  N_9 
REMARK    5  A    between atoms: N_9  and  C_10 
REMARK    6  A    between atoms: C_16  and  C_17 
REMARK    7  A    between atoms: C_22  and  C_23 
REMARK       I    between atoms: C_23  and  N_24 
REMARK    8  A    between atoms: N_24  and  C_25 
REMARK    9  A    between atoms: C_28  and  O_29 
ROOT
HETATM    1  C   UNL     1     -44.006  56.573 -54.247  1.00  0.00     0.093 A 
HETATM    2  S   UNL     1     -43.369  55.010 -54.186  1.00  0.00    -0.075 SA
HETATM    3  C   UNL     1     -42.656  55.294 -52.674  1.00  0.00    -0.008 A 
HETATM    4  C   UNL     1     -42.933  56.556 -52.175  1.00  0.00    -0.026 A 
HETATM    5  C   UNL     1     -42.378  56.974 -50.841  1.00  0.00     0.041 C 
HETATM    6  C   UNL     1     -41.206  56.093 -50.385  1.00  0.00     0.010 C 
HETATM    7  C   UNL     1     -41.516  54.579 -50.536  1.00  0.00    -0.002 C 
HETATM    8  C   UNL     1     -41.778  54.257 -52.032  1.00  0.00     0.052 C 
HETATM    9  C   UNL     1     -43.749  57.323 -53.100  1.00  0.00     0.073 A 
ENDROOT
BRANCH   1  10
HETATM   10  N   UNL     1     -44.669  57.037 -55.375  1.00  0.00    -0.319 N 
HETATM   11  C   UNL     1     -44.114  57.613 -56.492  1.00  0.00     0.248 C 
HETATM   12  O   UNL     1     -42.926  57.740 -56.783  1.00  0.00    -0.271 OA
HETATM   13  H   UNL     1     -45.673  56.838 -55.350  1.00  0.00     0.169 HD
BRANCH  11  14
HETATM   14  C   UNL     1     -45.147  58.063 -57.525  1.00  0.00     0.335 C 
BRANCH  14  15
HETATM   15  N   UNL     1     -45.513  56.904 -58.428  1.00  0.00    -0.067 N 
HETATM   16  H   UNL     1     -46.548  56.858 -58.397  1.00  0.00     0.277 HD
HETATM   17  H   UNL     1     -45.161  56.022 -58.038  1.00  0.00     0.277 HD
BRANCH  15  18
HETATM   18  C   UNL     1     -45.082  57.077 -59.848  1.00  0.00     0.236 C 
BRANCH  18  19
HETATM   19  C   UNL     1     -44.233  55.885 -60.304  1.00  0.00     0.003 C 
HETATM   20  C   UNL     1     -44.996  54.586 -60.035  1.00  0.00     0.011 C 
HETATM   21  C   UNL     1     -42.870  55.838 -59.612  1.00  0.00     0.011 C 
ENDBRANCH  18  19
ENDBRANCH  15  18
ENDBRANCH  14  15
ENDBRANCH  11  14
ENDBRANCH   1  10
BRANCH   9  22
HETATM   22  C   UNL     1     -44.268  58.707 -53.002  1.00  0.00     0.259 C 
HETATM   23  N   UNL     1     -45.284  58.908 -52.092  1.00  0.00    -0.323 N 
HETATM   24  H   UNL     1     -45.688  58.087 -51.667  1.00  0.00     0.169 HD
HETATM   25  O   UNL     1     -43.827  59.567 -53.766  1.00  0.00    -0.267 OA
BRANCH  23  26
HETATM   26  C   UNL     1     -45.880  60.133 -51.726  1.00  0.00     0.035 A 
HETATM   27  C   UNL     1     -46.662  60.911 -52.580  1.00  0.00     0.032 A 
HETATM   28  C   UNL     1     -47.193  62.128 -52.142  1.00  0.00     0.039 A 
HETATM   29  C   UNL     1     -46.943  62.597 -50.852  1.00  0.00     0.068 A 
HETATM   30  C   UNL     1     -46.167  61.825 -49.992  1.00  0.00     0.039 A 
HETATM   31  C   UNL     1     -45.640  60.600 -50.427  1.00  0.00     0.032 A 
BRANCH  29  32
HETATM   32  O   UNL     1     -47.511  63.805 -50.563  1.00  0.00    -0.356 OA
HETATM   33  C   UNL     1     -48.426  64.332 -51.516  1.00  0.00     0.210 C 
ENDBRANCH  29  32
ENDBRANCH  23  26
ENDBRANCH   9  22
BRANCH   7  34
HETATM   34  C   UNL     1     -40.429  53.650 -49.877  1.00  0.00    -0.047 C 
HETATM   35  C   UNL     1     -39.044  54.330 -49.959  1.00  0.00     0.015 C 
HETATM   36  C   UNL     1     -40.733  53.416 -48.381  1.00  0.00     0.015 C 
HETATM   37  C   UNL     1     -40.330  52.275 -50.567  1.00  0.00     0.015 C 
ENDBRANCH   7  34
TORSDOF 9
ENDMDL
MODEL 10
REMARK VINA RESULT:      -6.9      2.938      7.518
REMARK  9 active torsions:
REMARK  status: ('A' for Active; 'I' for Inactive)
REMARK    1  A    between atoms: C_2  and  C_3 
REMARK    2  A    between atoms: C_3  and  N_4 
REMARK    3  A    between atoms: N_4  and  C_7 
REMARK    4  A    between atoms: C_7  and  C_8 
REMARK       I    between atoms: C_8  and  N_9 
REMARK    5  A    between atoms: N_9  and  C_10 
REMARK    6  A    between atoms: C_16  and  C_17 
REMARK    7  A    between atoms: C_22  and  C_23 
REMARK       I    between atoms: C_23  and  N_24 
REMARK    8  A    between atoms: N_24  and  C_25 
REMARK    9  A    between atoms: C_28  and  O_29 
ROOT
HETATM    1  C   UNL     1     -41.310  56.439 -51.794  1.00  0.00     0.093 A 
HETATM    2  S   UNL     1     -40.827  55.082 -50.911  1.00  0.00    -0.075 SA
HETATM    3  C   UNL     1     -40.696  54.140 -52.315  1.00  0.00    -0.008 A 
HETATM    4  C   UNL     1     -40.967  54.853 -53.471  1.00  0.00    -0.026 A 
HETATM    5  C   UNL     1     -40.896  54.169 -54.808  1.00  0.00     0.041 C 
HETATM    6  C   UNL     1     -40.948  52.638 -54.694  1.00  0.00     0.010 C 
HETATM    7  C   UNL     1     -39.975  52.097 -53.613  1.00  0.00    -0.002 C 
HETATM    8  C   UNL     1     -40.374  52.674 -52.229  1.00  0.00     0.052 C 
HETATM    9  C   UNL     1     -41.321  56.230 -53.172  1.00  0.00     0.073 A 
ENDROOT
BRANCH   1  10
HETATM   10  N   UNL     1     -41.698  57.610 -51.158  1.00  0.00    -0.319 N 
HETATM   11  C   UNL     1     -40.887  58.610 -50.680  1.00  0.00     0.248 C 
HETATM   12  O   UNL     1     -39.671  58.741 -50.806  1.00  0.00    -0.271 OA
HETATM   13  H   UNL     1     -42.716  57.723 -51.133  1.00  0.00     0.169 HD
BRANCH  11  14
HETATM   14  C   UNL     1     -41.650  59.734 -49.979  1.00  0.00     0.335 C 
BRANCH  14  15
HETATM   15  N   UNL     1     -42.982  59.957 -50.661  1.00  0.00    -0.067 N 
HETATM   16  H   UNL     1     -43.605  60.322 -49.917  1.00  0.00     0.277 HD
HETATM   17  H   UNL     1     -43.378  59.063 -50.973  1.00  0.00     0.277 HD
BRANCH  15  18
HETATM   18  C   UNL     1     -42.937  60.947 -51.778  1.00  0.00     0.236 C 
BRANCH  18  19
HETATM   19  C   UNL     1     -44.107  60.728 -52.744  1.00  0.00     0.003 C 
HETATM   20  C   UNL     1     -44.560  59.268 -52.668  1.00  0.00     0.011 C 
HETATM   21  C   UNL     1     -43.751  61.086 -54.187  1.00  0.00     0.011 C 
ENDBRANCH  18  19
ENDBRANCH  15  18
ENDBRANCH  14  15
ENDBRANCH  11  14
ENDBRANCH   1  10
BRANCH   9  22
HETATM   22  C   UNL     1     -41.702  57.340 -54.076  1.00  0.00     0.259 C 
HETATM   23  N   UNL     1     -42.571  57.017 -55.096  1.00  0.00    -0.323 N 
HETATM   24  H   UNL     1     -42.773  56.039 -55.235  1.00  0.00     0.169 HD
HETATM   25  O   UNL     1     -41.182  58.446 -53.917  1.00  0.00    -0.267 OA
BRANCH  23  26
HETATM   26  C   UNL     1     -43.172  57.895 -56.023  1.00  0.00     0.035 A 
HETATM   27  C   UNL     1     -42.461  58.693 -56.920  1.00  0.00     0.032 A 
HETATM   28  C   UNL     1     -43.137  59.557 -57.788  1.00  0.00     0.039 A 
HETATM   29  C   UNL     1     -44.529  59.650 -57.768  1.00  0.00     0.068 A 
HETATM   30  C   UNL     1     -45.245  58.853 -56.879  1.00  0.00     0.039 A 
HETATM   31  C   UNL     1     -44.570  57.981 -56.013  1.00  0.00     0.032 A 
BRANCH  29  32
HETATM   32  O   UNL     1     -45.055  60.541 -58.659  1.00  0.00    -0.356 OA
HETATM   33  C   UNL     1     -45.501  61.787 -58.137  1.00  0.00     0.210 C 
ENDBRANCH  29  32
ENDBRANCH  23  26
ENDBRANCH   9  22
BRANCH   7  34
HETATM   34  C   UNL     1     -39.842  50.527 -53.622  1.00  0.00    -0.047 C 
HETATM   35  C   UNL     1     -41.092  49.904 -54.281  1.00  0.00     0.015 C 
HETATM   36  C   UNL     1     -38.619  50.080 -54.450  1.00  0.00     0.015 C 
HETATM   37  C   UNL     1     -39.702  49.939 -52.204  1.00  0.00     0.015 C 
ENDBRANCH   7  34
TORSDOF 9
ENDMDL
