MODEL 1
REMARK VINA RESULT:      -7.9      0.000      0.000
REMARK  5 active torsions:
REMARK  status: ('A' for Active; 'I' for Inactive)
REMARK    1  A    between atoms: O_2  and  C_3 
REMARK    2  A    between atoms: C_7  and  C_9 
REMARK    3  A    between atoms: C_9  and  N_11 
REMARK       I    between atoms: N_11  and  C_12 
REMARK       I    between atoms: C_12  and  N_14 
REMARK    4  A    between atoms: N_14  and  C_15 
REMARK    5  A    between atoms: C_18  and  C_21 
ROOT
HETATM    1  N   UNL     1     -41.464  55.509 -53.302  1.00  0.00    -0.335 N 
HETATM    2  C   UNL     1     -42.404  56.003 -54.136  1.00  0.00     0.322 C 
HETATM    3  O   UNL     1     -43.599  56.143 -53.958  1.00  0.00    -0.247 OA
HETATM    4  N   UNL     1     -41.830  56.372 -55.355  1.00  0.00    -0.289 N 
HETATM    5  H   UNL     1     -40.497  55.434 -53.583  1.00  0.00     0.165 HD
HETATM    6  H   UNL     1     -40.860  56.244 -55.587  1.00  0.00     0.172 HD
ENDROOT
BRANCH   1   7
HETATM    7  C   UNL     1     -41.789  54.949 -51.995  1.00  0.00     0.115 C 
HETATM    8  C   UNL     1     -41.534  55.939 -50.856  1.00  0.00     0.037 C 
BRANCH   7   9
HETATM    9  C   UNL     1     -41.004  53.662 -51.824  1.00  0.00    -0.033 A 
HETATM   10  C   UNL     1     -40.869  53.078 -50.558  1.00  0.00     0.009 A 
HETATM   11  C   UNL     1     -40.198  51.863 -50.409  1.00  0.00     0.003 A 
HETATM   12  C   UNL     1     -39.661  51.209 -51.521  1.00  0.00     0.037 A 
HETATM   13  C   UNL     1     -39.789  51.770 -52.789  1.00  0.00     0.068 A 
HETATM   14  C   UNL     1     -40.455  52.991 -52.931  1.00  0.00     0.046 A 
BRANCH  13  15
HETATM   15  O   UNL     1     -39.331  51.237 -53.961  1.00  0.00    -0.356 OA
HETATM   16  C   UNL     1     -39.881  49.987 -54.359  1.00  0.00     0.210 C 
ENDBRANCH  13  15
ENDBRANCH   7   9
ENDBRANCH   1   7
BRANCH   4  17
HETATM   17  C   UNL     1     -42.551  56.900 -56.328  1.00  0.00     0.153 A 
HETATM   18  N   UNL     1     -43.240  56.236 -57.260  1.00  0.00    -0.335 N 
HETATM   19  H   UNL     1     -43.224  55.213 -57.242  1.00  0.00     0.168 HD
HETATM   20  C   UNL     1     -43.921  57.044 -58.153  1.00  0.00     0.051 A 
HETATM   21  C   UNL     1     -43.711  58.382 -57.887  1.00  0.00     0.083 A 
HETATM   22  S   UNL     1     -42.703  58.611 -56.509  1.00  0.00    -0.063 SA
BRANCH  20  23
HETATM   23  C   UNL     1     -44.752  56.525 -59.235  1.00  0.00    -0.006 A 
HETATM   24  C   UNL     1     -44.261  55.583 -60.148  1.00  0.00     0.033 A 
HETATM   25  C   UNL     1     -45.095  55.137 -61.161  1.00  0.00     0.117 A 
HETATM   26  N   UNL     1     -46.359  55.566 -61.325  1.00  0.00    -0.273 NA
HETATM   27  C   UNL     1     -46.822  56.472 -60.445  1.00  0.00     0.117 A 
HETATM   28  C   UNL     1     -46.068  56.975 -59.395  1.00  0.00     0.033 A 
ENDBRANCH  20  23
ENDBRANCH   4  17
TORSDOF 5
ENDMDL
MODEL 2
REMARK VINA RESULT:      -7.8      2.483      8.679
REMARK  5 active torsions:
REMARK  status: ('A' for Active; 'I' for Inactive)
REMARK    1  A    between atoms: O_2  and  C_3 
REMARK    2  A    between atoms: C_7  and  C_9 
REMARK    3  A    between atoms: C_9  and  N_11 
REMARK       I    between atoms: N_11  and  C_12 
REMARK       I    between atoms: C_12  and  N_14 
REMARK    4  A    between atoms: N_14  and  C_15 
REMARK    5  A    between atoms: C_18  and  C_21 
ROOT
HETATM    1  N   UNL     1     -44.746  57.584 -56.592  1.00  0.00    -0.335 N 
HETATM    2  C   UNL     1     -43.759  57.024 -55.861  1.00  0.00     0.322 C 
HETATM    3  O   UNL     1     -42.562  56.993 -56.074  1.00  0.00    -0.247 OA
HETATM    4  N   UNL     1     -44.283  56.409 -54.722  1.00  0.00    -0.289 N 
HETATM    5  H   UNL     1     -45.713  57.524 -56.305  1.00  0.00     0.165 HD
HETATM    6  H   UNL     1     -45.263  56.358 -54.505  1.00  0.00     0.172 HD
ENDROOT
BRANCH   1   7
HETATM    7  C   UNL     1     -44.508  58.208 -57.889  1.00  0.00     0.115 C 
HETATM    8  C   UNL     1     -45.289  59.513 -58.061  1.00  0.00     0.037 C 
BRANCH   7   9
HETATM    9  C   UNL     1     -44.838  57.194 -58.968  1.00  0.00    -0.033 A 
HETATM   10  C   UNL     1     -43.853  56.319 -59.444  1.00  0.00     0.009 A 
HETATM   11  C   UNL     1     -44.171  55.346 -60.393  1.00  0.00     0.003 A 
HETATM   12  C   UNL     1     -45.478  55.226 -60.874  1.00  0.00     0.037 A 
HETATM   13  C   UNL     1     -46.472  56.082 -60.410  1.00  0.00     0.068 A 
HETATM   14  C   UNL     1     -46.147  57.059 -59.465  1.00  0.00     0.046 A 
BRANCH  13  15
HETATM   15  O   UNL     1     -47.789  56.068 -60.777  1.00  0.00    -0.356 OA
HETATM   16  C   UNL     1     -48.140  56.800 -61.946  1.00  0.00     0.210 C 
ENDBRANCH  13  15
ENDBRANCH   7   9
ENDBRANCH   1   7
BRANCH   4  17
HETATM   17  C   UNL     1     -43.504  55.806 -53.840  1.00  0.00     0.153 A 
HETATM   18  N   UNL     1     -42.738  54.735 -54.056  1.00  0.00    -0.335 N 
HETATM   19  H   UNL     1     -42.734  54.316 -54.989  1.00  0.00     0.168 HD
HETATM   20  C   UNL     1     -42.011  54.320 -52.953  1.00  0.00     0.051 A 
HETATM   21  C   UNL     1     -42.266  55.111 -51.851  1.00  0.00     0.083 A 
HETATM   22  S   UNL     1     -43.374  56.378 -52.216  1.00  0.00    -0.063 SA
BRANCH  20  23
HETATM   23  C   UNL     1     -41.094  53.184 -52.976  1.00  0.00    -0.006 A 
HETATM   24  C   UNL     1     -40.936  52.394 -54.121  1.00  0.00     0.033 A 
HETATM   25  C   UNL     1     -40.059  51.321 -54.077  1.00  0.00     0.117 A 
HETATM   26  N   UNL     1     -39.349  50.987 -52.984  1.00  0.00    -0.273 NA
HETATM   27  C   UNL     1     -39.508  51.751 -51.888  1.00  0.00     0.117 A 
HETATM   28  C   UNL     1     -40.357  52.847 -51.835  1.00  0.00     0.033 A 
ENDBRANCH  20  23
ENDBRANCH   4  17
TORSDOF 5
ENDMDL
MODEL 3
REMARK VINA RESULT:      -7.8      2.679      8.368
REMARK  5 active torsions:
REMARK  status: ('A' for Active; 'I' for Inactive)
REMARK    1  A    between atoms: O_2  and  C_3 
REMARK    2  A    between atoms: C_7  and  C_9 
REMARK    3  A    between atoms: C_9  and  N_11 
REMARK       I    between atoms: N_11  and  C_12 
REMARK       I    between atoms: C_12  and  N_14 
REMARK    4  A    between atoms: N_14  and  C_15 
REMARK    5  A    between atoms: C_18  and  C_21 
ROOT
HETATM    1  N   UNL     1     -45.945  57.874 -56.263  1.00  0.00    -0.335 N 
HETATM    2  C   UNL     1     -44.813  57.506 -55.625  1.00  0.00     0.322 C 
HETATM    3  O   UNL     1     -43.656  57.762 -55.897  1.00  0.00    -0.247 OA
HETATM    4  N   UNL     1     -45.113  56.716 -54.514  1.00  0.00    -0.289 N 
HETATM    5  H   UNL     1     -46.854  57.577 -55.936  1.00  0.00     0.165 HD
HETATM    6  H   UNL     1     -46.041  56.429 -54.255  1.00  0.00     0.172 HD
ENDROOT
BRANCH   1   7
HETATM    7  C   UNL     1     -45.935  58.618 -57.517  1.00  0.00     0.115 C 
HETATM    8  C   UNL     1     -47.177  59.497 -57.684  1.00  0.00     0.037 C 
BRANCH   7   9
HETATM    9  C   UNL     1     -45.776  57.625 -58.654  1.00  0.00    -0.033 A 
HETATM   10  C   UNL     1     -46.903  57.045 -59.250  1.00  0.00     0.009 A 
HETATM   11  C   UNL     1     -46.761  56.179 -60.335  1.00  0.00     0.003 A 
HETATM   12  C   UNL     1     -45.494  55.887 -60.848  1.00  0.00     0.037 A 
HETATM   13  C   UNL     1     -44.362  56.458 -60.274  1.00  0.00     0.068 A 
HETATM   14  C   UNL     1     -44.510  57.319 -59.182  1.00  0.00     0.046 A 
BRANCH  13  15
HETATM   15  O   UNL     1     -43.069  56.278 -60.679  1.00  0.00    -0.356 OA
HETATM   16  C   UNL     1     -42.083  57.108 -60.076  1.00  0.00     0.210 C 
ENDBRANCH  13  15
ENDBRANCH   7   9
ENDBRANCH   1   7
BRANCH   4  17
HETATM   17  C   UNL     1     -44.165  56.250 -53.719  1.00  0.00     0.153 A 
HETATM   18  N   UNL     1     -43.399  55.178 -53.937  1.00  0.00    -0.335 N 
HETATM   19  H   UNL     1     -43.539  54.644 -54.798  1.00  0.00     0.168 HD
HETATM   20  C   UNL     1     -42.472  54.926 -52.941  1.00  0.00     0.051 A 
HETATM   21  C   UNL     1     -42.567  55.844 -51.915  1.00  0.00     0.083 A 
HETATM   22  S   UNL     1     -43.779  57.028 -52.226  1.00  0.00    -0.063 SA
BRANCH  20  23
HETATM   23  C   UNL     1     -41.521  53.818 -52.989  1.00  0.00    -0.006 A 
HETATM   24  C   UNL     1     -40.801  53.423 -51.855  1.00  0.00     0.033 A 
HETATM   25  C   UNL     1     -39.903  52.373 -51.967  1.00  0.00     0.117 A 
HETATM   26  N   UNL     1     -39.676  51.709 -53.115  1.00  0.00    -0.273 NA
HETATM   27  C   UNL     1     -40.372  52.097 -54.199  1.00  0.00     0.117 A 
HETATM   28  C   UNL     1     -41.294  53.132 -54.187  1.00  0.00     0.033 A 
ENDBRANCH  20  23
ENDBRANCH   4  17
TORSDOF 5
ENDMDL
MODEL 4
REMARK VINA RESULT:      -7.5      2.983      9.299
REMARK  5 active torsions:
REMARK  status: ('A' for Active; 'I' for Inactive)
REMARK    1  A    between atoms: O_2  and  C_3 
REMARK    2  A    between atoms: C_7  and  C_9 
REMARK    3  A    between atoms: C_9  and  N_11 
REMARK       I    between atoms: N_11  and  C_12 
REMARK       I    between atoms: C_12  and  N_14 
REMARK    4  A    between atoms: N_14  and  C_15 
REMARK    5  A    between atoms: C_18  and  C_21 
ROOT
HETATM    1  N   UNL     1     -42.360  56.716 -57.574  1.00  0.00    -0.335 N 
HETATM    2  C   UNL     1     -42.369  55.789 -56.593  1.00  0.00     0.322 C 
HETATM    3  O   UNL     1     -43.132  54.858 -56.417  1.00  0.00    -0.247 OA
HETATM    4  N   UNL     1     -41.324  56.016 -55.695  1.00  0.00    -0.289 N 
HETATM    5  H   UNL     1     -41.671  57.455 -57.594  1.00  0.00     0.165 HD
HETATM    6  H   UNL     1     -40.685  56.790 -55.753  1.00  0.00     0.172 HD
ENDROOT
BRANCH   1   7
HETATM    7  C   UNL     1     -43.397  56.790 -58.597  1.00  0.00     0.115 C 
HETATM    8  C   UNL     1     -43.310  55.637 -59.599  1.00  0.00     0.037 C 
BRANCH   7   9
HETATM    9  C   UNL     1     -43.300  58.146 -59.271  1.00  0.00    -0.033 A 
HETATM   10  C   UNL     1     -42.148  58.928 -59.126  1.00  0.00     0.009 A 
HETATM   11  C   UNL     1     -42.034  60.148 -59.795  1.00  0.00     0.003 A 
HETATM   12  C   UNL     1     -43.063  60.601 -60.625  1.00  0.00     0.037 A 
HETATM   13  C   UNL     1     -44.214  59.835 -60.787  1.00  0.00     0.068 A 
HETATM   14  C   UNL     1     -44.326  58.617 -60.108  1.00  0.00     0.046 A 
BRANCH  13  15
HETATM   15  O   UNL     1     -45.287  60.143 -61.576  1.00  0.00    -0.356 OA
HETATM   16  C   UNL     1     -46.575  59.800 -61.075  1.00  0.00     0.210 C 
ENDBRANCH  13  15
ENDBRANCH   7   9
ENDBRANCH   1   7
BRANCH   4  17
HETATM   17  C   UNL     1     -41.118  55.224 -54.657  1.00  0.00     0.153 A 
HETATM   18  N   UNL     1     -40.770  53.936 -54.695  1.00  0.00    -0.335 N 
HETATM   19  H   UNL     1     -40.645  53.490 -55.607  1.00  0.00     0.168 HD
HETATM   20  C   UNL     1     -40.605  53.351 -53.452  1.00  0.00     0.051 A 
HETATM   21  C   UNL     1     -40.866  54.245 -52.433  1.00  0.00     0.083 A 
HETATM   22  S   UNL     1     -41.272  55.805 -53.038  1.00  0.00    -0.063 SA
BRANCH  20  23
HETATM   23  C   UNL     1     -40.205  51.959 -53.264  1.00  0.00    -0.006 A 
HETATM   24  C   UNL     1     -39.790  51.479 -52.016  1.00  0.00     0.033 A 
HETATM   25  C   UNL     1     -39.411  50.150 -51.903  1.00  0.00     0.117 A 
HETATM   26  N   UNL     1     -39.411  49.288 -52.936  1.00  0.00    -0.273 NA
HETATM   27  C   UNL     1     -39.810  49.759 -54.132  1.00  0.00     0.117 A 
HETATM   28  C   UNL     1     -40.213  51.069 -54.344  1.00  0.00     0.033 A 
ENDBRANCH  20  23
ENDBRANCH   4  17
TORSDOF 5
ENDMDL
MODEL 5
REMARK VINA RESULT:      -7.4      2.930      9.170
REMARK  5 active torsions:
REMARK  status: ('A' for Active; 'I' for Inactive)
REMARK    1  A    between atoms: O_2  and  C_3 
REMARK    2  A    between atoms: C_7  and  C_9 
REMARK    3  A    between atoms: C_9  and  N_11 
REMARK       I    between atoms: N_11  and  C_12 
REMARK       I    between atoms: C_12  and  N_14 
REMARK    4  A    between atoms: N_14  and  C_15 
REMARK    5  A    between atoms: C_18  and  C_21 
ROOT
HETATM    1  N   UNL     1     -42.269  56.870 -57.497  1.00  0.00    -0.335 N 
HETATM    2  C   UNL     1     -42.266  55.885 -56.573  1.00  0.00     0.322 C 
HETATM    3  O   UNL     1     -42.935  54.871 -56.523  1.00  0.00    -0.247 OA
HETATM    4  N   UNL     1     -41.338  56.162 -55.567  1.00  0.00    -0.289 N 
HETATM    5  H   UNL     1     -41.665  57.675 -57.411  1.00  0.00     0.165 HD
HETATM    6  H   UNL     1     -40.784  57.000 -55.521  1.00  0.00     0.172 HD
ENDROOT
BRANCH   1   7
HETATM    7  C   UNL     1     -43.211  56.901 -58.610  1.00  0.00     0.115 C 
HETATM    8  C   UNL     1     -42.934  55.803 -59.640  1.00  0.00     0.037 C 
BRANCH   7   9
HETATM    9  C   UNL     1     -43.171  58.288 -59.225  1.00  0.00    -0.033 A 
HETATM   10  C   UNL     1     -44.182  58.704 -60.101  1.00  0.00     0.009 A 
HETATM   11  C   UNL     1     -44.178  60.000 -60.618  1.00  0.00     0.003 A 
HETATM   12  C   UNL     1     -43.172  60.903 -60.263  1.00  0.00     0.037 A 
HETATM   13  C   UNL     1     -42.162  60.511 -59.389  1.00  0.00     0.068 A 
HETATM   14  C   UNL     1     -42.166  59.209 -58.879  1.00  0.00     0.046 A 
BRANCH  13  15
HETATM   15  O   UNL     1     -41.130  61.288 -58.942  1.00  0.00    -0.356 OA
HETATM   16  C   UNL     1     -41.444  62.626 -58.574  1.00  0.00     0.210 C 
ENDBRANCH  13  15
ENDBRANCH   7   9
ENDBRANCH   1   7
BRANCH   4  17
HETATM   17  C   UNL     1     -41.141  55.331 -54.558  1.00  0.00     0.153 A 
HETATM   18  N   UNL     1     -40.788  54.046 -54.642  1.00  0.00    -0.335 N 
HETATM   19  H   UNL     1     -40.650  53.637 -55.569  1.00  0.00     0.168 HD
HETATM   20  C   UNL     1     -40.636  53.414 -53.420  1.00  0.00     0.051 A 
HETATM   21  C   UNL     1     -40.913  54.267 -52.371  1.00  0.00     0.083 A 
HETATM   22  S   UNL     1     -41.318  55.848 -52.920  1.00  0.00    -0.063 SA
BRANCH  20  23
HETATM   23  C   UNL     1     -40.233  52.017 -53.282  1.00  0.00    -0.006 A 
HETATM   24  C   UNL     1     -40.269  51.135 -54.369  1.00  0.00     0.033 A 
HETATM   25  C   UNL     1     -39.885  49.817 -54.172  1.00  0.00     0.117 A 
HETATM   26  N   UNL     1     -39.483  49.331 -52.984  1.00  0.00    -0.273 NA
HETATM   27  C   UNL     1     -39.454  50.186 -51.946  1.00  0.00     0.117 A 
HETATM   28  C   UNL     1     -39.813  51.522 -52.043  1.00  0.00     0.033 A 
ENDBRANCH  20  23
ENDBRANCH   4  17
TORSDOF 5
ENDMDL
MODEL 6
REMARK VINA RESULT:      -7.4      2.279      3.311
REMARK  5 active torsions:
REMARK  status: ('A' for Active; 'I' for Inactive)
REMARK    1  A    between atoms: O_2  and  C_3 
REMARK    2  A    between atoms: C_7  and  C_9 
REMARK    3  A    between atoms: C_9  and  N_11 
REMARK       I    between atoms: N_11  and  C_12 
REMARK       I    between atoms: C_12  and  N_14 
REMARK    4  A    between atoms: N_14  and  C_15 
REMARK    5  A    between atoms: C_18  and  C_21 
ROOT
HETATM    1  N   UNL     1     -41.618  55.612 -55.534  1.00  0.00    -0.335 N 
HETATM    2  C   UNL     1     -42.789  55.926 -56.128  1.00  0.00     0.322 C 
HETATM    3  O   UNL     1     -43.832  56.302 -55.628  1.00  0.00    -0.247 OA
HETATM    4  N   UNL     1     -42.697  55.756 -57.511  1.00  0.00    -0.289 N 
HETATM    5  H   UNL     1     -40.824  55.294 -56.071  1.00  0.00     0.165 HD
HETATM    6  H   UNL     1     -41.883  55.407 -57.986  1.00  0.00     0.172 HD
ENDROOT
BRANCH   1   7
HETATM    7  C   UNL     1     -41.450  55.597 -54.085  1.00  0.00     0.115 C 
HETATM    8  C   UNL     1     -40.562  56.740 -53.589  1.00  0.00     0.037 C 
BRANCH   7   9
HETATM    9  C   UNL     1     -40.911  54.236 -53.686  1.00  0.00    -0.033 A 
HETATM   10  C   UNL     1     -40.557  53.299 -54.666  1.00  0.00     0.009 A 
HETATM   11  C   UNL     1     -40.004  52.071 -54.301  1.00  0.00     0.003 A 
HETATM   12  C   UNL     1     -39.787  51.762 -52.956  1.00  0.00     0.037 A 
HETATM   13  C   UNL     1     -40.126  52.682 -51.967  1.00  0.00     0.068 A 
HETATM   14  C   UNL     1     -40.687  53.908 -52.338  1.00  0.00     0.046 A 
BRANCH  13  15
HETATM   15  O   UNL     1     -39.955  52.523 -50.620  1.00  0.00    -0.356 OA
HETATM   16  C   UNL     1     -40.583  53.479 -49.774  1.00  0.00     0.210 C 
ENDBRANCH  13  15
ENDBRANCH   7   9
ENDBRANCH   1   7
BRANCH   4  17
HETATM   17  C   UNL     1     -43.716  56.020 -58.311  1.00  0.00     0.153 A 
HETATM   18  N   UNL     1     -44.552  57.057 -58.220  1.00  0.00    -0.335 N 
HETATM   19  H   UNL     1     -44.414  57.731 -57.463  1.00  0.00     0.168 HD
HETATM   20  C   UNL     1     -45.524  57.095 -59.204  1.00  0.00     0.051 A 
HETATM   21  C   UNL     1     -45.422  56.018 -60.060  1.00  0.00     0.083 A 
HETATM   22  S   UNL     1     -44.095  54.999 -59.650  1.00  0.00    -0.063 SA
BRANCH  20  23
HETATM   23  C   UNL     1     -46.525  58.154 -59.305  1.00  0.00    -0.006 A 
HETATM   24  C   UNL     1     -47.018  58.579 -60.545  1.00  0.00     0.033 A 
HETATM   25  C   UNL     1     -47.959  59.596 -60.576  1.00  0.00     0.117 A 
HETATM   26  N   UNL     1     -48.425  60.211 -59.474  1.00  0.00    -0.273 NA
HETATM   27  C   UNL     1     -47.945  59.797 -58.288  1.00  0.00     0.117 A 
HETATM   28  C   UNL     1     -47.007  58.784 -58.152  1.00  0.00     0.033 A 
ENDBRANCH  20  23
ENDBRANCH   4  17
TORSDOF 5
ENDMDL
MODEL 7
REMARK VINA RESULT:      -7.4      5.065      7.681
REMARK  5 active torsions:
REMARK  status: ('A' for Active; 'I' for Inactive)
REMARK    1  A    between atoms: O_2  and  C_3 
REMARK    2  A    between atoms: C_7  and  C_9 
REMARK    3  A    between atoms: C_9  and  N_11 
REMARK       I    between atoms: N_11  and  C_12 
REMARK       I    between atoms: C_12  and  N_14 
REMARK    4  A    between atoms: N_14  and  C_15 
REMARK    5  A    between atoms: C_18  and  C_21 
ROOT
HETATM    1  N   UNL     1     -40.805  56.075 -50.976  1.00  0.00    -0.335 N 
HETATM    2  C   UNL     1     -41.764  57.025 -50.972  1.00  0.00     0.322 C 
HETATM    3  O   UNL     1     -42.961  56.914 -50.788  1.00  0.00    -0.247 OA
HETATM    4  N   UNL     1     -41.210  58.280 -51.233  1.00  0.00    -0.289 N 
HETATM    5  H   UNL     1     -39.838  56.304 -51.159  1.00  0.00     0.165 HD
HETATM    6  H   UNL     1     -40.238  58.440 -51.437  1.00  0.00     0.172 HD
ENDROOT
BRANCH   1   7
HETATM    7  C   UNL     1     -41.104  54.655 -50.834  1.00  0.00     0.115 C 
HETATM    8  C   UNL     1     -40.357  54.016 -49.661  1.00  0.00     0.037 C 
BRANCH   7   9
HETATM    9  C   UNL     1     -40.792  53.972 -52.153  1.00  0.00    -0.033 A 
HETATM   10  C   UNL     1     -40.891  54.680 -53.357  1.00  0.00     0.009 A 
HETATM   11  C   UNL     1     -40.546  54.071 -54.565  1.00  0.00     0.003 A 
HETATM   12  C   UNL     1     -40.089  52.750 -54.588  1.00  0.00     0.037 A 
HETATM   13  C   UNL     1     -39.980  52.031 -53.401  1.00  0.00     0.068 A 
HETATM   14  C   UNL     1     -40.333  52.644 -52.195  1.00  0.00     0.046 A 
BRANCH  13  15
HETATM   15  O   UNL     1     -39.534  50.745 -53.271  1.00  0.00    -0.356 OA
HETATM   16  C   UNL     1     -39.690  49.893 -54.400  1.00  0.00     0.210 C 
ENDBRANCH  13  15
ENDBRANCH   7   9
ENDBRANCH   1   7
BRANCH   4  17
HETATM   17  C   UNL     1     -41.953  59.373 -51.262  1.00  0.00     0.153 A 
HETATM   18  N   UNL     1     -42.475  60.009 -50.210  1.00  0.00    -0.335 N 
HETATM   19  H   UNL     1     -42.300  59.634 -49.275  1.00  0.00     0.168 HD
HETATM   20  C   UNL     1     -43.202  61.142 -50.531  1.00  0.00     0.051 A 
HETATM   21  C   UNL     1     -43.244  61.349 -51.895  1.00  0.00     0.083 A 
HETATM   22  S   UNL     1     -42.344  60.155 -52.751  1.00  0.00    -0.063 SA
BRANCH  20  23
HETATM   23  C   UNL     1     -43.840  61.998 -49.534  1.00  0.00    -0.006 A 
HETATM   24  C   UNL     1     -43.661  63.387 -49.540  1.00  0.00     0.033 A 
HETATM   25  C   UNL     1     -44.283  64.145 -48.560  1.00  0.00     0.117 A 
HETATM   26  N   UNL     1     -45.049  63.617 -47.588  1.00  0.00    -0.273 NA
HETATM   27  C   UNL     1     -45.214  62.282 -47.589  1.00  0.00     0.117 A 
HETATM   28  C   UNL     1     -44.638  61.440 -48.529  1.00  0.00     0.033 A 
ENDBRANCH  20  23
ENDBRANCH   4  17
TORSDOF 5
ENDMDL
MODEL 8
REMARK VINA RESULT:      -7.4      2.300      8.902
REMARK  5 active torsions:
REMARK  status: ('A' for Active; 'I' for Inactive)
REMARK    1  A    between atoms: O_2  and  C_3 
REMARK    2  A    between atoms: C_7  and  C_9 
REMARK    3  A    between atoms: C_9  and  N_11 
REMARK       I    between atoms: N_11  and  C_12 
REMARK       I    between atoms: C_12  and  N_14 
REMARK    4  A    between atoms: N_14  and  C_15 
REMARK    5  A    between atoms: C_18  and  C_21 
ROOT
HETATM    1  N   UNL     1     -42.449  57.351 -58.098  1.00  0.00    -0.335 N 
HETATM    2  C   UNL     1     -42.544  56.368 -57.178  1.00  0.00     0.322 C 
HETATM    3  O   UNL     1     -42.742  55.178 -57.335  1.00  0.00    -0.247 OA
HETATM    4  N   UNL     1     -42.389  56.887 -55.891  1.00  0.00    -0.289 N 
HETATM    5  H   UNL     1     -42.296  58.312 -57.828  1.00  0.00     0.165 HD
HETATM    6  H   UNL     1     -42.268  57.864 -55.684  1.00  0.00     0.172 HD
ENDROOT
BRANCH   1   7
HETATM    7  C   UNL     1     -42.673  57.120 -59.521  1.00  0.00     0.115 C 
HETATM    8  C   UNL     1     -42.081  58.231 -60.392  1.00  0.00     0.037 C 
BRANCH   7   9
HETATM    9  C   UNL     1     -44.164  56.949 -59.743  1.00  0.00    -0.033 A 
HETATM   10  C   UNL     1     -44.650  55.863 -60.482  1.00  0.00     0.009 A 
HETATM   11  C   UNL     1     -46.024  55.671 -60.636  1.00  0.00     0.003 A 
HETATM   12  C   UNL     1     -46.933  56.554 -60.047  1.00  0.00     0.037 A 
HETATM   13  C   UNL     1     -46.471  57.637 -59.304  1.00  0.00     0.068 A 
HETATM   14  C   UNL     1     -45.093  57.828 -59.160  1.00  0.00     0.046 A 
BRANCH  13  15
HETATM   15  O   UNL     1     -47.240  58.565 -58.661  1.00  0.00    -0.356 OA
HETATM   16  C   UNL     1     -46.563  59.493 -57.821  1.00  0.00     0.210 C 
ENDBRANCH  13  15
ENDBRANCH   7   9
ENDBRANCH   1   7
BRANCH   4  17
HETATM   17  C   UNL     1     -42.425  56.111 -54.821  1.00  0.00     0.153 A 
HETATM   18  N   UNL     1     -41.577  55.124 -54.525  1.00  0.00    -0.335 N 
HETATM   19  H   UNL     1     -40.812  54.926 -55.174  1.00  0.00     0.168 HD
HETATM   20  C   UNL     1     -41.842  54.482 -53.328  1.00  0.00     0.051 A 
HETATM   21  C   UNL     1     -42.961  55.002 -52.711  1.00  0.00     0.083 A 
HETATM   22  S   UNL     1     -43.639  56.306 -53.609  1.00  0.00    -0.063 SA
BRANCH  20  23
HETATM   23  C   UNL     1     -41.026  53.390 -52.803  1.00  0.00    -0.006 A 
HETATM   24  C   UNL     1     -40.813  53.232 -51.428  1.00  0.00     0.033 A 
HETATM   25  C   UNL     1     -40.019  52.183 -50.991  1.00  0.00     0.117 A 
HETATM   26  N   UNL     1     -39.429  51.303 -51.820  1.00  0.00    -0.273 NA
HETATM   27  C   UNL     1     -39.639  51.464 -53.139  1.00  0.00     0.117 A 
HETATM   28  C   UNL     1     -40.420  52.477 -53.673  1.00  0.00     0.033 A 
ENDBRANCH  20  23
ENDBRANCH   4  17
TORSDOF 5
ENDMDL
MODEL 9
REMARK VINA RESULT:      -7.3      1.566      2.503
REMARK  5 active torsions:
REMARK  status: ('A' for Active; 'I' for Inactive)
REMARK    1  A    between atoms: O_2  and  C_3 
REMARK    2  A    between atoms: C_7  and  C_9 
REMARK    3  A    between atoms: C_9  and  N_11 
REMARK       I    between atoms: N_11  and  C_12 
REMARK       I    between atoms: C_12  and  N_14 
REMARK    4  A    between atoms: N_14  and  C_15 
REMARK    5  A    between atoms: C_18  and  C_21 
ROOT
HETATM    1  N   UNL     1     -42.755  56.150 -53.079  1.00  0.00    -0.335 N 
HETATM    2  C   UNL     1     -43.442  56.370 -54.220  1.00  0.00     0.322 C 
HETATM    3  O   UNL     1     -44.528  55.944 -54.563  1.00  0.00    -0.247 OA
HETATM    4  N   UNL     1     -42.720  57.211 -55.070  1.00  0.00    -0.289 N 
HETATM    5  H   UNL     1     -41.844  56.558 -52.925  1.00  0.00     0.165 HD
HETATM    6  H   UNL     1     -41.800  57.565 -54.871  1.00  0.00     0.172 HD
ENDROOT
BRANCH   1   7
HETATM    7  C   UNL     1     -43.217  55.227 -52.048  1.00  0.00     0.115 C 
HETATM    8  C   UNL     1     -43.674  55.951 -50.779  1.00  0.00     0.037 C 
BRANCH   7   9
HETATM    9  C   UNL     1     -42.106  54.230 -51.773  1.00  0.00    -0.033 A 
HETATM   10  C   UNL     1     -41.398  53.649 -52.833  1.00  0.00     0.009 A 
HETATM   11  C   UNL     1     -40.336  52.779 -52.579  1.00  0.00     0.003 A 
HETATM   12  C   UNL     1     -39.959  52.485 -51.266  1.00  0.00     0.037 A 
HETATM   13  C   UNL     1     -40.646  53.057 -50.199  1.00  0.00     0.068 A 
HETATM   14  C   UNL     1     -41.714  53.921 -50.459  1.00  0.00     0.046 A 
BRANCH  13  15
HETATM   15  O   UNL     1     -40.378  52.874 -48.871  1.00  0.00    -0.356 OA
HETATM   16  C   UNL     1     -40.328  54.040 -48.058  1.00  0.00     0.210 C 
ENDBRANCH  13  15
ENDBRANCH   7   9
ENDBRANCH   1   7
BRANCH   4  17
HETATM   17  C   UNL     1     -43.199  57.586 -56.244  1.00  0.00     0.153 A 
HETATM   18  N   UNL     1     -43.879  56.826 -57.105  1.00  0.00    -0.335 N 
HETATM   19  H   UNL     1     -44.063  55.851 -56.858  1.00  0.00     0.168 HD
HETATM   20  C   UNL     1     -44.275  57.483 -58.257  1.00  0.00     0.051 A 
HETATM   21  C   UNL     1     -43.847  58.795 -58.266  1.00  0.00     0.083 A 
HETATM   22  S   UNL     1     -42.996  59.199 -56.824  1.00  0.00    -0.063 SA
BRANCH  20  23
HETATM   23  C   UNL     1     -45.049  56.847 -59.320  1.00  0.00    -0.006 A 
HETATM   24  C   UNL     1     -46.433  57.027 -59.426  1.00  0.00     0.033 A 
HETATM   25  C   UNL     1     -47.114  56.387 -60.450  1.00  0.00     0.117 A 
HETATM   26  N   UNL     1     -46.517  55.588 -61.353  1.00  0.00    -0.273 NA
HETATM   27  C   UNL     1     -45.187  55.420 -61.242  1.00  0.00     0.117 A 
HETATM   28  C   UNL     1     -44.418  56.021 -60.257  1.00  0.00     0.033 A 
ENDBRANCH  20  23
ENDBRANCH   4  17
TORSDOF 5
ENDMDL
MODEL 10
REMARK VINA RESULT:      -7.3      4.668      6.985
REMARK  5 active torsions:
REMARK  status: ('A' for Active; 'I' for Inactive)
REMARK    1  A    between atoms: O_2  and  C_3 
REMARK    2  A    between atoms: C_7  and  C_9 
REMARK    3  A    between atoms: C_9  and  N_11 
REMARK       I    between atoms: N_11  and  C_12 
REMARK       I    between atoms: C_12  and  N_14 
REMARK    4  A    between atoms: N_14  and  C_15 
REMARK    5  A    between atoms: C_18  and  C_21 
ROOT
HETATM    1  N   UNL     1     -40.837  55.594 -50.603  1.00  0.00    -0.335 N 
HETATM    2  C   UNL     1     -41.822  56.499 -50.786  1.00  0.00     0.322 C 
HETATM    3  O   UNL     1     -43.027  56.358 -50.692  1.00  0.00    -0.247 OA
HETATM    4  N   UNL     1     -41.288  57.739 -51.139  1.00  0.00    -0.289 N 
HETATM    5  H   UNL     1     -39.865  55.841 -50.729  1.00  0.00     0.165 HD
HETATM    6  H   UNL     1     -40.308  57.916 -51.278  1.00  0.00     0.172 HD
ENDROOT
BRANCH   1   7
HETATM    7  C   UNL     1     -41.102  54.187 -50.327  1.00  0.00     0.115 C 
HETATM    8  C   UNL     1     -40.530  53.738 -48.980  1.00  0.00     0.037 C 
BRANCH   7   9
HETATM    9  C   UNL     1     -40.558  53.368 -51.483  1.00  0.00    -0.033 A 
HETATM   10  C   UNL     1     -39.965  52.121 -51.251  1.00  0.00     0.009 A 
HETATM   11  C   UNL     1     -39.520  51.341 -52.319  1.00  0.00     0.003 A 
HETATM   12  C   UNL     1     -39.668  51.789 -53.634  1.00  0.00     0.037 A 
HETATM   13  C   UNL     1     -40.259  53.023 -53.887  1.00  0.00     0.068 A 
HETATM   14  C   UNL     1     -40.697  53.804 -52.813  1.00  0.00     0.046 A 
BRANCH  13  15
HETATM   15  O   UNL     1     -40.484  53.578 -55.116  1.00  0.00    -0.356 OA
HETATM   16  C   UNL     1     -41.077  54.871 -55.141  1.00  0.00     0.210 C 
ENDBRANCH  13  15
ENDBRANCH   7   9
ENDBRANCH   1   7
BRANCH   4  17
HETATM   17  C   UNL     1     -42.060  58.791 -51.354  1.00  0.00     0.153 A 
HETATM   18  N   UNL     1     -43.026  59.245 -50.553  1.00  0.00    -0.335 N 
HETATM   19  H   UNL     1     -43.211  58.748 -49.678  1.00  0.00     0.168 HD
HETATM   20  C   UNL     1     -43.669  60.379 -51.018  1.00  0.00     0.051 A 
HETATM   21  C   UNL     1     -43.171  60.777 -52.242  1.00  0.00     0.083 A 
HETATM   22  S   UNL     1     -41.886  59.760 -52.772  1.00  0.00    -0.063 SA
BRANCH  20  23
HETATM   23  C   UNL     1     -44.740  61.053 -50.290  1.00  0.00    -0.006 A 
HETATM   24  C   UNL     1     -45.679  61.857 -50.948  1.00  0.00     0.033 A 
HETATM   25  C   UNL     1     -46.665  62.481 -50.200  1.00  0.00     0.117 A 
HETATM   26  N   UNL     1     -46.770  62.364 -48.864  1.00  0.00    -0.273 NA
HETATM   27  C   UNL     1     -45.862  61.590 -48.240  1.00  0.00     0.117 A 
HETATM   28  C   UNL     1     -44.843  60.922 -48.900  1.00  0.00     0.033 A 
ENDBRANCH  20  23
ENDBRANCH   4  17
TORSDOF 5
ENDMDL
