MODEL 1
REMARK VINA RESULT:      -8.6      0.000      0.000
REMARK  6 active torsions:
REMARK  status: ('A' for Active; 'I' for Inactive)
REMARK    1  A    between atoms: O_2  and  C_3 
REMARK    2  A    between atoms: C_6  and  C_7 
REMARK    3  A    between atoms: C_7  and  N_8 
REMARK       I    between atoms: N_8  and  C_9 
REMARK    4  A    between atoms: C_9  and  C_10 
REMARK    5  A    between atoms: C_13  and  C_14 
REMARK    6  A    between atoms: C_19  and  C_20 
ROOT
HETATM    1  C   UNL     1     -42.599  57.192 -54.962  1.00  0.00     0.096 A 
HETATM    2  C   UNL     1     -42.901  56.519 -53.794  1.00  0.00     0.138 A 
HETATM    3  N   UNL     1     -42.660  57.392 -52.769  1.00  0.00    -0.240 N 
HETATM    4  C   UNL     1     -42.768  57.054 -51.363  1.00  0.00     0.221 C 
HETATM    5  C   UNL     1     -43.602  55.769 -51.177  1.00  0.00     0.066 C 
HETATM    6  C   UNL     1     -43.316  54.672 -52.222  1.00  0.00     0.118 C 
HETATM    7  N   UNL     1     -43.348  55.263 -53.554  1.00  0.00    -0.365 N 
HETATM    8  N   UNL     1     -42.339  58.629 -53.181  1.00  0.00    -0.181 NA
HETATM    9  C   UNL     1     -42.273  58.495 -54.510  1.00  0.00     0.160 A 
HETATM   10  H   UNL     1     -43.392  54.600 -54.334  1.00  0.00     0.161 HD
ENDROOT
BRANCH   1  11
HETATM   11  C   UNL     1     -42.635  56.616 -56.296  1.00  0.00     0.257 C 
HETATM   12  N   UNL     1     -42.657  57.518 -57.335  1.00  0.00    -0.352 N 
HETATM   13  H   UNL     1     -42.596  58.509 -57.162  1.00  0.00     0.163 HD
HETATM   14  O   UNL     1     -42.634  55.401 -56.482  1.00  0.00    -0.267 OA
BRANCH  12  15
HETATM   15  C   UNL     1     -42.635  57.080 -58.712  1.00  0.00     0.161 C 
BRANCH  15  16
HETATM   16  C   UNL     1     -44.014  56.752 -59.227  1.00  0.00    -0.040 A 
HETATM   17  C   UNL     1     -45.111  57.534 -58.844  1.00  0.00     0.011 A 
HETATM   18  C   UNL     1     -46.380  57.281 -59.372  1.00  0.00     0.037 A 
HETATM   19  C   UNL     1     -46.576  56.255 -60.298  1.00  0.00     0.068 A 
HETATM   20  C   UNL     1     -45.490  55.473 -60.687  1.00  0.00     0.037 A 
HETATM   21  C   UNL     1     -44.217  55.728 -60.164  1.00  0.00     0.011 A 
BRANCH  19  22
HETATM   22  O   UNL     1     -47.862  56.125 -60.746  1.00  0.00    -0.356 OA
HETATM   23  C   UNL     1     -48.183  56.780 -61.966  1.00  0.00     0.210 C 
ENDBRANCH  19  22
ENDBRANCH  15  16
ENDBRANCH  12  15
ENDBRANCH   1  11
BRANCH   4  24
HETATM   24  C   UNL     1     -41.392  56.981 -50.738  1.00  0.00     0.409 C 
HETATM   25  F   UNL     1     -40.459  56.416 -51.525  1.00  0.00    -0.169 F 
HETATM   26  F   UNL     1     -40.933  58.203 -50.382  1.00  0.00    -0.169 F 
HETATM   27  F   UNL     1     -41.441  56.253 -49.590  1.00  0.00    -0.169 F 
ENDBRANCH   4  24
BRANCH   6  28
HETATM   28  C   UNL     1     -42.073  53.832 -51.972  1.00  0.00    -0.035 A 
HETATM   29  C   UNL     1     -41.253  53.466 -53.055  1.00  0.00     0.009 A 
HETATM   30  C   UNL     1     -40.091  52.716 -52.860  1.00  0.00     0.001 A 
HETATM   31  C   UNL     1     -39.719  52.326 -51.577  1.00  0.00     0.000 A 
HETATM   32  C   UNL     1     -40.505  52.691 -50.488  1.00  0.00     0.001 A 
HETATM   33  C   UNL     1     -41.667  53.440 -50.683  1.00  0.00     0.009 A 
ENDBRANCH   6  28
TORSDOF 6
ENDMDL
MODEL 2
REMARK VINA RESULT:      -8.5      3.584      8.452
REMARK  6 active torsions:
REMARK  status: ('A' for Active; 'I' for Inactive)
REMARK    1  A    between atoms: O_2  and  C_3 
REMARK    2  A    between atoms: C_6  and  C_7 
REMARK    3  A    between atoms: C_7  and  N_8 
REMARK       I    between atoms: N_8  and  C_9 
REMARK    4  A    between atoms: C_9  and  C_10 
REMARK    5  A    between atoms: C_13  and  C_14 
REMARK    6  A    between atoms: C_19  and  C_20 
ROOT
HETATM    1  C   UNL     1     -42.416  58.173 -55.829  1.00  0.00     0.096 A 
HETATM    2  C   UNL     1     -42.393  57.762 -57.148  1.00  0.00     0.138 A 
HETATM    3  N   UNL     1     -42.055  58.858 -57.891  1.00  0.00    -0.240 N 
HETATM    4  C   UNL     1     -42.003  58.881 -59.340  1.00  0.00     0.221 C 
HETATM    5  C   UNL     1     -41.933  57.446 -59.903  1.00  0.00     0.066 C 
HETATM    6  C   UNL     1     -42.839  56.435 -59.171  1.00  0.00     0.118 C 
HETATM    7  N   UNL     1     -42.634  56.565 -57.734  1.00  0.00    -0.365 N 
HETATM    8  N   UNL     1     -41.732  59.931 -57.151  1.00  0.00    -0.181 NA
HETATM    9  C   UNL     1     -41.983  59.521 -55.902  1.00  0.00     0.160 A 
HETATM   10  H   UNL     1     -43.010  55.803 -57.161  1.00  0.00     0.161 HD
ENDROOT
BRANCH   1  11
HETATM   11  C   UNL     1     -42.807  57.347 -54.699  1.00  0.00     0.257 C 
HETATM   12  N   UNL     1     -41.788  56.654 -54.086  1.00  0.00    -0.352 N 
HETATM   13  H   UNL     1     -40.832  56.769 -54.382  1.00  0.00     0.163 HD
HETATM   14  O   UNL     1     -43.971  57.283 -54.310  1.00  0.00    -0.267 OA
BRANCH  12  15
HETATM   15  C   UNL     1     -42.029  55.842 -52.914  1.00  0.00     0.161 C 
BRANCH  15  16
HETATM   16  C   UNL     1     -41.362  54.493 -53.011  1.00  0.00    -0.040 A 
HETATM   17  C   UNL     1     -41.183  53.885 -54.259  1.00  0.00     0.011 A 
HETATM   18  C   UNL     1     -40.503  52.668 -54.364  1.00  0.00     0.037 A 
HETATM   19  C   UNL     1     -39.980  52.043 -53.231  1.00  0.00     0.068 A 
HETATM   20  C   UNL     1     -40.153  52.642 -51.984  1.00  0.00     0.037 A 
HETATM   21  C   UNL     1     -40.828  53.862 -51.877  1.00  0.00     0.011 A 
BRANCH  19  22
HETATM   22  O   UNL     1     -39.326  50.867 -53.475  1.00  0.00    -0.356 OA
HETATM   23  C   UNL     1     -39.926  49.986 -54.416  1.00  0.00     0.210 C 
ENDBRANCH  19  22
ENDBRANCH  15  16
ENDBRANCH  12  15
ENDBRANCH   1  11
BRANCH   4  24
HETATM   24  C   UNL     1     -43.156  59.694 -59.889  1.00  0.00     0.409 C 
HETATM   25  F   UNL     1     -43.718  59.173 -60.995  1.00  0.00    -0.169 F 
HETATM   26  F   UNL     1     -44.140  59.856 -58.975  1.00  0.00    -0.169 F 
HETATM   27  F   UNL     1     -42.731  60.946 -60.207  1.00  0.00    -0.169 F 
ENDBRANCH   4  24
BRANCH   6  28
HETATM   28  C   UNL     1     -44.307  56.457 -59.569  1.00  0.00    -0.035 A 
HETATM   29  C   UNL     1     -44.724  55.757 -60.716  1.00  0.00     0.009 A 
HETATM   30  C   UNL     1     -46.068  55.734 -61.099  1.00  0.00     0.001 A 
HETATM   31  C   UNL     1     -47.023  56.400 -60.336  1.00  0.00     0.000 A 
HETATM   32  C   UNL     1     -46.635  57.084 -59.188  1.00  0.00     0.001 A 
HETATM   33  C   UNL     1     -45.293  57.108 -58.806  1.00  0.00     0.009 A 
ENDBRANCH   6  28
TORSDOF 6
ENDMDL
MODEL 3
REMARK VINA RESULT:      -8.3      3.304      7.188
REMARK  6 active torsions:
REMARK  status: ('A' for Active; 'I' for Inactive)
REMARK    1  A    between atoms: O_2  and  C_3 
REMARK    2  A    between atoms: C_6  and  C_7 
REMARK    3  A    between atoms: C_7  and  N_8 
REMARK       I    between atoms: N_8  and  C_9 
REMARK    4  A    between atoms: C_9  and  C_10 
REMARK    5  A    between atoms: C_13  and  C_14 
REMARK    6  A    between atoms: C_19  and  C_20 
ROOT
HETATM    1  C   UNL     1     -42.693  56.217 -55.779  1.00  0.00     0.096 A 
HETATM    2  C   UNL     1     -43.258  57.137 -54.916  1.00  0.00     0.138 A 
HETATM    3  N   UNL     1     -43.298  58.327 -55.589  1.00  0.00    -0.240 N 
HETATM    4  C   UNL     1     -43.742  59.580 -55.010  1.00  0.00     0.221 C 
HETATM    5  C   UNL     1     -44.564  59.325 -53.729  1.00  0.00     0.066 C 
HETATM    6  C   UNL     1     -44.001  58.206 -52.829  1.00  0.00     0.118 C 
HETATM    7  N   UNL     1     -43.718  57.034 -53.647  1.00  0.00    -0.365 N 
HETATM    8  N   UNL     1     -42.918  58.231 -56.873  1.00  0.00    -0.181 NA
HETATM    9  C   UNL     1     -42.521  56.957 -56.975  1.00  0.00     0.160 A 
HETATM   10  H   UNL     1     -43.552  56.163 -53.133  1.00  0.00     0.161 HD
ENDROOT
BRANCH   1  11
HETATM   11  C   UNL     1     -42.385  54.836 -55.449  1.00  0.00     0.257 C 
HETATM   12  N   UNL     1     -41.087  54.590 -55.062  1.00  0.00    -0.352 N 
HETATM   13  H   UNL     1     -40.423  55.343 -54.967  1.00  0.00     0.163 HD
HETATM   14  O   UNL     1     -43.232  53.947 -55.502  1.00  0.00    -0.267 OA
BRANCH  12  15
HETATM   15  C   UNL     1     -40.661  53.271 -54.651  1.00  0.00     0.161 C 
BRANCH  15  16
HETATM   16  C   UNL     1     -40.529  53.158 -53.153  1.00  0.00    -0.040 A 
HETATM   17  C   UNL     1     -41.098  54.130 -52.322  1.00  0.00     0.011 A 
HETATM   18  C   UNL     1     -41.041  53.996 -50.932  1.00  0.00     0.037 A 
HETATM   19  C   UNL     1     -40.428  52.886 -50.347  1.00  0.00     0.068 A 
HETATM   20  C   UNL     1     -39.861  51.912 -51.166  1.00  0.00     0.037 A 
HETATM   21  C   UNL     1     -39.921  52.042 -52.558  1.00  0.00     0.011 A 
BRANCH  19  22
HETATM   22  O   UNL     1     -40.456  52.871 -48.980  1.00  0.00    -0.356 OA
HETATM   23  C   UNL     1     -40.429  54.133 -48.326  1.00  0.00     0.210 C 
ENDBRANCH  19  22
ENDBRANCH  15  16
ENDBRANCH  12  15
ENDBRANCH   1  11
BRANCH   4  24
HETATM   24  C   UNL     1     -42.561  60.503 -54.800  1.00  0.00     0.409 C 
HETATM   25  F   UNL     1     -42.744  61.419 -53.832  1.00  0.00    -0.169 F 
HETATM   26  F   UNL     1     -41.433  59.819 -54.500  1.00  0.00    -0.169 F 
HETATM   27  F   UNL     1     -42.292  61.181 -55.948  1.00  0.00    -0.169 F 
ENDBRANCH   4  24
BRANCH   6  28
HETATM   28  C   UNL     1     -42.838  58.604 -51.933  1.00  0.00    -0.035 A 
HETATM   29  C   UNL     1     -41.689  57.793 -51.887  1.00  0.00     0.009 A 
HETATM   30  C   UNL     1     -40.592  58.140 -51.095  1.00  0.00     0.001 A 
HETATM   31  C   UNL     1     -40.616  59.310 -50.342  1.00  0.00     0.000 A 
HETATM   32  C   UNL     1     -41.735  60.137 -50.386  1.00  0.00     0.001 A 
HETATM   33  C   UNL     1     -42.832  59.790 -51.177  1.00  0.00     0.009 A 
ENDBRANCH   6  28
TORSDOF 6
ENDMDL
MODEL 4
REMARK VINA RESULT:      -8.3      2.157      2.965
REMARK  6 active torsions:
REMARK  status: ('A' for Active; 'I' for Inactive)
REMARK    1  A    between atoms: O_2  and  C_3 
REMARK    2  A    between atoms: C_6  and  C_7 
REMARK    3  A    between atoms: C_7  and  N_8 
REMARK       I    between atoms: N_8  and  C_9 
REMARK    4  A    between atoms: C_9  and  C_10 
REMARK    5  A    between atoms: C_13  and  C_14 
REMARK    6  A    between atoms: C_19  and  C_20 
ROOT
HETATM    1  C   UNL     1     -42.749  59.365 -53.400  1.00  0.00     0.096 A 
HETATM    2  C   UNL     1     -43.059  58.058 -53.077  1.00  0.00     0.138 A 
HETATM    3  N   UNL     1     -42.806  57.917 -51.740  1.00  0.00    -0.240 N 
HETATM    4  C   UNL     1     -42.918  56.668 -51.013  1.00  0.00     0.221 C 
HETATM    5  C   UNL     1     -43.767  55.653 -51.806  1.00  0.00     0.066 C 
HETATM    6  C   UNL     1     -43.494  55.650 -53.324  1.00  0.00     0.118 C 
HETATM    7  N   UNL     1     -43.520  57.021 -53.816  1.00  0.00    -0.365 N 
HETATM    8  N   UNL     1     -42.472  59.067 -51.132  1.00  0.00    -0.181 NA
HETATM    9  C   UNL     1     -42.407  59.936 -52.148  1.00  0.00     0.160 A 
HETATM   10  H   UNL     1     -43.573  57.128 -54.834  1.00  0.00     0.161 HD
ENDROOT
BRANCH   1  11
HETATM   11  C   UNL     1     -42.792  59.933 -54.737  1.00  0.00     0.257 C 
HETATM   12  N   UNL     1     -41.962  59.344 -55.663  1.00  0.00    -0.352 N 
HETATM   13  H   UNL     1     -41.409  58.536 -55.422  1.00  0.00     0.163 HD
HETATM   14  O   UNL     1     -43.532  60.872 -55.023  1.00  0.00    -0.267 OA
BRANCH  12  15
HETATM   15  C   UNL     1     -41.949  59.773 -57.043  1.00  0.00     0.161 C 
BRANCH  15  16
HETATM   16  C   UNL     1     -42.267  58.644 -57.992  1.00  0.00    -0.040 A 
HETATM   17  C   UNL     1     -42.734  57.420 -57.497  1.00  0.00     0.011 A 
HETATM   18  C   UNL     1     -43.098  56.394 -58.373  1.00  0.00     0.037 A 
HETATM   19  C   UNL     1     -43.015  56.573 -59.755  1.00  0.00     0.068 A 
HETATM   20  C   UNL     1     -42.553  57.789 -60.257  1.00  0.00     0.037 A 
HETATM   21  C   UNL     1     -42.193  58.820 -59.382  1.00  0.00     0.011 A 
BRANCH  19  22
HETATM   22  O   UNL     1     -43.415  55.496 -60.498  1.00  0.00    -0.356 OA
HETATM   23  C   UNL     1     -44.554  54.786 -60.030  1.00  0.00     0.210 C 
ENDBRANCH  19  22
ENDBRANCH  15  16
ENDBRANCH  12  15
ENDBRANCH   1  11
BRANCH   4  24
HETATM   24  C   UNL     1     -41.543  56.154 -50.647  1.00  0.00     0.409 C 
HETATM   25  F   UNL     1     -40.593  56.424 -51.561  1.00  0.00    -0.169 F 
HETATM   26  F   UNL     1     -41.116  56.653 -49.463  1.00  0.00    -0.169 F 
HETATM   27  F   UNL     1     -41.577  54.804 -50.491  1.00  0.00    -0.169 F 
ENDBRANCH   4  24
BRANCH   6  28
HETATM   28  C   UNL     1     -42.262  54.878 -53.770  1.00  0.00    -0.035 A 
HETATM   29  C   UNL     1     -42.086  53.548 -53.347  1.00  0.00     0.009 A 
HETATM   30  C   UNL     1     -40.979  52.800 -53.756  1.00  0.00     0.001 A 
HETATM   31  C   UNL     1     -40.032  53.363 -54.607  1.00  0.00     0.000 A 
HETATM   32  C   UNL     1     -40.195  54.671 -55.053  1.00  0.00     0.001 A 
HETATM   33  C   UNL     1     -41.300  55.419 -54.643  1.00  0.00     0.009 A 
ENDBRANCH   6  28
TORSDOF 6
ENDMDL
MODEL 5
REMARK VINA RESULT:      -8.3      1.799      2.548
REMARK  6 active torsions:
REMARK  status: ('A' for Active; 'I' for Inactive)
REMARK    1  A    between atoms: O_2  and  C_3 
REMARK    2  A    between atoms: C_6  and  C_7 
REMARK    3  A    between atoms: C_7  and  N_8 
REMARK       I    between atoms: N_8  and  C_9 
REMARK    4  A    between atoms: C_9  and  C_10 
REMARK    5  A    between atoms: C_13  and  C_14 
REMARK    6  A    between atoms: C_19  and  C_20 
ROOT
HETATM    1  C   UNL     1     -43.045  57.277 -56.978  1.00  0.00     0.096 A 
HETATM    2  C   UNL     1     -43.168  56.826 -55.678  1.00  0.00     0.138 A 
HETATM    3  N   UNL     1     -42.610  57.786 -54.879  1.00  0.00    -0.240 N 
HETATM    4  C   UNL     1     -42.454  57.666 -53.443  1.00  0.00     0.221 C 
HETATM    5  C   UNL     1     -43.375  56.560 -52.887  1.00  0.00     0.066 C 
HETATM    6  C   UNL     1     -43.451  55.298 -53.771  1.00  0.00     0.118 C 
HETATM    7  N   UNL     1     -43.698  55.697 -55.150  1.00  0.00    -0.365 N 
HETATM    8  N   UNL     1     -42.242  58.892 -55.546  1.00  0.00    -0.181 NA
HETATM    9  C   UNL     1     -42.478  58.566 -56.822  1.00  0.00     0.160 A 
HETATM   10  H   UNL     1     -43.987  54.946 -55.785  1.00  0.00     0.161 HD
ENDROOT
BRANCH   1  11
HETATM   11  C   UNL     1     -43.434  56.533 -58.165  1.00  0.00     0.257 C 
HETATM   12  N   UNL     1     -44.766  56.604 -58.504  1.00  0.00    -0.352 N 
HETATM   13  H   UNL     1     -45.403  57.185 -57.981  1.00  0.00     0.163 HD
HETATM   14  O   UNL     1     -42.622  55.892 -58.828  1.00  0.00    -0.267 OA
BRANCH  12  15
HETATM   15  C   UNL     1     -45.275  55.960 -59.693  1.00  0.00     0.161 C 
BRANCH  15  16
HETATM   16  C   UNL     1     -46.336  56.785 -60.378  1.00  0.00    -0.040 A 
HETATM   17  C   UNL     1     -46.335  58.179 -60.246  1.00  0.00     0.011 A 
HETATM   18  C   UNL     1     -47.271  58.956 -60.934  1.00  0.00     0.037 A 
HETATM   19  C   UNL     1     -48.215  58.360 -61.772  1.00  0.00     0.068 A 
HETATM   20  C   UNL     1     -48.222  56.974 -61.910  1.00  0.00     0.037 A 
HETATM   21  C   UNL     1     -47.283  56.193 -61.227  1.00  0.00     0.011 A 
BRANCH  19  22
HETATM   22  O   UNL     1     -49.061  59.235 -62.395  1.00  0.00    -0.356 OA
HETATM   23  C   UNL     1     -50.365  58.757 -62.699  1.00  0.00     0.210 C 
ENDBRANCH  19  22
ENDBRANCH  15  16
ENDBRANCH  12  15
ENDBRANCH   1  11
BRANCH   4  24
HETATM   24  C   UNL     1     -40.995  57.475 -53.092  1.00  0.00     0.409 C 
HETATM   25  F   UNL     1     -40.313  56.716 -53.970  1.00  0.00    -0.169 F 
HETATM   26  F   UNL     1     -40.341  58.655 -52.987  1.00  0.00    -0.169 F 
HETATM   27  F   UNL     1     -40.883  56.877 -51.875  1.00  0.00    -0.169 F 
ENDBRANCH   4  24
BRANCH   6  28
HETATM   28  C   UNL     1     -42.292  54.323 -53.628  1.00  0.00    -0.035 A 
HETATM   29  C   UNL     1     -41.892  53.906 -52.346  1.00  0.00     0.009 A 
HETATM   30  C   UNL     1     -40.848  52.993 -52.178  1.00  0.00     0.001 A 
HETATM   31  C   UNL     1     -40.192  52.469 -53.288  1.00  0.00     0.000 A 
HETATM   32  C   UNL     1     -40.584  52.854 -54.567  1.00  0.00     0.001 A 
HETATM   33  C   UNL     1     -41.626  53.767 -54.735  1.00  0.00     0.009 A 
ENDBRANCH   6  28
TORSDOF 6
ENDMDL
MODEL 6
REMARK VINA RESULT:      -7.9      3.855      7.401
REMARK  6 active torsions:
REMARK  status: ('A' for Active; 'I' for Inactive)
REMARK    1  A    between atoms: O_2  and  C_3 
REMARK    2  A    between atoms: C_6  and  C_7 
REMARK    3  A    between atoms: C_7  and  N_8 
REMARK       I    between atoms: N_8  and  C_9 
REMARK    4  A    between atoms: C_9  and  C_10 
REMARK    5  A    between atoms: C_13  and  C_14 
REMARK    6  A    between atoms: C_19  and  C_20 
ROOT
HETATM    1  C   UNL     1     -43.874  58.255 -52.486  1.00  0.00     0.096 A 
HETATM    2  C   UNL     1     -43.374  58.741 -53.679  1.00  0.00     0.138 A 
HETATM    3  N   UNL     1     -44.293  59.638 -54.150  1.00  0.00    -0.240 N 
HETATM    4  C   UNL     1     -44.194  60.317 -55.427  1.00  0.00     0.221 C 
HETATM    5  C   UNL     1     -42.750  60.252 -55.965  1.00  0.00     0.066 C 
HETATM    6  C   UNL     1     -42.055  58.892 -55.750  1.00  0.00     0.118 C 
HETATM    7  N   UNL     1     -42.235  58.479 -54.364  1.00  0.00    -0.365 N 
HETATM    8  N   UNL     1     -45.302  59.871 -53.295  1.00  0.00    -0.181 NA
HETATM    9  C   UNL     1     -45.061  59.007 -52.302  1.00  0.00     0.160 A 
HETATM   10  H   UNL     1     -41.637  57.710 -54.048  1.00  0.00     0.161 HD
ENDROOT
BRANCH   1  11
HETATM   11  C   UNL     1     -43.259  57.215 -51.679  1.00  0.00     0.257 C 
HETATM   12  N   UNL     1     -43.827  55.965 -51.780  1.00  0.00    -0.352 N 
HETATM   13  H   UNL     1     -44.586  55.792 -52.421  1.00  0.00     0.163 HD
HETATM   14  O   UNL     1     -42.286  57.436 -50.961  1.00  0.00    -0.267 OA
BRANCH  12  15
HETATM   15  C   UNL     1     -43.277  54.829 -51.076  1.00  0.00     0.161 C 
BRANCH  15  16
HETATM   16  C   UNL     1     -42.268  54.078 -51.909  1.00  0.00    -0.040 A 
HETATM   17  C   UNL     1     -41.184  53.441 -51.293  1.00  0.00     0.011 A 
HETATM   18  C   UNL     1     -40.284  52.684 -52.048  1.00  0.00     0.037 A 
HETATM   19  C   UNL     1     -40.455  52.540 -53.426  1.00  0.00     0.068 A 
HETATM   20  C   UNL     1     -41.532  53.169 -54.048  1.00  0.00     0.037 A 
HETATM   21  C   UNL     1     -42.438  53.923 -53.293  1.00  0.00     0.011 A 
BRANCH  19  22
HETATM   22  O   UNL     1     -39.513  51.762 -54.042  1.00  0.00    -0.356 OA
HETATM   23  C   UNL     1     -39.865  50.407 -54.287  1.00  0.00     0.210 C 
ENDBRANCH  19  22
ENDBRANCH  15  16
ENDBRANCH  12  15
ENDBRANCH   1  11
BRANCH   4  24
HETATM   24  C   UNL     1     -45.226  59.768 -56.388  1.00  0.00     0.409 C 
HETATM   25  F   UNL     1     -45.492  58.460 -56.223  1.00  0.00    -0.169 F 
HETATM   26  F   UNL     1     -46.402  60.433 -56.300  1.00  0.00    -0.169 F 
HETATM   27  F   UNL     1     -44.801  59.932 -57.670  1.00  0.00    -0.169 F 
ENDBRANCH   4  24
BRANCH   6  28
HETATM   28  C   UNL     1     -42.414  57.803 -56.749  1.00  0.00    -0.035 A 
HETATM   29  C   UNL     1     -42.339  58.075 -58.127  1.00  0.00     0.009 A 
HETATM   30  C   UNL     1     -42.637  57.093 -59.075  1.00  0.00     0.001 A 
HETATM   31  C   UNL     1     -43.004  55.814 -58.664  1.00  0.00     0.000 A 
HETATM   32  C   UNL     1     -43.067  55.517 -57.305  1.00  0.00     0.001 A 
HETATM   33  C   UNL     1     -42.770  56.499 -56.359  1.00  0.00     0.009 A 
ENDBRANCH   6  28
TORSDOF 6
ENDMDL
MODEL 7
REMARK VINA RESULT:      -7.9      1.952      2.711
REMARK  6 active torsions:
REMARK  status: ('A' for Active; 'I' for Inactive)
REMARK    1  A    between atoms: O_2  and  C_3 
REMARK    2  A    between atoms: C_6  and  C_7 
REMARK    3  A    between atoms: C_7  and  N_8 
REMARK       I    between atoms: N_8  and  C_9 
REMARK    4  A    between atoms: C_9  and  C_10 
REMARK    5  A    between atoms: C_13  and  C_14 
REMARK    6  A    between atoms: C_19  and  C_20 
ROOT
HETATM    1  C   UNL     1     -42.730  59.719 -54.337  1.00  0.00     0.096 A 
HETATM    2  C   UNL     1     -43.069  58.535 -53.711  1.00  0.00     0.138 A 
HETATM    3  N   UNL     1     -42.699  58.667 -52.401  1.00  0.00    -0.240 N 
HETATM    4  C   UNL     1     -42.801  57.612 -51.411  1.00  0.00     0.221 C 
HETATM    5  C   UNL     1     -43.768  56.510 -51.891  1.00  0.00     0.066 C 
HETATM    6  C   UNL     1     -43.640  56.164 -53.388  1.00  0.00     0.118 C 
HETATM    7  N   UNL     1     -43.647  57.397 -54.164  1.00  0.00    -0.365 N 
HETATM    8  N   UNL     1     -42.254  59.895 -52.089  1.00  0.00    -0.181 NA
HETATM    9  C   UNL     1     -42.245  60.520 -53.272  1.00  0.00     0.160 A 
HETATM   10  H   UNL     1     -43.790  57.286 -55.173  1.00  0.00     0.161 HD
ENDROOT
BRANCH   1  11
HETATM   11  C   UNL     1     -42.872  59.989 -55.757  1.00  0.00     0.257 C 
HETATM   12  N   UNL     1     -41.914  59.428 -56.570  1.00  0.00    -0.352 N 
HETATM   13  H   UNL     1     -41.200  58.826 -56.191  1.00  0.00     0.163 HD
HETATM   14  O   UNL     1     -43.796  60.666 -56.203  1.00  0.00    -0.267 OA
BRANCH  12  15
HETATM   15  C   UNL     1     -41.970  59.569 -58.008  1.00  0.00     0.161 C 
BRANCH  15  16
HETATM   16  C   UNL     1     -42.751  58.455 -58.659  1.00  0.00    -0.040 A 
HETATM   17  C   UNL     1     -42.690  57.157 -58.138  1.00  0.00     0.011 A 
HETATM   18  C   UNL     1     -43.466  56.134 -58.691  1.00  0.00     0.037 A 
HETATM   19  C   UNL     1     -44.323  56.389 -59.764  1.00  0.00     0.068 A 
HETATM   20  C   UNL     1     -44.391  57.679 -60.287  1.00  0.00     0.037 A 
HETATM   21  C   UNL     1     -43.620  58.706 -59.732  1.00  0.00     0.011 A 
BRANCH  19  22
HETATM   22  O   UNL     1     -45.034  55.305 -60.199  1.00  0.00    -0.356 OA
HETATM   23  C   UNL     1     -44.666  54.042 -59.662  1.00  0.00     0.210 C 
ENDBRANCH  19  22
ENDBRANCH  15  16
ENDBRANCH  12  15
ENDBRANCH   1  11
BRANCH   4  24
HETATM   24  C   UNL     1     -41.423  57.098 -51.055  1.00  0.00     0.409 C 
HETATM   25  F   UNL     1     -40.819  57.783 -50.066  1.00  0.00    -0.169 F 
HETATM   26  F   UNL     1     -41.449  55.796 -50.686  1.00  0.00    -0.169 F 
HETATM   27  F   UNL     1     -40.608  57.162 -52.142  1.00  0.00    -0.169 F 
ENDBRANCH   4  24
BRANCH   6  28
HETATM   28  C   UNL     1     -42.493  55.234 -53.753  1.00  0.00    -0.035 A 
HETATM   29  C   UNL     1     -41.567  55.629 -54.736  1.00  0.00     0.009 A 
HETATM   30  C   UNL     1     -40.487  54.812 -55.080  1.00  0.00     0.001 A 
HETATM   31  C   UNL     1     -40.303  53.590 -54.440  1.00  0.00     0.000 A 
HETATM   32  C   UNL     1     -41.198  53.187 -53.452  1.00  0.00     0.001 A 
HETATM   33  C   UNL     1     -42.277  54.002 -53.109  1.00  0.00     0.009 A 
ENDBRANCH   6  28
TORSDOF 6
ENDMDL
MODEL 8
REMARK VINA RESULT:      -7.7     15.834     18.331
REMARK  6 active torsions:
REMARK  status: ('A' for Active; 'I' for Inactive)
REMARK    1  A    between atoms: O_2  and  C_3 
REMARK    2  A    between atoms: C_6  and  C_7 
REMARK    3  A    between atoms: C_7  and  N_8 
REMARK       I    between atoms: N_8  and  C_9 
REMARK    4  A    between atoms: C_9  and  C_10 
REMARK    5  A    between atoms: C_13  and  C_14 
REMARK    6  A    between atoms: C_19  and  C_20 
ROOT
HETATM    1  C   UNL     1     -35.287  41.688 -53.720  1.00  0.00     0.096 A 
HETATM    2  C   UNL     1     -34.786  40.421 -53.496  1.00  0.00     0.138 A 
HETATM    3  N   UNL     1     -34.370  40.391 -52.193  1.00  0.00    -0.240 N 
HETATM    4  C   UNL     1     -33.698  39.265 -51.574  1.00  0.00     0.221 C 
HETATM    5  C   UNL     1     -33.911  37.983 -52.403  1.00  0.00     0.066 C 
HETATM    6  C   UNL     1     -33.830  38.195 -53.929  1.00  0.00     0.118 C 
HETATM    7  N   UNL     1     -34.661  39.335 -54.295  1.00  0.00    -0.365 N 
HETATM    8  N   UNL     1     -34.674  41.504 -51.507  1.00  0.00    -0.181 NA
HETATM    9  C   UNL     1     -35.202  42.300 -52.444  1.00  0.00     0.160 A 
HETATM   10  H   UNL     1     -34.862  39.435 -55.296  1.00  0.00     0.161 HD
ENDROOT
BRANCH   1  11
HETATM   11  C   UNL     1     -35.767  42.188 -54.997  1.00  0.00     0.257 C 
HETATM   12  N   UNL     1     -37.087  41.923 -55.284  1.00  0.00    -0.352 N 
HETATM   13  H   UNL     1     -37.680  41.460 -54.613  1.00  0.00     0.163 HD
HETATM   14  O   UNL     1     -35.042  42.816 -55.766  1.00  0.00    -0.267 OA
BRANCH  12  15
HETATM   15  C   UNL     1     -37.707  42.413 -56.494  1.00  0.00     0.161 C 
BRANCH  15  16
HETATM   16  C   UNL     1     -37.640  41.407 -57.615  1.00  0.00    -0.040 A 
HETATM   17  C   UNL     1     -38.087  40.096 -57.411  1.00  0.00     0.011 A 
HETATM   18  C   UNL     1     -38.094  39.177 -58.464  1.00  0.00     0.037 A 
HETATM   19  C   UNL     1     -37.668  39.551 -59.739  1.00  0.00     0.068 A 
HETATM   20  C   UNL     1     -37.222  40.854 -59.953  1.00  0.00     0.037 A 
HETATM   21  C   UNL     1     -37.219  41.777 -58.902  1.00  0.00     0.011 A 
BRANCH  19  22
HETATM   22  O   UNL     1     -37.740  38.561 -60.680  1.00  0.00    -0.356 OA
HETATM   23  C   UNL     1     -37.506  38.944 -62.030  1.00  0.00     0.210 C 
ENDBRANCH  19  22
ENDBRANCH  15  16
ENDBRANCH  12  15
ENDBRANCH   1  11
BRANCH   4  24
HETATM   24  C   UNL     1     -32.241  39.598 -51.332  1.00  0.00     0.409 C 
HETATM   25  F   UNL     1     -31.420  38.533 -51.372  1.00  0.00    -0.169 F 
HETATM   26  F   UNL     1     -31.774  40.501 -52.226  1.00  0.00    -0.169 F 
HETATM   27  F   UNL     1     -32.093  40.174 -50.109  1.00  0.00    -0.169 F 
ENDBRANCH   4  24
BRANCH   6  28
HETATM   28  C   UNL     1     -32.426  38.268 -54.510  1.00  0.00    -0.035 A 
HETATM   29  C   UNL     1     -31.526  37.212 -54.279  1.00  0.00     0.009 A 
HETATM   30  C   UNL     1     -30.237  37.232 -54.817  1.00  0.00     0.001 A 
HETATM   31  C   UNL     1     -29.826  38.301 -55.608  1.00  0.00     0.000 A 
HETATM   32  C   UNL     1     -30.707  39.348 -55.865  1.00  0.00     0.001 A 
HETATM   33  C   UNL     1     -31.995  39.329 -55.326  1.00  0.00     0.009 A 
ENDBRANCH   6  28
TORSDOF 6
ENDMDL
MODEL 9
REMARK VINA RESULT:      -7.6      2.316      3.039
REMARK  6 active torsions:
REMARK  status: ('A' for Active; 'I' for Inactive)
REMARK    1  A    between atoms: O_2  and  C_3 
REMARK    2  A    between atoms: C_6  and  C_7 
REMARK    3  A    between atoms: C_7  and  N_8 
REMARK       I    between atoms: N_8  and  C_9 
REMARK    4  A    between atoms: C_9  and  C_10 
REMARK    5  A    between atoms: C_13  and  C_14 
REMARK    6  A    between atoms: C_19  and  C_20 
ROOT
HETATM    1  C   UNL     1     -44.007  57.957 -54.722  1.00  0.00     0.096 A 
HETATM    2  C   UNL     1     -43.791  56.979 -53.770  1.00  0.00     0.138 A 
HETATM    3  N   UNL     1     -43.212  57.600 -52.698  1.00  0.00    -0.240 N 
HETATM    4  C   UNL     1     -42.743  56.914 -51.510  1.00  0.00     0.221 C 
HETATM    5  C   UNL     1     -43.370  55.508 -51.412  1.00  0.00     0.066 C 
HETATM    6  C   UNL     1     -43.460  54.761 -52.758  1.00  0.00     0.118 C 
HETATM    7  N   UNL     1     -44.042  55.648 -53.757  1.00  0.00    -0.365 N 
HETATM    8  N   UNL     1     -43.144  58.935 -52.823  1.00  0.00    -0.181 NA
HETATM    9  C   UNL     1     -43.597  59.144 -54.065  1.00  0.00     0.160 A 
HETATM   10  H   UNL     1     -44.355  55.198 -54.623  1.00  0.00     0.161 HD
ENDROOT
BRANCH   1  11
HETATM   11  C   UNL     1     -44.533  57.727 -56.057  1.00  0.00     0.257 C 
HETATM   12  N   UNL     1     -43.667  57.132 -56.946  1.00  0.00    -0.352 N 
HETATM   13  H   UNL     1     -42.751  56.832 -56.654  1.00  0.00     0.163 HD
HETATM   14  O   UNL     1     -45.682  58.036 -56.367  1.00  0.00    -0.267 OA
BRANCH  12  15
HETATM   15  C   UNL     1     -44.082  56.795 -58.289  1.00  0.00     0.161 C 
BRANCH  15  16
HETATM   16  C   UNL     1     -43.588  57.794 -59.305  1.00  0.00    -0.040 A 
HETATM   17  C   UNL     1     -44.431  58.820 -59.749  1.00  0.00     0.011 A 
HETATM   18  C   UNL     1     -43.958  59.791 -60.636  1.00  0.00     0.037 A 
HETATM   19  C   UNL     1     -42.637  59.764 -61.086  1.00  0.00     0.068 A 
HETATM   20  C   UNL     1     -41.790  58.748 -60.648  1.00  0.00     0.037 A 
HETATM   21  C   UNL     1     -42.259  57.777 -59.756  1.00  0.00     0.011 A 
BRANCH  19  22
HETATM   22  O   UNL     1     -42.301  60.780 -61.938  1.00  0.00    -0.356 OA
HETATM   23  C   UNL     1     -41.437  61.785 -61.424  1.00  0.00     0.210 C 
ENDBRANCH  19  22
ENDBRANCH  15  16
ENDBRANCH  12  15
ENDBRANCH   1  11
BRANCH   4  24
HETATM   24  C   UNL     1     -41.230  56.909 -51.475  1.00  0.00     0.409 C 
HETATM   25  F   UNL     1     -40.652  56.816 -52.687  1.00  0.00    -0.169 F 
HETATM   26  F   UNL     1     -40.735  58.018 -50.877  1.00  0.00    -0.169 F 
HETATM   27  F   UNL     1     -40.786  55.857 -50.737  1.00  0.00    -0.169 F 
ENDBRANCH   4  24
BRANCH   6  28
HETATM   28  C   UNL     1     -42.177  54.093 -53.228  1.00  0.00    -0.035 A 
HETATM   29  C   UNL     1     -41.451  53.282 -52.336  1.00  0.00     0.009 A 
HETATM   30  C   UNL     1     -40.282  52.633 -52.739  1.00  0.00     0.001 A 
HETATM   31  C   UNL     1     -39.822  52.769 -54.045  1.00  0.00     0.000 A 
HETATM   32  C   UNL     1     -40.534  53.552 -54.950  1.00  0.00     0.001 A 
HETATM   33  C   UNL     1     -41.701  54.202 -54.547  1.00  0.00     0.009 A 
ENDBRANCH   6  28
TORSDOF 6
ENDMDL
MODEL 10
REMARK VINA RESULT:      -7.5      3.572      8.828
REMARK  6 active torsions:
REMARK  status: ('A' for Active; 'I' for Inactive)
REMARK    1  A    between atoms: O_2  and  C_3 
REMARK    2  A    between atoms: C_6  and  C_7 
REMARK    3  A    between atoms: C_7  and  N_8 
REMARK       I    between atoms: N_8  and  C_9 
REMARK    4  A    between atoms: C_9  and  C_10 
REMARK    5  A    between atoms: C_13  and  C_14 
REMARK    6  A    between atoms: C_19  and  C_20 
ROOT
HETATM    1  C   UNL     1     -42.758  57.656 -55.653  1.00  0.00     0.096 A 
HETATM    2  C   UNL     1     -42.669  57.293 -56.983  1.00  0.00     0.138 A 
HETATM    3  N   UNL     1     -42.175  58.379 -57.652  1.00  0.00    -0.240 N 
HETATM    4  C   UNL     1     -42.008  58.449 -59.090  1.00  0.00     0.221 C 
HETATM    5  C   UNL     1     -42.027  57.035 -59.708  1.00  0.00     0.066 C 
HETATM    6  C   UNL     1     -43.077  56.089 -59.090  1.00  0.00     0.118 C 
HETATM    7  N   UNL     1     -42.973  56.147 -57.638  1.00  0.00    -0.365 N 
HETATM    8  N   UNL     1     -41.813  59.388 -56.843  1.00  0.00    -0.181 NA
HETATM    9  C   UNL     1     -42.197  58.959 -55.636  1.00  0.00     0.160 A 
HETATM   10  H   UNL     1     -43.462  55.404 -57.128  1.00  0.00     0.161 HD
ENDROOT
BRANCH   1  11
HETATM   11  C   UNL     1     -43.310  56.831 -54.592  1.00  0.00     0.257 C 
HETATM   12  N   UNL     1     -42.859  55.532 -54.550  1.00  0.00    -0.352 N 
HETATM   13  H   UNL     1     -42.149  55.209 -55.189  1.00  0.00     0.163 HD
HETATM   14  O   UNL     1     -44.120  57.271 -53.779  1.00  0.00    -0.267 OA
BRANCH  12  15
HETATM   15  C   UNL     1     -43.283  54.621 -53.511  1.00  0.00     0.161 C 
BRANCH  15  16
HETATM   16  C   UNL     1     -42.268  54.512 -52.401  1.00  0.00    -0.040 A 
HETATM   17  C   UNL     1     -42.515  55.115 -51.161  1.00  0.00     0.011 A 
HETATM   18  C   UNL     1     -41.612  54.959 -50.106  1.00  0.00     0.037 A 
HETATM   19  C   UNL     1     -40.456  54.193 -50.262  1.00  0.00     0.068 A 
HETATM   20  C   UNL     1     -40.203  53.589 -51.492  1.00  0.00     0.037 A 
HETATM   21  C   UNL     1     -41.107  53.738 -52.549  1.00  0.00     0.011 A 
BRANCH  19  22
HETATM   22  O   UNL     1     -39.668  54.111 -49.148  1.00  0.00    -0.356 OA
HETATM   23  C   UNL     1     -40.330  53.864 -47.914  1.00  0.00     0.210 C 
ENDBRANCH  19  22
ENDBRANCH  15  16
ENDBRANCH  12  15
ENDBRANCH   1  11
BRANCH   4  24
HETATM   24  C   UNL     1     -43.034  59.387 -59.688  1.00  0.00     0.409 C 
HETATM   25  F   UNL     1     -42.570  60.626 -59.934  1.00  0.00    -0.169 F 
HETATM   26  F   UNL     1     -43.541  58.908 -60.848  1.00  0.00    -0.169 F 
HETATM   27  F   UNL     1     -44.093  59.516 -58.843  1.00  0.00    -0.169 F 
ENDBRANCH   4  24
BRANCH   6  28
HETATM   28  C   UNL     1     -44.500  56.265 -59.595  1.00  0.00    -0.035 A 
HETATM   29  C   UNL     1     -44.884  55.665 -60.808  1.00  0.00     0.009 A 
HETATM   30  C   UNL     1     -46.190  55.784 -61.291  1.00  0.00     0.001 A 
HETATM   31  C   UNL     1     -47.141  56.495 -60.566  1.00  0.00     0.000 A 
HETATM   32  C   UNL     1     -46.788  57.083 -59.354  1.00  0.00     0.001 A 
HETATM   33  C   UNL     1     -45.483  56.965 -58.872  1.00  0.00     0.009 A 
ENDBRANCH   6  28
TORSDOF 6
ENDMDL
