MODEL 1
REMARK VINA RESULT:      -8.6      0.000      0.000
REMARK  4 active torsions:
REMARK  status: ('A' for Active; 'I' for Inactive)
REMARK    1  A    between atoms: C_6  and  N_7 
REMARK       I    between atoms: N_7  and  C_8 
REMARK    2  A    between atoms: C_8  and  C_9 
REMARK    3  A    between atoms: C_10  and  C_11 
REMARK    4  A    between atoms: C_14  and  O_15 
ROOT
HETATM    1  C   UNL     1     -43.549  56.419 -56.006  1.00  0.00     0.131 C 
HETATM    2  C   UNL     1     -43.061  56.740 -57.444  1.00  0.00     0.177 C 
HETATM    3  N   UNL     1     -42.564  58.119 -57.506  1.00  0.00    -0.088 N 
HETATM    4  C   UNL     1     -42.804  59.089 -56.567  1.00  0.00     0.721 A 
HETATM    5  N   UNL     1     -43.477  58.820 -55.426  1.00  0.00    -0.218 N 
HETATM    6  C   UNL     1     -44.308  57.617 -55.388  1.00  0.00     0.111 C 
HETATM    7  C   UNL     1     -44.786  57.357 -53.962  1.00  0.00     0.034 C 
HETATM    8  N   UNL     1     -41.704  58.563 -58.446  1.00  0.00    -0.149 NA
HETATM    9  C   UNL     1     -41.539  59.832 -58.059  1.00  0.00     0.275 A 
HETATM   10  N   UNL     1     -42.194  60.192 -56.912  1.00  0.00    -0.055 NA
HETATM   11  H   UNL     1     -43.862  59.642 -54.958  1.00  0.00     0.178 HD
ENDROOT
BRANCH   1  12
HETATM   12  C   UNL     1     -42.354  55.898 -55.195  1.00  0.00     0.230 C 
HETATM   13  N   UNL     1     -42.525  54.662 -54.620  1.00  0.00    -0.326 N 
HETATM   14  H   UNL     1     -43.428  54.230 -54.817  1.00  0.00     0.169 HD
HETATM   15  O   UNL     1     -41.395  56.652 -55.059  1.00  0.00    -0.273 OA
BRANCH  13  16
HETATM   16  C   UNL     1     -41.707  53.857 -53.790  1.00  0.00     0.040 A 
HETATM   17  C   UNL     1     -41.425  54.003 -52.421  1.00  0.00    -0.035 A 
HETATM   18  C   UNL     1     -40.580  53.053 -51.793  1.00  0.00     0.015 A 
HETATM   19  C   UNL     1     -41.935  55.102 -51.537  1.00  0.00     0.050 C 
HETATM   20  C   UNL     1     -39.998  51.990 -52.492  1.00  0.00    -0.061 A 
HETATM   21  C   UNL     1     -39.100  51.005 -51.805  1.00  0.00     0.048 C 
HETATM   22  C   UNL     1     -40.262  51.867 -53.850  1.00  0.00     0.009 A 
HETATM   23  C   UNL     1     -41.101  52.786 -54.483  1.00  0.00     0.030 A 
ENDBRANCH  13  16
ENDBRANCH   1  12
BRANCH   2  24
HETATM   24  C   UNL     1     -44.077  56.492 -58.571  1.00  0.00    -0.032 A 
HETATM   25  C   UNL     1     -45.151  57.344 -58.864  1.00  0.00     0.012 A 
HETATM   26  C   UNL     1     -46.033  57.060 -59.913  1.00  0.00     0.037 A 
HETATM   27  C   UNL     1     -45.867  55.924 -60.703  1.00  0.00     0.068 A 
HETATM   28  C   UNL     1     -44.825  55.051 -60.414  1.00  0.00     0.037 A 
HETATM   29  C   UNL     1     -43.947  55.330 -59.358  1.00  0.00     0.012 A 
BRANCH  27  30
HETATM   30  O   UNL     1     -46.789  55.777 -61.702  1.00  0.00    -0.356 OA
HETATM   31  C   UNL     1     -47.894  56.673 -61.682  1.00  0.00     0.210 C 
ENDBRANCH  27  30
ENDBRANCH   2  24
TORSDOF 4
ENDMDL
MODEL 2
REMARK VINA RESULT:      -8.2      3.766      4.710
REMARK  4 active torsions:
REMARK  status: ('A' for Active; 'I' for Inactive)
REMARK    1  A    between atoms: C_6  and  N_7 
REMARK       I    between atoms: N_7  and  C_8 
REMARK    2  A    between atoms: C_8  and  C_9 
REMARK    3  A    between atoms: C_10  and  C_11 
REMARK    4  A    between atoms: C_14  and  O_15 
ROOT
HETATM    1  C   UNL     1     -42.936  56.985 -52.764  1.00  0.00     0.131 C 
HETATM    2  C   UNL     1     -41.710  57.711 -53.380  1.00  0.00     0.177 C 
HETATM    3  N   UNL     1     -40.974  58.426 -52.332  1.00  0.00    -0.088 N 
HETATM    4  C   UNL     1     -41.459  58.714 -51.081  1.00  0.00     0.721 A 
HETATM    5  N   UNL     1     -42.670  58.274 -50.672  1.00  0.00    -0.218 N 
HETATM    6  C   UNL     1     -43.631  57.862 -51.695  1.00  0.00     0.111 C 
HETATM    7  C   UNL     1     -44.829  57.178 -51.041  1.00  0.00     0.034 C 
HETATM    8  N   UNL     1     -39.677  58.784 -52.437  1.00  0.00    -0.149 NA
HETATM    9  C   UNL     1     -39.475  59.358 -51.248  1.00  0.00     0.275 A 
HETATM   10  N   UNL     1     -40.540  59.333 -50.388  1.00  0.00    -0.055 NA
HETATM   11  H   UNL     1     -43.058  58.783 -49.876  1.00  0.00     0.178 HD
ENDROOT
BRANCH   1  12
HETATM   12  C   UNL     1     -42.487  55.593 -52.295  1.00  0.00     0.230 C 
HETATM   13  N   UNL     1     -41.572  54.964 -53.104  1.00  0.00    -0.326 N 
HETATM   14  H   UNL     1     -41.287  55.511 -53.916  1.00  0.00     0.169 HD
HETATM   15  O   UNL     1     -43.039  55.130 -51.301  1.00  0.00    -0.273 OA
BRANCH  13  16
HETATM   16  C   UNL     1     -40.943  53.696 -53.053  1.00  0.00     0.040 A 
HETATM   17  C   UNL     1     -40.218  53.113 -52.000  1.00  0.00    -0.035 A 
HETATM   18  C   UNL     1     -39.689  51.809 -52.175  1.00  0.00     0.015 A 
HETATM   19  C   UNL     1     -39.931  53.757 -50.676  1.00  0.00     0.050 C 
HETATM   20  C   UNL     1     -39.843  51.092 -53.366  1.00  0.00    -0.061 A 
HETATM   21  C   UNL     1     -39.264  49.719 -53.528  1.00  0.00     0.048 C 
HETATM   22  C   UNL     1     -40.540  51.685 -54.411  1.00  0.00     0.009 A 
HETATM   23  C   UNL     1     -41.078  52.964 -54.252  1.00  0.00     0.030 A 
ENDBRANCH  13  16
ENDBRANCH   1  12
BRANCH   2  24
HETATM   24  C   UNL     1     -42.008  58.655 -54.556  1.00  0.00    -0.032 A 
HETATM   25  C   UNL     1     -42.161  60.043 -54.432  1.00  0.00     0.012 A 
HETATM   26  C   UNL     1     -42.423  60.843 -55.551  1.00  0.00     0.037 A 
HETATM   27  C   UNL     1     -42.533  60.286 -56.823  1.00  0.00     0.068 A 
HETATM   28  C   UNL     1     -42.411  58.908 -56.965  1.00  0.00     0.037 A 
HETATM   29  C   UNL     1     -42.159  58.106 -55.845  1.00  0.00     0.012 A 
BRANCH  27  30
HETATM   30  O   UNL     1     -42.774  61.183 -57.826  1.00  0.00    -0.356 OA
HETATM   31  C   UNL     1     -42.752  60.673 -59.154  1.00  0.00     0.210 C 
ENDBRANCH  27  30
ENDBRANCH   2  24
TORSDOF 4
ENDMDL
MODEL 3
REMARK VINA RESULT:      -8.1      2.594      4.489
REMARK  4 active torsions:
REMARK  status: ('A' for Active; 'I' for Inactive)
REMARK    1  A    between atoms: C_6  and  N_7 
REMARK       I    between atoms: N_7  and  C_8 
REMARK    2  A    between atoms: C_8  and  C_9 
REMARK    3  A    between atoms: C_10  and  C_11 
REMARK    4  A    between atoms: C_14  and  O_15 
ROOT
HETATM    1  C   UNL     1     -42.729  57.383 -57.662  1.00  0.00     0.131 C 
HETATM    2  C   UNL     1     -43.014  58.884 -57.382  1.00  0.00     0.177 C 
HETATM    3  N   UNL     1     -44.460  59.129 -57.404  1.00  0.00    -0.088 N 
HETATM    4  C   UNL     1     -45.400  58.276 -57.926  1.00  0.00     0.721 A 
HETATM    5  N   UNL     1     -45.062  57.060 -58.409  1.00  0.00    -0.218 N 
HETATM    6  C   UNL     1     -43.662  56.828 -58.764  1.00  0.00     0.111 C 
HETATM    7  C   UNL     1     -43.435  55.347 -59.055  1.00  0.00     0.034 C 
HETATM    8  N   UNL     1     -45.051  60.180 -56.797  1.00  0.00    -0.149 NA
HETATM    9  C   UNL     1     -46.337  59.940 -57.070  1.00  0.00     0.275 A 
HETATM   10  N   UNL     1     -46.592  58.783 -57.757  1.00  0.00    -0.055 NA
HETATM   11  H   UNL     1     -45.754  56.647 -59.037  1.00  0.00     0.178 HD
ENDROOT
BRANCH   1  12
HETATM   12  C   UNL     1     -42.755  56.629 -56.324  1.00  0.00     0.230 C 
HETATM   13  N   UNL     1     -41.581  56.008 -55.974  1.00  0.00    -0.326 N 
HETATM   14  H   UNL     1     -40.823  56.137 -56.644  1.00  0.00     0.169 HD
HETATM   15  O   UNL     1     -43.829  56.574 -55.732  1.00  0.00    -0.273 OA
BRANCH  13  16
HETATM   16  C   UNL     1     -41.202  55.204 -54.871  1.00  0.00     0.040 A 
HETATM   17  C   UNL     1     -41.240  55.512 -53.501  1.00  0.00    -0.035 A 
HETATM   18  C   UNL     1     -40.820  54.530 -52.568  1.00  0.00     0.015 A 
HETATM   19  C   UNL     1     -41.683  56.819 -52.911  1.00  0.00     0.050 C 
HETATM   20  C   UNL     1     -40.347  53.274 -52.964  1.00  0.00    -0.061 A 
HETATM   21  C   UNL     1     -39.900  52.258 -51.957  1.00  0.00     0.048 C 
HETATM   22  C   UNL     1     -40.289  52.986 -54.321  1.00  0.00     0.009 A 
HETATM   23  C   UNL     1     -40.710  53.937 -55.254  1.00  0.00     0.030 A 
ENDBRANCH  13  16
ENDBRANCH   1  12
BRANCH   2  24
HETATM   24  C   UNL     1     -42.294  59.887 -58.297  1.00  0.00    -0.032 A 
HETATM   25  C   UNL     1     -42.394  59.891 -59.695  1.00  0.00     0.012 A 
HETATM   26  C   UNL     1     -41.716  60.843 -60.465  1.00  0.00     0.037 A 
HETATM   27  C   UNL     1     -40.924  61.821 -59.865  1.00  0.00     0.068 A 
HETATM   28  C   UNL     1     -40.790  61.820 -58.482  1.00  0.00     0.037 A 
HETATM   29  C   UNL     1     -41.461  60.861 -57.711  1.00  0.00     0.012 A 
BRANCH  27  30
HETATM   30  O   UNL     1     -40.334  62.696 -60.734  1.00  0.00    -0.356 OA
HETATM   31  C   UNL     1     -40.759  62.630 -62.090  1.00  0.00     0.210 C 
ENDBRANCH  27  30
ENDBRANCH   2  24
TORSDOF 4
ENDMDL
MODEL 4
REMARK VINA RESULT:      -7.7      3.085      5.842
REMARK  4 active torsions:
REMARK  status: ('A' for Active; 'I' for Inactive)
REMARK    1  A    between atoms: C_6  and  N_7 
REMARK       I    between atoms: N_7  and  C_8 
REMARK    2  A    between atoms: C_8  and  C_9 
REMARK    3  A    between atoms: C_10  and  C_11 
REMARK    4  A    between atoms: C_14  and  O_15 
ROOT
HETATM    1  C   UNL     1     -42.854  57.241 -52.906  1.00  0.00     0.131 C 
HETATM    2  C   UNL     1     -44.321  57.627 -53.238  1.00  0.00     0.177 C 
HETATM    3  N   UNL     1     -44.442  57.943 -54.666  1.00  0.00    -0.088 N 
HETATM    4  C   UNL     1     -43.392  58.203 -55.510  1.00  0.00     0.721 A 
HETATM    5  N   UNL     1     -42.109  58.107 -55.096  1.00  0.00    -0.218 N 
HETATM    6  C   UNL     1     -41.849  58.144 -53.657  1.00  0.00     0.111 C 
HETATM    7  C   UNL     1     -40.392  57.784 -53.381  1.00  0.00     0.034 C 
HETATM    8  N   UNL     1     -45.605  57.896 -55.347  1.00  0.00    -0.149 NA
HETATM    9  C   UNL     1     -45.193  58.223 -56.575  1.00  0.00     0.275 A 
HETATM   10  N   UNL     1     -43.846  58.416 -56.717  1.00  0.00    -0.055 NA
HETATM   11  H   UNL     1     -41.437  58.605 -55.683  1.00  0.00     0.178 HD
ENDROOT
BRANCH   1  12
HETATM   12  C   UNL     1     -42.691  55.730 -53.130  1.00  0.00     0.230 C 
HETATM   13  N   UNL     1     -41.441  55.226 -52.863  1.00  0.00    -0.326 N 
HETATM   14  H   UNL     1     -40.772  55.920 -52.529  1.00  0.00     0.169 HD
HETATM   15  O   UNL     1     -43.648  55.126 -53.604  1.00  0.00    -0.273 OA
BRANCH  13  16
HETATM   16  C   UNL     1     -40.876  53.932 -52.967  1.00  0.00     0.040 A 
HETATM   17  C   UNL     1     -40.261  53.155 -51.970  1.00  0.00    -0.035 A 
HETATM   18  C   UNL     1     -39.779  51.865 -52.310  1.00  0.00     0.015 A 
HETATM   19  C   UNL     1     -40.049  53.572 -50.545  1.00  0.00     0.050 C 
HETATM   20  C   UNL     1     -39.873  51.348 -53.607  1.00  0.00    -0.061 A 
HETATM   21  C   UNL     1     -39.345  49.985 -53.941  1.00  0.00     0.048 C 
HETATM   22  C   UNL     1     -40.459  52.132 -54.592  1.00  0.00     0.009 A 
HETATM   23  C   UNL     1     -40.950  53.399 -54.273  1.00  0.00     0.030 A 
ENDBRANCH  13  16
ENDBRANCH   1  12
BRANCH   2  24
HETATM   24  C   UNL     1     -44.926  58.760 -52.393  1.00  0.00    -0.032 A 
HETATM   25  C   UNL     1     -45.274  60.020 -52.898  1.00  0.00     0.012 A 
HETATM   26  C   UNL     1     -45.832  61.002 -52.070  1.00  0.00     0.037 A 
HETATM   27  C   UNL     1     -46.063  60.754 -50.718  1.00  0.00     0.068 A 
HETATM   28  C   UNL     1     -45.701  59.520 -50.190  1.00  0.00     0.037 A 
HETATM   29  C   UNL     1     -45.135  58.541 -51.016  1.00  0.00     0.012 A 
BRANCH  27  30
HETATM   30  O   UNL     1     -46.626  61.793 -50.031  1.00  0.00    -0.356 OA
HETATM   31  C   UNL     1     -47.027  62.920 -50.800  1.00  0.00     0.210 C 
ENDBRANCH  27  30
ENDBRANCH   2  24
TORSDOF 4
ENDMDL
MODEL 5
REMARK VINA RESULT:      -7.7      4.604      5.618
REMARK  4 active torsions:
REMARK  status: ('A' for Active; 'I' for Inactive)
REMARK    1  A    between atoms: C_6  and  N_7 
REMARK       I    between atoms: N_7  and  C_8 
REMARK    2  A    between atoms: C_8  and  C_9 
REMARK    3  A    between atoms: C_10  and  C_11 
REMARK    4  A    between atoms: C_14  and  O_15 
ROOT
HETATM    1  C   UNL     1     -43.276  56.608 -52.514  1.00  0.00     0.131 C 
HETATM    2  C   UNL     1     -42.853  58.056 -52.882  1.00  0.00     0.177 C 
HETATM    3  N   UNL     1     -41.855  58.542 -51.923  1.00  0.00    -0.088 N 
HETATM    4  C   UNL     1     -41.586  57.974 -50.703  1.00  0.00     0.721 A 
HETATM    5  N   UNL     1     -42.188  56.830 -50.307  1.00  0.00    -0.218 N 
HETATM    6  C   UNL     1     -43.423  56.435 -50.984  1.00  0.00     0.111 C 
HETATM    7  C   UNL     1     -43.813  55.018 -50.573  1.00  0.00     0.034 C 
HETATM    8  N   UNL     1     -40.992  59.546 -52.185  1.00  0.00    -0.149 NA
HETATM    9  C   UNL     1     -40.293  59.583 -51.046  1.00  0.00     0.275 A 
HETATM   10  N   UNL     1     -40.625  58.635 -50.116  1.00  0.00    -0.055 NA
HETATM   11  H   UNL     1     -42.160  56.665 -49.299  1.00  0.00     0.178 HD
ENDROOT
BRANCH   1  12
HETATM   12  C   UNL     1     -42.312  55.633 -53.206  1.00  0.00     0.230 C 
HETATM   13  N   UNL     1     -42.079  54.457 -52.535  1.00  0.00    -0.326 N 
HETATM   14  H   UNL     1     -42.592  54.368 -51.658  1.00  0.00     0.169 HD
HETATM   15  O   UNL     1     -41.774  56.016 -54.241  1.00  0.00    -0.273 OA
BRANCH  13  16
HETATM   16  C   UNL     1     -41.256  53.336 -52.802  1.00  0.00     0.040 A 
HETATM   17  C   UNL     1     -40.267  52.755 -51.990  1.00  0.00    -0.035 A 
HETATM   18  C   UNL     1     -39.576  51.613 -52.468  1.00  0.00     0.015 A 
HETATM   19  C   UNL     1     -39.849  53.246 -50.635  1.00  0.00     0.050 C 
HETATM   20  C   UNL     1     -39.828  51.057 -53.727  1.00  0.00    -0.061 A 
HETATM   21  C   UNL     1     -39.076  49.854 -54.212  1.00  0.00     0.048 C 
HETATM   22  C   UNL     1     -40.790  51.652 -54.533  1.00  0.00     0.009 A 
HETATM   23  C   UNL     1     -41.489  52.770 -54.074  1.00  0.00     0.030 A 
ENDBRANCH  13  16
ENDBRANCH   1  12
BRANCH   2  24
HETATM   24  C   UNL     1     -43.995  59.076 -53.020  1.00  0.00    -0.032 A 
HETATM   25  C   UNL     1     -44.936  59.345 -52.016  1.00  0.00     0.012 A 
HETATM   26  C   UNL     1     -45.945  60.297 -52.208  1.00  0.00     0.037 A 
HETATM   27  C   UNL     1     -46.042  61.010 -53.402  1.00  0.00     0.068 A 
HETATM   28  C   UNL     1     -45.135  60.740 -54.420  1.00  0.00     0.037 A 
HETATM   29  C   UNL     1     -44.131  59.782 -54.232  1.00  0.00     0.012 A 
BRANCH  27  30
HETATM   30  O   UNL     1     -47.063  61.918 -53.449  1.00  0.00    -0.356 OA
HETATM   31  C   UNL     1     -46.756  63.189 -54.008  1.00  0.00     0.210 C 
ENDBRANCH  27  30
ENDBRANCH   2  24
TORSDOF 4
ENDMDL
MODEL 6
REMARK VINA RESULT:      -7.6      4.284      5.384
REMARK  4 active torsions:
REMARK  status: ('A' for Active; 'I' for Inactive)
REMARK    1  A    between atoms: C_6  and  N_7 
REMARK       I    between atoms: N_7  and  C_8 
REMARK    2  A    between atoms: C_8  and  C_9 
REMARK    3  A    between atoms: C_10  and  C_11 
REMARK    4  A    between atoms: C_14  and  O_15 
ROOT
HETATM    1  C   UNL     1     -43.440  57.906 -53.185  1.00  0.00     0.131 C 
HETATM    2  C   UNL     1     -42.239  58.704 -53.761  1.00  0.00     0.177 C 
HETATM    3  N   UNL     1     -41.207  58.865 -52.731  1.00  0.00    -0.088 N 
HETATM    4  C   UNL     1     -41.394  58.665 -51.386  1.00  0.00     0.721 A 
HETATM    5  N   UNL     1     -42.568  58.210 -50.894  1.00  0.00    -0.218 N 
HETATM    6  C   UNL     1     -43.758  58.336 -51.734  1.00  0.00     0.111 C 
HETATM    7  C   UNL     1     -44.918  57.559 -51.116  1.00  0.00     0.034 C 
HETATM    8  N   UNL     1     -39.910  59.115 -53.003  1.00  0.00    -0.149 NA
HETATM    9  C   UNL     1     -39.392  59.138 -51.771  1.00  0.00     0.275 A 
HETATM   10  N   UNL     1     -40.268  58.865 -50.755  1.00  0.00    -0.055 NA
HETATM   11  H   UNL     1     -42.705  58.388 -49.897  1.00  0.00     0.178 HD
ENDROOT
BRANCH   1  12
HETATM   12  C   UNL     1     -43.170  56.409 -53.393  1.00  0.00     0.230 C 
HETATM   13  N   UNL     1     -41.930  55.972 -52.992  1.00  0.00    -0.326 N 
HETATM   14  H   UNL     1     -41.341  56.700 -52.587  1.00  0.00     0.169 HD
HETATM   15  O   UNL     1     -44.035  55.756 -53.969  1.00  0.00    -0.273 OA
BRANCH  13  16
HETATM   16  C   UNL     1     -41.286  54.712 -53.036  1.00  0.00     0.040 A 
HETATM   17  C   UNL     1     -40.887  53.888 -51.970  1.00  0.00    -0.035 A 
HETATM   18  C   UNL     1     -40.267  52.646 -52.263  1.00  0.00     0.015 A 
HETATM   19  C   UNL     1     -41.046  54.206 -50.513  1.00  0.00     0.050 C 
HETATM   20  C   UNL     1     -40.018  52.222 -53.572  1.00  0.00    -0.061 A 
HETATM   21  C   UNL     1     -39.352  50.909 -53.852  1.00  0.00     0.048 C 
HETATM   22  C   UNL     1     -40.393  53.054 -54.619  1.00  0.00     0.009 A 
HETATM   23  C   UNL     1     -41.015  54.275 -54.351  1.00  0.00     0.030 A 
ENDBRANCH  13  16
ENDBRANCH   1  12
BRANCH   2  24
HETATM   24  C   UNL     1     -42.576  60.066 -54.390  1.00  0.00    -0.032 A 
HETATM   25  C   UNL     1     -42.602  60.311 -55.770  1.00  0.00     0.012 A 
HETATM   26  C   UNL     1     -42.927  61.576 -56.273  1.00  0.00     0.037 A 
HETATM   27  C   UNL     1     -43.240  62.630 -55.417  1.00  0.00     0.068 A 
HETATM   28  C   UNL     1     -43.195  62.417 -54.044  1.00  0.00     0.037 A 
HETATM   29  C   UNL     1     -42.861  61.153 -53.540  1.00  0.00     0.012 A 
BRANCH  27  30
HETATM   30  O   UNL     1     -43.554  63.805 -56.042  1.00  0.00    -0.356 OA
HETATM   31  C   UNL     1     -42.655  64.248 -57.051  1.00  0.00     0.210 C 
ENDBRANCH  27  30
ENDBRANCH   2  24
TORSDOF 4
ENDMDL
MODEL 7
REMARK VINA RESULT:      -7.4      1.577      2.030
REMARK  4 active torsions:
REMARK  status: ('A' for Active; 'I' for Inactive)
REMARK    1  A    between atoms: C_6  and  N_7 
REMARK       I    between atoms: N_7  and  C_8 
REMARK    2  A    between atoms: C_8  and  C_9 
REMARK    3  A    between atoms: C_10  and  C_11 
REMARK    4  A    between atoms: C_14  and  O_15 
ROOT
HETATM    1  C   UNL     1     -44.463  57.909 -57.018  1.00  0.00     0.131 C 
HETATM    2  C   UNL     1     -44.121  57.699 -58.517  1.00  0.00     0.177 C 
HETATM    3  N   UNL     1     -43.354  58.845 -59.019  1.00  0.00    -0.088 N 
HETATM    4  C   UNL     1     -43.248  60.062 -58.393  1.00  0.00     0.721 A 
HETATM    5  N   UNL     1     -43.799  60.284 -57.179  1.00  0.00    -0.218 N 
HETATM    6  C   UNL     1     -44.855  59.377 -56.729  1.00  0.00     0.111 C 
HETATM    7  C   UNL     1     -45.176  59.638 -55.260  1.00  0.00     0.034 C 
HETATM    8  N   UNL     1     -42.556  58.794 -60.106  1.00  0.00    -0.149 NA
HETATM    9  C   UNL     1     -42.072  60.040 -60.124  1.00  0.00     0.275 A 
HETATM   10  N   UNL     1     -42.470  60.845 -59.091  1.00  0.00    -0.055 NA
HETATM   11  H   UNL     1     -43.931  61.270 -56.949  1.00  0.00     0.178 HD
ENDROOT
BRANCH   1  12
HETATM   12  C   UNL     1     -43.307  57.351 -56.175  1.00  0.00     0.230 C 
HETATM   13  N   UNL     1     -43.562  56.160 -55.539  1.00  0.00    -0.326 N 
HETATM   14  H   UNL     1     -44.492  55.781 -55.718  1.00  0.00     0.169 HD
HETATM   15  O   UNL     1     -42.300  58.045 -56.073  1.00  0.00    -0.273 OA
BRANCH  13  16
HETATM   16  C   UNL     1     -42.801  55.346 -54.666  1.00  0.00     0.040 A 
HETATM   17  C   UNL     1     -42.767  55.350 -53.261  1.00  0.00    -0.035 A 
HETATM   18  C   UNL     1     -41.929  54.419 -52.595  1.00  0.00     0.015 A 
HETATM   19  C   UNL     1     -43.543  56.276 -52.371  1.00  0.00     0.050 C 
HETATM   20  C   UNL     1     -41.118  53.513 -53.287  1.00  0.00    -0.061 A 
HETATM   21  C   UNL     1     -40.234  52.546 -52.557  1.00  0.00     0.048 C 
HETATM   22  C   UNL     1     -41.139  53.531 -54.675  1.00  0.00     0.009 A 
HETATM   23  C   UNL     1     -41.966  54.433 -55.347  1.00  0.00     0.030 A 
ENDBRANCH  13  16
ENDBRANCH   1  12
BRANCH   2  24
HETATM   24  C   UNL     1     -45.312  57.413 -59.446  1.00  0.00    -0.032 A 
HETATM   25  C   UNL     1     -46.252  58.375 -59.840  1.00  0.00     0.012 A 
HETATM   26  C   UNL     1     -47.308  58.044 -60.698  1.00  0.00     0.037 A 
HETATM   27  C   UNL     1     -47.454  56.749 -61.190  1.00  0.00     0.068 A 
HETATM   28  C   UNL     1     -46.548  55.773 -60.792  1.00  0.00     0.037 A 
HETATM   29  C   UNL     1     -45.496  56.101 -59.926  1.00  0.00     0.012 A 
BRANCH  27  30
HETATM   30  O   UNL     1     -48.518  56.569 -62.030  1.00  0.00    -0.356 OA
HETATM   31  C   UNL     1     -49.053  57.739 -62.636  1.00  0.00     0.210 C 
ENDBRANCH  27  30
ENDBRANCH   2  24
TORSDOF 4
ENDMDL
MODEL 8
REMARK VINA RESULT:      -7.4      4.327      8.464
REMARK  4 active torsions:
REMARK  status: ('A' for Active; 'I' for Inactive)
REMARK    1  A    between atoms: C_6  and  N_7 
REMARK       I    between atoms: N_7  and  C_8 
REMARK    2  A    between atoms: C_8  and  C_9 
REMARK    3  A    between atoms: C_10  and  C_11 
REMARK    4  A    between atoms: C_14  and  O_15 
ROOT
HETATM    1  C   UNL     1     -43.630  56.803 -52.193  1.00  0.00     0.131 C 
HETATM    2  C   UNL     1     -42.221  56.727 -51.547  1.00  0.00     0.177 C 
HETATM    3  N   UNL     1     -41.351  57.758 -52.124  1.00  0.00    -0.088 N 
HETATM    4  C   UNL     1     -41.603  58.448 -53.283  1.00  0.00     0.721 A 
HETATM    5  N   UNL     1     -42.757  58.284 -53.968  1.00  0.00    -0.218 N 
HETATM    6  C   UNL     1     -43.539  57.075 -53.713  1.00  0.00     0.111 C 
HETATM    7  C   UNL     1     -44.903  57.184 -54.389  1.00  0.00     0.034 C 
HETATM    8  N   UNL     1     -40.247  58.236 -51.512  1.00  0.00    -0.149 NA
HETATM    9  C   UNL     1     -39.840  59.148 -52.399  1.00  0.00     0.275 A 
HETATM   10  N   UNL     1     -40.645  59.310 -53.495  1.00  0.00    -0.055 NA
HETATM   11  H   UNL     1     -42.718  58.592 -54.941  1.00  0.00     0.178 HD
ENDROOT
BRANCH   1  12
HETATM   12  C   UNL     1     -44.477  57.799 -51.388  1.00  0.00     0.230 C 
HETATM   13  N   UNL     1     -44.096  59.116 -51.489  1.00  0.00    -0.326 N 
HETATM   14  H   UNL     1     -43.299  59.274 -52.106  1.00  0.00     0.169 HD
HETATM   15  O   UNL     1     -45.354  57.335 -50.665  1.00  0.00    -0.273 OA
BRANCH  13  16
HETATM   16  C   UNL     1     -44.575  60.311 -50.901  1.00  0.00     0.040 A 
HETATM   17  C   UNL     1     -45.760  61.015 -51.174  1.00  0.00    -0.035 A 
HETATM   18  C   UNL     1     -46.039  62.194 -50.436  1.00  0.00     0.015 A 
HETATM   19  C   UNL     1     -46.782  60.639 -52.206  1.00  0.00     0.050 C 
HETATM   20  C   UNL     1     -45.167  62.693 -49.462  1.00  0.00    -0.061 A 
HETATM   21  C   UNL     1     -45.482  63.947 -48.704  1.00  0.00     0.048 C 
HETATM   22  C   UNL     1     -43.986  62.005 -49.216  1.00  0.00     0.009 A 
HETATM   23  C   UNL     1     -43.700  60.836 -49.925  1.00  0.00     0.030 A 
ENDBRANCH  13  16
ENDBRANCH   1  12
BRANCH   2  24
HETATM   24  C   UNL     1     -41.527  55.356 -51.604  1.00  0.00    -0.032 A 
HETATM   25  C   UNL     1     -41.404  54.585 -52.768  1.00  0.00     0.012 A 
HETATM   26  C   UNL     1     -40.750  53.347 -52.748  1.00  0.00     0.037 A 
HETATM   27  C   UNL     1     -40.195  52.847 -51.572  1.00  0.00     0.068 A 
HETATM   28  C   UNL     1     -40.328  53.583 -50.400  1.00  0.00     0.037 A 
HETATM   29  C   UNL     1     -40.991  54.818 -50.418  1.00  0.00     0.012 A 
BRANCH  27  30
HETATM   30  O   UNL     1     -39.572  51.637 -51.698  1.00  0.00    -0.356 OA
HETATM   31  C   UNL     1     -39.547  51.068 -53.002  1.00  0.00     0.210 C 
ENDBRANCH  27  30
ENDBRANCH   2  24
TORSDOF 4
ENDMDL
MODEL 9
REMARK VINA RESULT:      -7.4      4.563      5.613
REMARK  4 active torsions:
REMARK  status: ('A' for Active; 'I' for Inactive)
REMARK    1  A    between atoms: C_6  and  N_7 
REMARK       I    between atoms: N_7  and  C_8 
REMARK    2  A    between atoms: C_8  and  C_9 
REMARK    3  A    between atoms: C_10  and  C_11 
REMARK    4  A    between atoms: C_14  and  O_15 
ROOT
HETATM    1  C   UNL     1     -42.090  57.096 -53.113  1.00  0.00     0.131 C 
HETATM    2  C   UNL     1     -41.203  58.353 -53.324  1.00  0.00     0.177 C 
HETATM    3  N   UNL     1     -40.598  58.755 -52.049  1.00  0.00    -0.088 N 
HETATM    4  C   UNL     1     -41.005  58.329 -50.810  1.00  0.00     0.721 A 
HETATM    5  N   UNL     1     -41.983  57.407 -50.664  1.00  0.00    -0.218 N 
HETATM    6  C   UNL     1     -42.888  57.184 -51.791  1.00  0.00     0.111 C 
HETATM    7  C   UNL     1     -43.756  55.957 -51.528  1.00  0.00     0.034 C 
HETATM    8  N   UNL     1     -39.481  59.506 -51.955  1.00  0.00    -0.149 NA
HETATM    9  C   UNL     1     -39.325  59.563 -50.629  1.00  0.00     0.275 A 
HETATM   10  N   UNL     1     -40.235  58.854 -49.894  1.00  0.00    -0.055 NA
HETATM   11  H   UNL     1     -42.412  57.390 -49.737  1.00  0.00     0.178 HD
ENDROOT
BRANCH   1  12
HETATM   12  C   UNL     1     -41.207  55.850 -53.277  1.00  0.00     0.230 C 
HETATM   13  N   UNL     1     -41.483  54.814 -52.417  1.00  0.00    -0.326 N 
HETATM   14  H   UNL     1     -42.258  54.995 -51.779  1.00  0.00     0.169 HD
HETATM   15  O   UNL     1     -40.289  55.914 -54.089  1.00  0.00    -0.273 OA
BRANCH  13  16
HETATM   16  C   UNL     1     -40.901  53.538 -52.219  1.00  0.00     0.040 A 
HETATM   17  C   UNL     1     -40.417  52.631 -53.177  1.00  0.00    -0.035 A 
HETATM   18  C   UNL     1     -39.856  51.406 -52.735  1.00  0.00     0.015 A 
HETATM   19  C   UNL     1     -40.448  52.832 -54.664  1.00  0.00     0.050 C 
HETATM   20  C   UNL     1     -39.787  51.058 -51.382  1.00  0.00    -0.061 A 
HETATM   21  C   UNL     1     -39.198  49.752 -50.943  1.00  0.00     0.048 C 
HETATM   22  C   UNL     1     -40.290  51.949 -50.443  1.00  0.00     0.009 A 
HETATM   23  C   UNL     1     -40.836  53.165 -50.859  1.00  0.00     0.030 A 
ENDBRANCH  13  16
ENDBRANCH   1  12
BRANCH   2  24
HETATM   24  C   UNL     1     -41.891  59.558 -53.986  1.00  0.00    -0.032 A 
HETATM   25  C   UNL     1     -42.455  60.629 -53.280  1.00  0.00     0.012 A 
HETATM   26  C   UNL     1     -43.057  61.700 -53.952  1.00  0.00     0.037 A 
HETATM   27  C   UNL     1     -43.110  61.736 -55.344  1.00  0.00     0.068 A 
HETATM   28  C   UNL     1     -42.580  60.671 -56.064  1.00  0.00     0.037 A 
HETATM   29  C   UNL     1     -41.985  59.595 -55.392  1.00  0.00     0.012 A 
BRANCH  27  30
HETATM   30  O   UNL     1     -43.711  62.846 -55.868  1.00  0.00    -0.356 OA
HETATM   31  C   UNL     1     -43.433  64.083 -55.224  1.00  0.00     0.210 C 
ENDBRANCH  27  30
ENDBRANCH   2  24
TORSDOF 4
ENDMDL
MODEL 10
REMARK VINA RESULT:      -7.3      3.960      6.404
REMARK  4 active torsions:
REMARK  status: ('A' for Active; 'I' for Inactive)
REMARK    1  A    between atoms: C_6  and  N_7 
REMARK       I    between atoms: N_7  and  C_8 
REMARK    2  A    between atoms: C_8  and  C_9 
REMARK    3  A    between atoms: C_10  and  C_11 
REMARK    4  A    between atoms: C_14  and  O_15 
ROOT
HETATM    1  C   UNL     1     -42.666  57.728 -51.760  1.00  0.00     0.131 C 
HETATM    2  C   UNL     1     -43.707  58.558 -52.559  1.00  0.00     0.177 C 
HETATM    3  N   UNL     1     -43.066  59.170 -53.728  1.00  0.00    -0.088 N 
HETATM    4  C   UNL     1     -41.712  59.296 -53.913  1.00  0.00     0.721 A 
HETATM    5  N   UNL     1     -40.826  58.774 -53.036  1.00  0.00    -0.218 N 
HETATM    6  C   UNL     1     -41.302  58.454 -51.690  1.00  0.00     0.111 C 
HETATM    7  C   UNL     1     -40.237  57.662 -50.935  1.00  0.00     0.034 C 
HETATM    8  N   UNL     1     -43.739  59.578 -54.824  1.00  0.00    -0.149 NA
HETATM    9  C   UNL     1     -42.736  60.016 -55.590  1.00  0.00     0.275 A 
HETATM   10  N   UNL     1     -41.480  59.859 -55.069  1.00  0.00    -0.055 NA
HETATM   11  H   UNL     1     -39.888  59.176 -53.093  1.00  0.00     0.178 HD
ENDROOT
BRANCH   1  12
HETATM   12  C   UNL     1     -42.636  56.306 -52.339  1.00  0.00     0.230 C 
HETATM   13  N   UNL     1     -41.396  55.717 -52.393  1.00  0.00    -0.326 N 
HETATM   14  H   UNL     1     -40.642  56.296 -52.024  1.00  0.00     0.169 HD
HETATM   15  O   UNL     1     -43.691  55.855 -52.776  1.00  0.00    -0.273 OA
BRANCH  13  16
HETATM   16  C   UNL     1     -40.938  54.465 -52.871  1.00  0.00     0.040 A 
HETATM   17  C   UNL     1     -40.892  53.989 -54.193  1.00  0.00    -0.035 A 
HETATM   18  C   UNL     1     -40.370  52.693 -54.433  1.00  0.00     0.015 A 
HETATM   19  C   UNL     1     -41.364  54.734 -55.407  1.00  0.00     0.050 C 
HETATM   20  C   UNL     1     -39.921  51.862 -53.401  1.00  0.00    -0.061 A 
HETATM   21  C   UNL     1     -39.383  50.491 -53.683  1.00  0.00     0.048 C 
HETATM   22  C   UNL     1     -39.993  52.330 -52.096  1.00  0.00     0.009 A 
HETATM   23  C   UNL     1     -40.493  53.608 -51.841  1.00  0.00     0.030 A 
ENDBRANCH  13  16
ENDBRANCH   1  12
BRANCH   2  24
HETATM   24  C   UNL     1     -44.476  59.622 -51.759  1.00  0.00    -0.032 A 
HETATM   25  C   UNL     1     -43.933  60.348 -50.689  1.00  0.00     0.012 A 
HETATM   26  C   UNL     1     -44.690  61.310 -50.011  1.00  0.00     0.037 A 
HETATM   27  C   UNL     1     -46.006  61.582 -50.383  1.00  0.00     0.068 A 
HETATM   28  C   UNL     1     -46.572  60.857 -51.424  1.00  0.00     0.037 A 
HETATM   29  C   UNL     1     -45.818  59.886 -52.097  1.00  0.00     0.012 A 
BRANCH  27  30
HETATM   30  O   UNL     1     -46.622  62.556 -49.648  1.00  0.00    -0.356 OA
HETATM   31  C   UNL     1     -47.401  63.501 -50.372  1.00  0.00     0.210 C 
ENDBRANCH  27  30
ENDBRANCH   2  24
TORSDOF 4
ENDMDL
