MODEL 1
REMARK VINA RESULT:      -9.9      0.000      0.000
REMARK  2 active torsions:
REMARK  status: ('A' for Active; 'I' for Inactive)
REMARK    1  A    between atoms: O_1  and  C_2 
REMARK    2  A    between atoms: C_24  and  C_25 
ROOT
HETATM    1  C   UNL     1     -39.466  50.142 -51.689  1.00  0.00     0.066 A 
HETATM    2  C   UNL     1     -39.467  49.593 -52.965  1.00  0.00     0.039 A 
HETATM    3  C   UNL     1     -39.844  50.368 -54.064  1.00  0.00     0.033 A 
HETATM    4  C   UNL     1     -40.217  51.700 -53.834  1.00  0.00     0.044 A 
HETATM    5  N   UNL     1     -40.626  52.664 -54.751  1.00  0.00    -0.353 N 
HETATM    6  H   UNL     1     -40.708  52.506 -55.743  1.00  0.00     0.166 HD
HETATM    7  C   UNL     1     -40.894  53.830 -54.100  1.00  0.00     0.073 A 
HETATM    8  C   UNL     1     -41.322  55.058 -54.544  1.00  0.00     0.072 A 
HETATM    9  N   UNL     1     -41.630  55.547 -55.780  1.00  0.00    -0.353 N 
HETATM   10  H   UNL     1     -41.589  55.035 -56.649  1.00  0.00     0.166 HD
HETATM   11  C   UNL     1     -42.019  56.881 -55.671  1.00  0.00     0.043 A 
HETATM   12  C   UNL     1     -42.419  57.773 -56.676  1.00  0.00     0.030 A 
HETATM   13  C   UNL     1     -42.761  59.073 -56.295  1.00  0.00     0.002 A 
HETATM   14  C   UNL     1     -42.707  59.470 -54.961  1.00  0.00     0.001 A 
HETATM   15  C   UNL     1     -42.307  58.574 -53.961  1.00  0.00     0.014 A 
HETATM   16  C   UNL     1     -41.955  57.257 -54.313  1.00  0.00     0.004 A 
HETATM   17  C   UNL     1     -41.523  56.092 -53.689  1.00  0.00     0.014 A 
HETATM   18  C   UNL     1     -41.285  55.896 -52.312  1.00  0.00    -0.010 A 
HETATM   19  C   UNL     1     -41.432  56.856 -51.211  1.00  0.00     0.163 A 
HETATM   20  N   UNL     1     -41.034  56.019 -50.101  1.00  0.00    -0.353 N 
HETATM   21  C   UNL     1     -40.680  54.710 -50.411  1.00  0.00     0.253 A 
HETATM   22  O   UNL     1     -40.330  53.927 -49.538  1.00  0.00    -0.268 OA
HETATM   23  C   UNL     1     -40.840  54.627 -51.838  1.00  0.00     0.054 A 
HETATM   24  C   UNL     1     -40.648  53.583 -52.783  1.00  0.00     0.022 A 
HETATM   25  C   UNL     1     -40.223  52.277 -52.545  1.00  0.00     0.007 A 
HETATM   26  C   UNL     1     -39.838  51.469 -51.458  1.00  0.00     0.051 A 
HETATM   27  H   UNL     1     -41.001  56.321 -49.139  1.00  0.00     0.163 HD
ENDROOT
BRANCH   1  28
HETATM   28  O   UNL     1     -39.100  49.395 -50.605  1.00  0.00    -0.361 OA
HETATM   29  H   UNL     1     -38.914  48.488 -50.899  1.00  0.00     0.217 HD
ENDBRANCH   1  28
TORSDOF 2
ENDMDL
MODEL 2
REMARK VINA RESULT:      -9.7      2.807      7.129
REMARK  2 active torsions:
REMARK  status: ('A' for Active; 'I' for Inactive)
REMARK    1  A    between atoms: O_1  and  C_2 
REMARK    2  A    between atoms: C_24  and  C_25 
ROOT
HETATM    1  C   UNL     1     -42.088  60.019 -51.866  1.00  0.00     0.066 A 
HETATM    2  C   UNL     1     -41.748  59.922 -50.523  1.00  0.00     0.039 A 
HETATM    3  C   UNL     1     -41.300  58.708 -49.996  1.00  0.00     0.033 A 
HETATM    4  C   UNL     1     -41.210  57.608 -50.862  1.00  0.00     0.044 A 
HETATM    5  N   UNL     1     -40.796  56.308 -50.583  1.00  0.00    -0.353 N 
HETATM    6  H   UNL     1     -40.499  55.990 -49.674  1.00  0.00     0.166 HD
HETATM    7  C   UNL     1     -40.861  55.556 -51.716  1.00  0.00     0.073 A 
HETATM    8  C   UNL     1     -40.566  54.237 -51.966  1.00  0.00     0.072 A 
HETATM    9  N   UNL     1     -40.110  53.219 -51.181  1.00  0.00    -0.353 N 
HETATM   10  H   UNL     1     -39.896  53.277 -50.196  1.00  0.00     0.166 HD
HETATM   11  C   UNL     1     -39.979  52.061 -51.947  1.00  0.00     0.043 A 
HETATM   12  C   UNL     1     -39.547  50.785 -51.558  1.00  0.00     0.030 A 
HETATM   13  C   UNL     1     -39.508  49.786 -52.533  1.00  0.00     0.002 A 
HETATM   14  C   UNL     1     -39.885  50.048 -53.848  1.00  0.00     0.001 A 
HETATM   15  C   UNL     1     -40.316  51.324 -54.231  1.00  0.00     0.014 A 
HETATM   16  C   UNL     1     -40.367  52.354 -53.271  1.00  0.00     0.004 A 
HETATM   17  C   UNL     1     -40.711  53.699 -53.203  1.00  0.00     0.014 A 
HETATM   18  C   UNL     1     -41.176  54.517 -54.255  1.00  0.00    -0.010 A 
HETATM   19  C   UNL     1     -41.409  54.160 -55.659  1.00  0.00     0.163 A 
HETATM   20  N   UNL     1     -41.868  55.436 -56.163  1.00  0.00    -0.353 N 
HETATM   21  C   UNL     1     -41.931  56.477 -55.242  1.00  0.00     0.253 A 
HETATM   22  O   UNL     1     -42.308  57.593 -55.575  1.00  0.00    -0.268 OA
HETATM   23  C   UNL     1     -41.485  55.888 -54.009  1.00  0.00     0.054 A 
HETATM   24  C   UNL     1     -41.312  56.392 -52.691  1.00  0.00     0.022 A 
HETATM   25  C   UNL     1     -41.550  57.687 -52.230  1.00  0.00     0.007 A 
HETATM   26  C   UNL     1     -41.998  58.925 -52.729  1.00  0.00     0.051 A 
HETATM   27  H   UNL     1     -42.139  55.610 -57.119  1.00  0.00     0.163 HD
ENDROOT
BRANCH   1  28
HETATM   28  O   UNL     1     -42.527  61.201 -52.393  1.00  0.00    -0.361 OA
HETATM   29  H   UNL     1     -43.404  61.400 -52.027  1.00  0.00     0.217 HD
ENDBRANCH   1  28
TORSDOF 2
ENDMDL
MODEL 3
REMARK VINA RESULT:      -9.5      2.021      6.525
REMARK  2 active torsions:
REMARK  status: ('A' for Active; 'I' for Inactive)
REMARK    1  A    between atoms: O_1  and  C_2 
REMARK    2  A    between atoms: C_24  and  C_25 
ROOT
HETATM    1  C   UNL     1     -42.787  59.126 -55.279  1.00  0.00     0.066 A 
HETATM    2  C   UNL     1     -42.829  58.649 -56.583  1.00  0.00     0.039 A 
HETATM    3  C   UNL     1     -42.462  57.330 -56.863  1.00  0.00     0.033 A 
HETATM    4  C   UNL     1     -42.055  56.519 -55.793  1.00  0.00     0.044 A 
HETATM    5  N   UNL     1     -41.648  55.188 -55.811  1.00  0.00    -0.353 N 
HETATM    6  H   UNL     1     -41.593  54.623 -56.644  1.00  0.00     0.166 HD
HETATM    7  C   UNL     1     -41.340  54.788 -54.547  1.00  0.00     0.073 A 
HETATM    8  C   UNL     1     -40.896  53.589 -54.041  1.00  0.00     0.072 A 
HETATM    9  N   UNL     1     -40.608  52.385 -54.614  1.00  0.00    -0.353 N 
HETATM   10  H   UNL     1     -40.680  52.161 -55.595  1.00  0.00     0.166 HD
HETATM   11  C   UNL     1     -40.189  51.489 -53.631  1.00  0.00     0.043 A 
HETATM   12  C   UNL     1     -39.794  50.151 -53.763  1.00  0.00     0.030 A 
HETATM   13  C   UNL     1     -39.415  49.466 -52.605  1.00  0.00     0.002 A 
HETATM   14  C   UNL     1     -39.429  50.093 -51.362  1.00  0.00     0.001 A 
HETATM   15  C   UNL     1     -39.824  51.431 -51.236  1.00  0.00     0.014 A 
HETATM   16  C   UNL     1     -40.212  52.148 -52.384  1.00  0.00     0.004 A 
HETATM   17  C   UNL     1     -40.653  53.424 -52.717  1.00  0.00     0.014 A 
HETATM   18  C   UNL     1     -40.862  54.512 -51.842  1.00  0.00    -0.010 A 
HETATM   19  C   UNL     1     -40.669  54.569 -50.388  1.00  0.00     0.163 A 
HETATM   20  N   UNL     1     -41.057  55.941 -50.143  1.00  0.00    -0.353 N 
HETATM   21  C   UNL     1     -41.447  56.680 -51.256  1.00  0.00     0.253 A 
HETATM   22  O   UNL     1     -41.792  57.849 -51.147  1.00  0.00    -0.268 OA
HETATM   23  C   UNL     1     -41.323  55.761 -52.354  1.00  0.00     0.054 A 
HETATM   24  C   UNL     1     -41.559  55.871 -53.752  1.00  0.00     0.022 A 
HETATM   25  C   UNL     1     -42.006  56.985 -54.461  1.00  0.00     0.007 A 
HETATM   26  C   UNL     1     -42.382  58.319 -54.213  1.00  0.00     0.051 A 
HETATM   27  H   UNL     1     -41.061  56.381 -49.236  1.00  0.00     0.163 HD
ENDROOT
BRANCH   1  28
HETATM   28  O   UNL     1     -43.143  60.414 -54.993  1.00  0.00    -0.361 OA
HETATM   29  H   UNL     1     -43.021  60.567 -54.042  1.00  0.00     0.217 HD
ENDBRANCH   1  28
TORSDOF 2
ENDMDL
MODEL 4
REMARK VINA RESULT:      -9.2      3.421      7.544
REMARK  2 active torsions:
REMARK  status: ('A' for Active; 'I' for Inactive)
REMARK    1  A    between atoms: O_1  and  C_2 
REMARK    2  A    between atoms: C_24  and  C_25 
ROOT
HETATM    1  C   UNL     1     -45.850  59.909 -52.802  1.00  0.00     0.066 A 
HETATM    2  C   UNL     1     -45.895  59.906 -51.414  1.00  0.00     0.039 A 
HETATM    3  C   UNL     1     -45.193  58.941 -50.688  1.00  0.00     0.033 A 
HETATM    4  C   UNL     1     -44.453  57.988 -51.404  1.00  0.00     0.044 A 
HETATM    5  N   UNL     1     -43.679  56.938 -50.918  1.00  0.00    -0.353 N 
HETATM    6  H   UNL     1     -43.556  56.729 -49.940  1.00  0.00     0.166 HD
HETATM    7  C   UNL     1     -43.131  56.255 -51.961  1.00  0.00     0.073 A 
HETATM    8  C   UNL     1     -42.304  55.158 -52.013  1.00  0.00     0.072 A 
HETATM    9  N   UNL     1     -41.742  54.368 -51.052  1.00  0.00    -0.353 N 
HETATM   10  H   UNL     1     -41.855  54.473 -50.055  1.00  0.00     0.166 HD
HETATM   11  C   UNL     1     -40.974  53.374 -51.657  1.00  0.00     0.043 A 
HETATM   12  C   UNL     1     -40.224  52.350 -51.062  1.00  0.00     0.030 A 
HETATM   13  C   UNL     1     -39.536  51.473 -51.905  1.00  0.00     0.002 A 
HETATM   14  C   UNL     1     -39.593  51.612 -53.290  1.00  0.00     0.001 A 
HETATM   15  C   UNL     1     -40.345  52.637 -53.878  1.00  0.00     0.014 A 
HETATM   16  C   UNL     1     -41.049  53.537 -53.056  1.00  0.00     0.004 A 
HETATM   17  C   UNL     1     -41.878  54.645 -53.194  1.00  0.00     0.014 A 
HETATM   18  C   UNL     1     -42.298  55.256 -54.395  1.00  0.00    -0.010 A 
HETATM   19  C   UNL     1     -41.970  54.881 -55.777  1.00  0.00     0.163 A 
HETATM   20  N   UNL     1     -42.711  55.899 -56.488  1.00  0.00    -0.353 N 
HETATM   21  C   UNL     1     -43.420  56.806 -55.707  1.00  0.00     0.253 A 
HETATM   22  O   UNL     1     -44.077  57.703 -56.220  1.00  0.00    -0.268 OA
HETATM   23  C   UNL     1     -43.155  56.395 -54.355  1.00  0.00     0.054 A 
HETATM   24  C   UNL     1     -43.567  56.885 -53.086  1.00  0.00     0.022 A 
HETATM   25  C   UNL     1     -44.395  57.973 -52.815  1.00  0.00     0.007 A 
HETATM   26  C   UNL     1     -45.113  58.960 -53.516  1.00  0.00     0.051 A 
HETATM   27  H   UNL     1     -42.744  55.986 -57.493  1.00  0.00     0.163 HD
ENDROOT
BRANCH   1  28
HETATM   28  O   UNL     1     -46.532  60.848 -53.524  1.00  0.00    -0.361 OA
HETATM   29  H   UNL     1     -46.630  60.530 -54.436  1.00  0.00     0.217 HD
ENDBRANCH   1  28
TORSDOF 2
ENDMDL
MODEL 5
REMARK VINA RESULT:      -9.2      1.889      3.656
REMARK  2 active torsions:
REMARK  status: ('A' for Active; 'I' for Inactive)
REMARK    1  A    between atoms: O_1  and  C_2 
REMARK    2  A    between atoms: C_24  and  C_25 
ROOT
HETATM    1  C   UNL     1     -39.709  50.007 -51.934  1.00  0.00     0.066 A 
HETATM    2  C   UNL     1     -39.796  49.975 -50.549  1.00  0.00     0.039 A 
HETATM    3  C   UNL     1     -40.131  51.130 -49.837  1.00  0.00     0.033 A 
HETATM    4  C   UNL     1     -40.373  52.304 -50.564  1.00  0.00     0.044 A 
HETATM    5  N   UNL     1     -40.720  53.568 -50.094  1.00  0.00    -0.353 N 
HETATM    6  H   UNL     1     -40.843  53.797 -49.119  1.00  0.00     0.166 HD
HETATM    7  C   UNL     1     -40.860  54.423 -51.143  1.00  0.00     0.073 A 
HETATM    8  C   UNL     1     -41.187  55.757 -51.210  1.00  0.00     0.072 A 
HETATM    9  N   UNL     1     -41.485  56.692 -50.262  1.00  0.00    -0.353 N 
HETATM   10  H   UNL     1     -41.515  56.539 -49.265  1.00  0.00     0.166 HD
HETATM   11  C   UNL     1     -41.747  57.915 -50.879  1.00  0.00     0.043 A 
HETATM   12  C   UNL     1     -42.092  59.143 -50.299  1.00  0.00     0.030 A 
HETATM   13  C   UNL     1     -42.303  60.229 -51.152  1.00  0.00     0.002 A 
HETATM   14  C   UNL     1     -42.176  60.096 -52.532  1.00  0.00     0.001 A 
HETATM   15  C   UNL     1     -41.831  58.865 -53.106  1.00  0.00     0.014 A 
HETATM   16  C   UNL     1     -41.611  57.751 -52.273  1.00  0.00     0.004 A 
HETATM   17  C   UNL     1     -41.268  56.410 -52.396  1.00  0.00     0.014 A 
HETATM   18  C   UNL     1     -41.009  55.698 -53.587  1.00  0.00    -0.010 A 
HETATM   19  C   UNL     1     -41.036  56.187 -54.971  1.00  0.00     0.163 A 
HETATM   20  N   UNL     1     -40.686  54.969 -55.668  1.00  0.00    -0.353 N 
HETATM   21  C   UNL     1     -40.461  53.848 -54.876  1.00  0.00     0.253 A 
HETATM   22  O   UNL     1     -40.160  52.772 -55.376  1.00  0.00    -0.268 OA
HETATM   23  C   UNL     1     -40.670  54.314 -53.532  1.00  0.00     0.054 A 
HETATM   24  C   UNL     1     -40.601  53.687 -52.259  1.00  0.00     0.022 A 
HETATM   25  C   UNL     1     -40.290  52.358 -51.973  1.00  0.00     0.007 A 
HETATM   26  C   UNL     1     -39.949  51.177 -52.660  1.00  0.00     0.051 A 
HETATM   27  H   UNL     1     -40.597  54.889 -56.670  1.00  0.00     0.163 HD
ENDROOT
BRANCH   1  28
HETATM   28  O   UNL     1     -39.382  48.885 -52.642  1.00  0.00    -0.361 OA
HETATM   29  H   UNL     1     -39.902  48.139 -52.303  1.00  0.00     0.217 HD
ENDBRANCH   1  28
TORSDOF 2
ENDMDL
MODEL 6
REMARK VINA RESULT:      -9.1      2.356      3.896
REMARK  2 active torsions:
REMARK  status: ('A' for Active; 'I' for Inactive)
REMARK    1  A    between atoms: O_1  and  C_2 
REMARK    2  A    between atoms: C_24  and  C_25 
ROOT
HETATM    1  C   UNL     1     -40.412  50.649 -53.966  1.00  0.00     0.066 A 
HETATM    2  C   UNL     1     -39.544  50.510 -52.890  1.00  0.00     0.039 A 
HETATM    3  C   UNL     1     -39.353  51.568 -51.997  1.00  0.00     0.033 A 
HETATM    4  C   UNL     1     -40.061  52.757 -52.225  1.00  0.00     0.044 A 
HETATM    5  N   UNL     1     -40.045  53.938 -51.489  1.00  0.00    -0.353 N 
HETATM    6  H   UNL     1     -39.489  54.083 -50.660  1.00  0.00     0.166 HD
HETATM    7  C   UNL     1     -40.883  54.845 -52.062  1.00  0.00     0.073 A 
HETATM    8  C   UNL     1     -41.216  56.136 -51.726  1.00  0.00     0.072 A 
HETATM    9  N   UNL     1     -40.831  56.963 -50.711  1.00  0.00    -0.353 N 
HETATM   10  H   UNL     1     -40.178  56.738 -49.976  1.00  0.00     0.166 HD
HETATM   11  C   UNL     1     -41.481  58.190 -50.838  1.00  0.00     0.043 A 
HETATM   12  C   UNL     1     -41.389  59.330 -50.027  1.00  0.00     0.030 A 
HETATM   13  C   UNL     1     -42.156  60.443 -50.379  1.00  0.00     0.002 A 
HETATM   14  C   UNL     1     -42.985  60.422 -51.498  1.00  0.00     0.001 A 
HETATM   15  C   UNL     1     -43.073  59.280 -52.305  1.00  0.00     0.014 A 
HETATM   16  C   UNL     1     -42.312  58.142 -51.977  1.00  0.00     0.004 A 
HETATM   17  C   UNL     1     -42.095  56.858 -52.464  1.00  0.00     0.014 A 
HETATM   18  C   UNL     1     -42.680  56.265 -53.604  1.00  0.00    -0.010 A 
HETATM   19  C   UNL     1     -43.646  56.844 -54.545  1.00  0.00     0.163 A 
HETATM   20  N   UNL     1     -43.813  55.724 -55.445  1.00  0.00    -0.353 N 
HETATM   21  C   UNL     1     -43.077  54.582 -55.151  1.00  0.00     0.253 A 
HETATM   22  O   UNL     1     -43.153  53.583 -55.856  1.00  0.00    -0.268 OA
HETATM   23  C   UNL     1     -42.344  54.926 -53.963  1.00  0.00     0.054 A 
HETATM   24  C   UNL     1     -41.416  54.222 -53.149  1.00  0.00     0.022 A 
HETATM   25  C   UNL     1     -40.948  52.918 -53.312  1.00  0.00     0.007 A 
HETATM   26  C   UNL     1     -41.117  51.833 -54.194  1.00  0.00     0.051 A 
HETATM   27  H   UNL     1     -44.418  55.725 -56.253  1.00  0.00     0.163 HD
ENDROOT
BRANCH   1  28
HETATM   28  O   UNL     1     -40.607  49.623 -54.846  1.00  0.00    -0.361 OA
HETATM   29  H   UNL     1     -39.744  49.240 -55.075  1.00  0.00     0.217 HD
ENDBRANCH   1  28
TORSDOF 2
ENDMDL
MODEL 7
REMARK VINA RESULT:      -9.0      1.951      2.580
REMARK  2 active torsions:
REMARK  status: ('A' for Active; 'I' for Inactive)
REMARK    1  A    between atoms: O_1  and  C_2 
REMARK    2  A    between atoms: C_24  and  C_25 
ROOT
HETATM    1  C   UNL     1     -40.305  52.166 -50.993  1.00  0.00     0.066 A 
HETATM    2  C   UNL     1     -39.539  51.507 -51.945  1.00  0.00     0.039 A 
HETATM    3  C   UNL     1     -39.620  51.872 -53.292  1.00  0.00     0.033 A 
HETATM    4  C   UNL     1     -40.493  52.914 -53.639  1.00  0.00     0.044 A 
HETATM    5  N   UNL     1     -40.750  53.457 -54.895  1.00  0.00    -0.353 N 
HETATM    6  H   UNL     1     -40.313  53.144 -55.749  1.00  0.00     0.166 HD
HETATM    7  C   UNL     1     -41.668  54.455 -54.782  1.00  0.00     0.073 A 
HETATM    8  C   UNL     1     -42.246  55.288 -55.711  1.00  0.00     0.072 A 
HETATM    9  N   UNL     1     -42.110  55.412 -57.063  1.00  0.00    -0.353 N 
HETATM   10  H   UNL     1     -41.506  54.860 -57.653  1.00  0.00     0.166 HD
HETATM   11  C   UNL     1     -42.941  56.432 -57.524  1.00  0.00     0.043 A 
HETATM   12  C   UNL     1     -43.125  56.903 -58.831  1.00  0.00     0.030 A 
HETATM   13  C   UNL     1     -44.030  57.950 -59.025  1.00  0.00     0.002 A 
HETATM   14  C   UNL     1     -44.726  58.507 -57.955  1.00  0.00     0.001 A 
HETATM   15  C   UNL     1     -44.538  58.032 -56.650  1.00  0.00     0.014 A 
HETATM   16  C   UNL     1     -43.633  56.978 -56.422  1.00  0.00     0.004 A 
HETATM   17  C   UNL     1     -43.156  56.228 -55.354  1.00  0.00     0.014 A 
HETATM   18  C   UNL     1     -43.515  56.350 -53.994  1.00  0.00    -0.010 A 
HETATM   19  C   UNL     1     -44.466  57.283 -53.377  1.00  0.00     0.163 A 
HETATM   20  N   UNL     1     -44.351  56.872 -51.995  1.00  0.00    -0.353 N 
HETATM   21  C   UNL     1     -43.465  55.833 -51.732  1.00  0.00     0.253 A 
HETATM   22  O   UNL     1     -43.300  55.417 -50.593  1.00  0.00    -0.268 OA
HETATM   23  C   UNL     1     -42.923  55.492 -53.020  1.00  0.00     0.054 A 
HETATM   24  C   UNL     1     -41.976  54.527 -53.457  1.00  0.00     0.022 A 
HETATM   25  C   UNL     1     -41.281  53.596 -52.686  1.00  0.00     0.007 A 
HETATM   26  C   UNL     1     -41.175  53.204 -51.338  1.00  0.00     0.051 A 
HETATM   27  H   UNL     1     -44.863  57.286 -51.231  1.00  0.00     0.163 HD
ENDROOT
BRANCH   1  28
HETATM   28  O   UNL     1     -40.234  51.819 -49.674  1.00  0.00    -0.361 OA
HETATM   29  H   UNL     1     -39.300  51.767 -49.414  1.00  0.00     0.217 HD
ENDBRANCH   1  28
TORSDOF 2
ENDMDL
MODEL 8
REMARK VINA RESULT:      -8.7      2.743      4.287
REMARK  2 active torsions:
REMARK  status: ('A' for Active; 'I' for Inactive)
REMARK    1  A    between atoms: O_1  and  C_2 
REMARK    2  A    between atoms: C_24  and  C_25 
ROOT
HETATM    1  C   UNL     1     -39.794  51.966 -52.548  1.00  0.00     0.066 A 
HETATM    2  C   UNL     1     -39.893  51.810 -51.172  1.00  0.00     0.039 A 
HETATM    3  C   UNL     1     -40.673  52.690 -50.417  1.00  0.00     0.033 A 
HETATM    4  C   UNL     1     -41.341  53.722 -51.092  1.00  0.00     0.044 A 
HETATM    5  N   UNL     1     -42.169  54.713 -50.573  1.00  0.00    -0.353 N 
HETATM    6  H   UNL     1     -42.395  54.810 -49.595  1.00  0.00     0.166 HD
HETATM    7  C   UNL     1     -42.611  55.514 -51.582  1.00  0.00     0.073 A 
HETATM    8  C   UNL     1     -43.436  56.613 -51.595  1.00  0.00     0.072 A 
HETATM    9  N   UNL     1     -44.100  57.291 -50.614  1.00  0.00    -0.353 N 
HETATM   10  H   UNL     1     -44.090  57.072 -49.629  1.00  0.00     0.166 HD
HETATM   11  C   UNL     1     -44.809  58.351 -51.178  1.00  0.00     0.043 A 
HETATM   12  C   UNL     1     -45.623  59.304 -50.552  1.00  0.00     0.030 A 
HETATM   13  C   UNL     1     -46.227  60.275 -51.356  1.00  0.00     0.002 A 
HETATM   14  C   UNL     1     -46.025  60.294 -52.734  1.00  0.00     0.001 A 
HETATM   15  C   UNL     1     -45.210  59.339 -53.354  1.00  0.00     0.014 A 
HETATM   16  C   UNL     1     -44.587  58.348 -52.571  1.00  0.00     0.004 A 
HETATM   17  C   UNL     1     -43.741  57.259 -52.747  1.00  0.00     0.014 A 
HETATM   18  C   UNL     1     -43.195  56.788 -53.961  1.00  0.00    -0.010 A 
HETATM   19  C   UNL     1     -43.381  57.318 -55.317  1.00  0.00     0.163 A 
HETATM   20  N   UNL     1     -42.562  56.385 -56.059  1.00  0.00    -0.353 N 
HETATM   21  C   UNL     1     -41.932  55.391 -55.317  1.00  0.00     0.253 A 
HETATM   22  O   UNL     1     -41.219  54.556 -55.858  1.00  0.00    -0.268 OA
HETATM   23  C   UNL     1     -42.338  55.647 -53.962  1.00  0.00     0.054 A 
HETATM   24  C   UNL     1     -42.057  55.014 -52.721  1.00  0.00     0.022 A 
HETATM   25  C   UNL     1     -41.253  53.897 -52.491  1.00  0.00     0.007 A 
HETATM   26  C   UNL     1     -40.459  52.993 -53.222  1.00  0.00     0.051 A 
HETATM   27  H   UNL     1     -42.426  56.413 -57.058  1.00  0.00     0.163 HD
ENDROOT
BRANCH   1  28
HETATM   28  O   UNL     1     -39.034  51.113 -53.297  1.00  0.00    -0.361 OA
HETATM   29  H   UNL     1     -39.540  50.853 -54.084  1.00  0.00     0.217 HD
ENDBRANCH   1  28
TORSDOF 2
ENDMDL
MODEL 9
REMARK VINA RESULT:      -8.7      2.362      4.200
REMARK  2 active torsions:
REMARK  status: ('A' for Active; 'I' for Inactive)
REMARK    1  A    between atoms: O_1  and  C_2 
REMARK    2  A    between atoms: C_24  and  C_25 
ROOT
HETATM    1  C   UNL     1     -40.044  51.901 -52.624  1.00  0.00     0.066 A 
HETATM    2  C   UNL     1     -39.827  51.852 -51.254  1.00  0.00     0.039 A 
HETATM    3  C   UNL     1     -40.080  52.974 -50.460  1.00  0.00     0.033 A 
HETATM    4  C   UNL     1     -40.553  54.134 -51.091  1.00  0.00     0.044 A 
HETATM    5  N   UNL     1     -40.877  55.365 -50.529  1.00  0.00    -0.353 N 
HETATM    6  H   UNL     1     -40.802  55.577 -49.546  1.00  0.00     0.166 HD
HETATM    7  C   UNL     1     -41.299  56.216 -51.504  1.00  0.00     0.073 A 
HETATM    8  C   UNL     1     -41.724  57.523 -51.469  1.00  0.00     0.072 A 
HETATM    9  N   UNL     1     -41.874  58.427 -50.458  1.00  0.00    -0.353 N 
HETATM   10  H   UNL     1     -41.677  58.265 -49.481  1.00  0.00     0.166 HD
HETATM   11  C   UNL     1     -42.346  59.632 -50.976  1.00  0.00     0.043 A 
HETATM   12  C   UNL     1     -42.642  60.828 -50.308  1.00  0.00     0.030 A 
HETATM   13  C   UNL     1     -43.107  61.903 -51.071  1.00  0.00     0.002 A 
HETATM   14  C   UNL     1     -43.271  61.789 -52.449  1.00  0.00     0.001 A 
HETATM   15  C   UNL     1     -42.974  60.591 -53.111  1.00  0.00     0.014 A 
HETATM   16  C   UNL     1     -42.504  59.490 -52.370  1.00  0.00     0.004 A 
HETATM   17  C   UNL     1     -42.104  58.177 -52.594  1.00  0.00     0.014 A 
HETATM   18  C   UNL     1     -42.060  57.495 -53.829  1.00  0.00    -0.010 A 
HETATM   19  C   UNL     1     -42.418  57.991 -55.164  1.00  0.00     0.163 A 
HETATM   20  N   UNL     1     -42.143  56.807 -55.947  1.00  0.00    -0.353 N 
HETATM   21  C   UNL     1     -41.676  55.699 -55.248  1.00  0.00     0.253 A 
HETATM   22  O   UNL     1     -41.416  54.651 -55.825  1.00  0.00    -0.268 OA
HETATM   23  C   UNL     1     -41.621  56.138 -53.880  1.00  0.00     0.054 A 
HETATM   24  C   UNL     1     -41.236  55.508 -52.666  1.00  0.00     0.022 A 
HETATM   25  C   UNL     1     -40.780  54.203 -52.484  1.00  0.00     0.007 A 
HETATM   26  C   UNL     1     -40.515  53.055 -53.255  1.00  0.00     0.051 A 
HETATM   27  H   UNL     1     -42.267  56.740 -56.946  1.00  0.00     0.163 HD
ENDROOT
BRANCH   1  28
HETATM   28  O   UNL     1     -39.801  50.811 -53.411  1.00  0.00    -0.361 OA
HETATM   29  H   UNL     1     -40.594  50.623 -53.939  1.00  0.00     0.217 HD
ENDBRANCH   1  28
TORSDOF 2
ENDMDL
MODEL 10
REMARK VINA RESULT:      -8.6      2.948      4.641
REMARK  2 active torsions:
REMARK  status: ('A' for Active; 'I' for Inactive)
REMARK    1  A    between atoms: O_1  and  C_2 
REMARK    2  A    between atoms: C_24  and  C_25 
ROOT
HETATM    1  C   UNL     1     -41.570  55.633 -50.063  1.00  0.00     0.066 A 
HETATM    2  C   UNL     1     -41.862  54.282 -50.203  1.00  0.00     0.039 A 
HETATM    3  C   UNL     1     -42.241  53.768 -51.445  1.00  0.00     0.033 A 
HETATM    4  C   UNL     1     -42.314  54.654 -52.530  1.00  0.00     0.044 A 
HETATM    5  N   UNL     1     -42.661  54.391 -53.852  1.00  0.00    -0.353 N 
HETATM    6  H   UNL     1     -42.915  53.480 -54.201  1.00  0.00     0.166 HD
HETATM    7  C   UNL     1     -42.602  55.541 -54.577  1.00  0.00     0.073 A 
HETATM    8  C   UNL     1     -42.848  55.810 -55.903  1.00  0.00     0.072 A 
HETATM    9  N   UNL     1     -43.234  55.033 -56.956  1.00  0.00    -0.353 N 
HETATM   10  H   UNL     1     -43.419  54.041 -56.926  1.00  0.00     0.166 HD
HETATM   11  C   UNL     1     -43.339  55.819 -58.103  1.00  0.00     0.043 A 
HETATM   12  C   UNL     1     -43.703  55.444 -59.403  1.00  0.00     0.030 A 
HETATM   13  C   UNL     1     -43.731  56.439 -60.384  1.00  0.00     0.002 A 
HETATM   14  C   UNL     1     -43.408  57.759 -60.079  1.00  0.00     0.001 A 
HETATM   15  C   UNL     1     -43.045  58.128 -58.778  1.00  0.00     0.014 A 
HETATM   16  C   UNL     1     -43.007  57.148 -57.767  1.00  0.00     0.004 A 
HETATM   17  C   UNL     1     -42.720  57.062 -56.409  1.00  0.00     0.014 A 
HETATM   18  C   UNL     1     -42.325  58.110 -55.550  1.00  0.00    -0.010 A 
HETATM   19  C   UNL     1     -42.122  59.529 -55.868  1.00  0.00     0.163 A 
HETATM   20  N   UNL     1     -41.735  60.019 -54.563  1.00  0.00    -0.353 N 
HETATM   21  C   UNL     1     -41.687  59.078 -53.540  1.00  0.00     0.253 A 
HETATM   22  O   UNL     1     -41.369  59.399 -52.402  1.00  0.00    -0.268 OA
HETATM   23  C   UNL     1     -42.066  57.844 -54.172  1.00  0.00     0.054 A 
HETATM   24  C   UNL     1     -42.218  56.512 -53.703  1.00  0.00     0.022 A 
HETATM   25  C   UNL     1     -42.021  56.030 -52.409  1.00  0.00     0.007 A 
HETATM   26  C   UNL     1     -41.643  56.517 -51.143  1.00  0.00     0.051 A 
HETATM   27  H   UNL     1     -41.504  60.980 -54.359  1.00  0.00     0.163 HD
ENDROOT
BRANCH   1  28
HETATM   28  O   UNL     1     -41.199  56.148 -48.854  1.00  0.00    -0.361 OA
HETATM   29  H   UNL     1     -40.806  57.025 -48.995  1.00  0.00     0.217 HD
ENDBRANCH   1  28
TORSDOF 2
ENDMDL
