MODEL 1
REMARK VINA RESULT:      -8.8      0.000      0.000
REMARK  9 active torsions:
REMARK  status: ('A' for Active; 'I' for Inactive)
REMARK    1  A    between atoms: C_4  and  C_5 
REMARK    2  A    between atoms: C_5  and  N_6 
REMARK    3  A    between atoms: C_12  and  N_13 
REMARK       I    between atoms: N_13  and  C_14 
REMARK    4  A    between atoms: N_13  and  C_27 
REMARK    5  A    between atoms: C_14  and  C_15 
REMARK    6  A    between atoms: C_15  and  C_16 
REMARK    7  A    between atoms: C_27  and  C_28 
REMARK    8  A    between atoms: C_28  and  C_29 
REMARK    9  A    between atoms: C_35  and  N_36 
ROOT
HETATM    1  N   UNL     1     -42.874  56.454 -56.625  1.00  0.00    -0.310 N 
HETATM    2  C   UNL     1     -43.104  55.773 -57.838  1.00  0.00     0.228 C 
HETATM    3  O   UNL     1     -43.634  54.653 -57.884  1.00  0.00    -0.273 OA
ENDROOT
BRANCH   1   4
HETATM    4  C   UNL     1     -42.801  55.693 -55.412  1.00  0.00     0.144 C 
HETATM    5  C   UNL     1     -43.970  55.790 -54.462  1.00  0.00     0.279 C 
HETATM    6  N   UNL     1     -44.106  54.776 -53.575  1.00  0.00    -0.273 N 
HETATM    7  O   UNL     1     -44.764  56.728 -54.466  1.00  0.00    -0.265 OA
HETATM    8  C   UNL     1     -43.001  54.292 -52.959  1.00  0.00     0.331 C 
HETATM    9  H   UNL     1     -44.887  54.876 -52.943  1.00  0.00     0.173 HD
HETATM   10  N   UNL     1     -41.825  54.348 -53.693  1.00  0.00    -0.284 N 
HETATM   11  O   UNL     1     -43.094  53.887 -51.802  1.00  0.00    -0.246 OA
HETATM   12  C   UNL     1     -41.765  54.916 -54.976  1.00  0.00     0.117 C 
BRANCH  10  13
HETATM   13  C   UNL     1     -40.610  53.934 -52.986  1.00  0.00     0.173 C 
BRANCH  13  14
HETATM   14  C   UNL     1     -40.261  52.462 -53.016  1.00  0.00    -0.040 A 
HETATM   15  C   UNL     1     -40.380  51.658 -54.156  1.00  0.00     0.009 A 
HETATM   16  C   UNL     1     -40.060  50.298 -54.103  1.00  0.00     0.001 A 
HETATM   17  C   UNL     1     -39.619  49.725 -52.912  1.00  0.00     0.000 A 
HETATM   18  C   UNL     1     -39.499  50.508 -51.768  1.00  0.00     0.001 A 
HETATM   19  C   UNL     1     -39.818  51.866 -51.821  1.00  0.00     0.009 A 
ENDBRANCH  13  14
ENDBRANCH  10  13
BRANCH  12  20
HETATM   20  N   UNL     1     -40.670  54.650 -55.789  1.00  0.00    -0.286 NA
HETATM   21  H   UNL     1     -40.374  53.673 -55.680  1.00  0.00     0.125 HD
HETATM   22  H   UNL     1     -40.812  54.852 -56.770  1.00  0.00     0.125 HD
ENDBRANCH  12  20
ENDBRANCH   1   4
BRANCH   1  23
HETATM   23  C   UNL     1     -42.302  57.828 -56.541  1.00  0.00     0.137 C 
BRANCH  23  24
HETATM   24  C   UNL     1     -43.200  59.090 -56.530  1.00  0.00     0.054 C 
BRANCH  24  25
HETATM   25  C   UNL     1     -42.854  60.364 -57.261  1.00  0.00    -0.082 C 
HETATM   26  C   UNL     1     -41.360  60.551 -57.468  1.00  0.00     0.034 C 
HETATM   27  C   UNL     1     -40.990  61.679 -58.428  1.00  0.00     0.005 C 
HETATM   28  C   UNL     1     -41.848  62.910 -58.174  1.00  0.00     0.004 C 
HETATM   29  C   UNL     1     -43.332  62.582 -58.339  1.00  0.00     0.027 C 
HETATM   30  C   UNL     1     -43.733  61.291 -57.679  1.00  0.00    -0.024 C 
ENDBRANCH  24  25
ENDBRANCH  23  24
ENDBRANCH   1  23
BRANCH   2  31
HETATM   31  C   UNL     1     -42.654  56.407 -59.148  1.00  0.00     0.144 C 
BRANCH  31  32
HETATM   32  C   UNL     1     -43.641  57.402 -59.677  1.00  0.00    -0.021 A 
HETATM   33  C   UNL     1     -43.325  58.598 -60.401  1.00  0.00    -0.001 A 
HETATM   34  C   UNL     1     -44.520  59.284 -60.615  1.00  0.00     0.042 A 
HETATM   35  C   UNL     1     -42.128  59.170 -60.877  1.00  0.00     0.014 A 
HETATM   36  C   UNL     1     -44.574  60.522 -61.268  1.00  0.00     0.030 A 
HETATM   37  N   UNL     1     -45.527  58.520 -60.075  1.00  0.00    -0.365 N 
HETATM   38  C   UNL     1     -43.371  61.069 -61.724  1.00  0.00     0.002 A 
HETATM   39  C   UNL     1     -42.163  60.402 -61.537  1.00  0.00     0.001 A 
HETATM   40  H   UNL     1     -46.506  58.773 -60.089  1.00  0.00     0.165 HD
HETATM   41  C   UNL     1     -45.011  57.390 -59.501  1.00  0.00     0.097 A 
ENDBRANCH  31  32
ENDBRANCH   2  31
TORSDOF 9
ENDMDL
MODEL 2
REMARK VINA RESULT:      -8.5      2.718      4.129
REMARK  9 active torsions:
REMARK  status: ('A' for Active; 'I' for Inactive)
REMARK    1  A    between atoms: C_4  and  C_5 
REMARK    2  A    between atoms: C_5  and  N_6 
REMARK    3  A    between atoms: C_12  and  N_13 
REMARK       I    between atoms: N_13  and  C_14 
REMARK    4  A    between atoms: N_13  and  C_27 
REMARK    5  A    between atoms: C_14  and  C_15 
REMARK    6  A    between atoms: C_15  and  C_16 
REMARK    7  A    between atoms: C_27  and  C_28 
REMARK    8  A    between atoms: C_28  and  C_29 
REMARK    9  A    between atoms: C_35  and  N_36 
ROOT
HETATM    1  N   UNL     1     -42.514  58.943 -54.215  1.00  0.00    -0.310 N 
HETATM    2  C   UNL     1     -43.578  59.864 -54.129  1.00  0.00     0.228 C 
HETATM    3  O   UNL     1     -44.017  60.277 -53.046  1.00  0.00    -0.273 OA
ENDROOT
BRANCH   1   4
HETATM    4  C   UNL     1     -42.236  58.106 -53.084  1.00  0.00     0.144 C 
HETATM    5  C   UNL     1     -41.094  58.513 -52.185  1.00  0.00     0.279 C 
HETATM    6  N   UNL     1     -41.113  58.009 -50.929  1.00  0.00    -0.273 N 
HETATM    7  O   UNL     1     -40.183  59.253 -52.548  1.00  0.00    -0.265 OA
HETATM    8  C   UNL     1     -41.450  56.708 -50.750  1.00  0.00     0.331 C 
HETATM    9  H   UNL     1     -40.329  58.286 -50.356  1.00  0.00     0.173 HD
HETATM   10  N   UNL     1     -42.353  56.187 -51.664  1.00  0.00    -0.284 N 
HETATM   11  O   UNL     1     -40.915  56.075 -49.843  1.00  0.00    -0.246 OA
HETATM   12  C   UNL     1     -42.853  56.937 -52.740  1.00  0.00     0.117 C 
BRANCH  10  13
HETATM   13  C   UNL     1     -42.628  54.752 -51.542  1.00  0.00     0.173 C 
BRANCH  13  14
HETATM   14  C   UNL     1     -41.694  53.806 -52.265  1.00  0.00    -0.040 A 
HETATM   15  C   UNL     1     -41.739  53.573 -53.645  1.00  0.00     0.009 A 
HETATM   16  C   UNL     1     -40.857  52.666 -54.241  1.00  0.00     0.001 A 
HETATM   17  C   UNL     1     -39.923  51.981 -53.467  1.00  0.00     0.000 A 
HETATM   18  C   UNL     1     -39.867  52.198 -52.094  1.00  0.00     0.001 A 
HETATM   19  C   UNL     1     -40.747  53.104 -51.498  1.00  0.00     0.009 A 
ENDBRANCH  13  14
ENDBRANCH  10  13
BRANCH  12  20
HETATM   20  N   UNL     1     -43.985  56.493 -53.413  1.00  0.00    -0.286 NA
HETATM   21  H   UNL     1     -44.831  56.717 -52.874  1.00  0.00     0.125 HD
HETATM   22  H   UNL     1     -44.084  56.846 -54.356  1.00  0.00     0.125 HD
ENDBRANCH  12  20
ENDBRANCH   1   4
BRANCH   1  23
HETATM   23  C   UNL     1     -41.919  58.481 -55.501  1.00  0.00     0.137 C 
BRANCH  23  24
HETATM   24  C   UNL     1     -42.299  57.123 -56.140  1.00  0.00     0.054 C 
BRANCH  24  25
HETATM   25  C   UNL     1     -42.577  56.944 -57.612  1.00  0.00    -0.082 C 
HETATM   26  C   UNL     1     -42.019  58.068 -58.469  1.00  0.00     0.034 C 
HETATM   27  C   UNL     1     -42.044  57.790 -59.971  1.00  0.00     0.005 C 
HETATM   28  C   UNL     1     -43.360  57.149 -60.382  1.00  0.00     0.004 C 
HETATM   29  C   UNL     1     -43.583  55.837 -59.629  1.00  0.00     0.027 C 
HETATM   30  C   UNL     1     -43.270  55.932 -58.161  1.00  0.00    -0.024 C 
ENDBRANCH  24  25
ENDBRANCH  23  24
ENDBRANCH   1  23
BRANCH   2  31
HETATM   31  C   UNL     1     -44.250  60.351 -55.407  1.00  0.00     0.144 C 
BRANCH  31  32
HETATM   32  C   UNL     1     -45.109  59.302 -56.044  1.00  0.00    -0.021 A 
HETATM   33  C   UNL     1     -45.477  59.242 -57.428  1.00  0.00    -0.001 A 
HETATM   34  C   UNL     1     -46.361  58.174 -57.579  1.00  0.00     0.042 A 
HETATM   35  C   UNL     1     -45.156  60.014 -58.563  1.00  0.00     0.014 A 
HETATM   36  C   UNL     1     -46.951  57.849 -58.807  1.00  0.00     0.030 A 
HETATM   37  N   UNL     1     -46.496  57.585 -56.344  1.00  0.00    -0.365 N 
HETATM   38  C   UNL     1     -46.619  58.635 -59.914  1.00  0.00     0.002 A 
HETATM   39  C   UNL     1     -45.730  59.699 -59.799  1.00  0.00     0.001 A 
HETATM   40  H   UNL     1     -47.077  56.779 -56.157  1.00  0.00     0.165 HD
HETATM   41  C   UNL     1     -45.755  58.258 -55.411  1.00  0.00     0.097 A 
ENDBRANCH  31  32
ENDBRANCH   2  31
TORSDOF 9
ENDMDL
MODEL 3
REMARK VINA RESULT:      -8.3      3.009      8.645
REMARK  9 active torsions:
REMARK  status: ('A' for Active; 'I' for Inactive)
REMARK    1  A    between atoms: C_4  and  C_5 
REMARK    2  A    between atoms: C_5  and  N_6 
REMARK    3  A    between atoms: C_12  and  N_13 
REMARK       I    between atoms: N_13  and  C_14 
REMARK    4  A    between atoms: N_13  and  C_27 
REMARK    5  A    between atoms: C_14  and  C_15 
REMARK    6  A    between atoms: C_15  and  C_16 
REMARK    7  A    between atoms: C_27  and  C_28 
REMARK    8  A    between atoms: C_28  and  C_29 
REMARK    9  A    between atoms: C_35  and  N_36 
ROOT
HETATM    1  N   UNL     1     -42.549  56.679 -55.306  1.00  0.00    -0.310 N 
HETATM    2  C   UNL     1     -43.726  56.776 -54.535  1.00  0.00     0.228 C 
HETATM    3  O   UNL     1     -44.802  57.170 -55.008  1.00  0.00    -0.273 OA
ENDROOT
BRANCH   1   4
HETATM    4  C   UNL     1     -42.439  57.471 -56.497  1.00  0.00     0.144 C 
HETATM    5  C   UNL     1     -42.283  58.962 -56.325  1.00  0.00     0.279 C 
HETATM    6  N   UNL     1     -41.750  59.632 -57.373  1.00  0.00    -0.273 N 
HETATM    7  O   UNL     1     -42.619  59.561 -55.306  1.00  0.00    -0.265 OA
HETATM    8  C   UNL     1     -42.152  59.313 -58.628  1.00  0.00     0.331 C 
HETATM    9  H   UNL     1     -41.672  60.630 -57.235  1.00  0.00     0.173 HD
HETATM   10  N   UNL     1     -42.511  57.989 -58.829  1.00  0.00    -0.284 N 
HETATM   11  O   UNL     1     -42.216  60.201 -59.475  1.00  0.00    -0.246 OA
HETATM   12  C   UNL     1     -42.511  57.043 -57.792  1.00  0.00     0.117 C 
BRANCH  10  13
HETATM   13  C   UNL     1     -43.056  57.669 -60.151  1.00  0.00     0.173 C 
BRANCH  13  14
HETATM   14  C   UNL     1     -44.532  57.342 -60.230  1.00  0.00    -0.040 A 
HETATM   15  C   UNL     1     -45.547  58.253 -59.912  1.00  0.00     0.009 A 
HETATM   16  C   UNL     1     -46.890  57.873 -59.987  1.00  0.00     0.001 A 
HETATM   17  C   UNL     1     -47.236  56.581 -60.379  1.00  0.00     0.000 A 
HETATM   18  C   UNL     1     -46.239  55.663 -60.695  1.00  0.00     0.001 A 
HETATM   19  C   UNL     1     -44.898  56.041 -60.621  1.00  0.00     0.009 A 
ENDBRANCH  13  14
ENDBRANCH  10  13
BRANCH  12  20
HETATM   20  N   UNL     1     -42.549  55.689 -58.103  1.00  0.00    -0.286 NA
HETATM   21  H   UNL     1     -43.190  55.521 -58.888  1.00  0.00     0.125 HD
HETATM   22  H   UNL     1     -41.649  55.276 -58.309  1.00  0.00     0.125 HD
ENDBRANCH  12  20
ENDBRANCH   1   4
BRANCH   1  23
HETATM   23  C   UNL     1     -41.259  56.144 -54.785  1.00  0.00     0.137 C 
BRANCH  23  24
HETATM   24  C   UNL     1     -40.793  54.697 -55.080  1.00  0.00     0.054 C 
BRANCH  24  25
HETATM   25  C   UNL     1     -40.521  53.674 -54.005  1.00  0.00    -0.082 C 
HETATM   26  C   UNL     1     -40.766  54.200 -52.600  1.00  0.00     0.034 C 
HETATM   27  C   UNL     1     -40.761  53.127 -51.514  1.00  0.00     0.005 C 
HETATM   28  C   UNL     1     -39.624  52.140 -51.731  1.00  0.00     0.004 C 
HETATM   29  C   UNL     1     -39.746  51.464 -53.097  1.00  0.00     0.027 C 
HETATM   30  C   UNL     1     -40.073  52.424 -54.209  1.00  0.00    -0.024 C 
ENDBRANCH  24  25
ENDBRANCH  23  24
ENDBRANCH   1  23
BRANCH   2  31
HETATM   31  C   UNL     1     -43.681  56.421 -53.054  1.00  0.00     0.144 C 
BRANCH  31  32
HETATM   32  C   UNL     1     -43.574  57.630 -52.175  1.00  0.00    -0.021 A 
HETATM   33  C   UNL     1     -42.357  58.234 -51.719  1.00  0.00    -0.001 A 
HETATM   34  C   UNL     1     -42.704  59.264 -50.846  1.00  0.00     0.042 A 
HETATM   35  C   UNL     1     -40.989  57.984 -51.954  1.00  0.00     0.014 A 
HETATM   36  C   UNL     1     -41.750  60.048 -50.184  1.00  0.00     0.030 A 
HETATM   37  N   UNL     1     -44.077  59.310 -50.800  1.00  0.00    -0.365 N 
HETATM   38  C   UNL     1     -40.401  59.774 -50.431  1.00  0.00     0.002 A 
HETATM   39  C   UNL     1     -40.023  58.761 -51.307  1.00  0.00     0.001 A 
HETATM   40  H   UNL     1     -44.608  59.968 -50.246  1.00  0.00     0.165 HD
HETATM   41  C   UNL     1     -44.612  58.326 -51.589  1.00  0.00     0.097 A 
ENDBRANCH  31  32
ENDBRANCH   2  31
TORSDOF 9
ENDMDL
MODEL 4
REMARK VINA RESULT:      -8.2      2.381      3.236
REMARK  9 active torsions:
REMARK  status: ('A' for Active; 'I' for Inactive)
REMARK    1  A    between atoms: C_4  and  C_5 
REMARK    2  A    between atoms: C_5  and  N_6 
REMARK    3  A    between atoms: C_12  and  N_13 
REMARK       I    between atoms: N_13  and  C_14 
REMARK    4  A    between atoms: N_13  and  C_27 
REMARK    5  A    between atoms: C_14  and  C_15 
REMARK    6  A    between atoms: C_15  and  C_16 
REMARK    7  A    between atoms: C_27  and  C_28 
REMARK    8  A    between atoms: C_28  and  C_29 
REMARK    9  A    between atoms: C_35  and  N_36 
ROOT
HETATM    1  N   UNL     1     -42.511  57.291 -55.742  1.00  0.00    -0.310 N 
HETATM    2  C   UNL     1     -42.739  56.929 -57.086  1.00  0.00     0.228 C 
HETATM    3  O   UNL     1     -43.350  55.898 -57.403  1.00  0.00    -0.273 OA
ENDROOT
BRANCH   1   4
HETATM    4  C   UNL     1     -42.546  56.268 -54.738  1.00  0.00     0.144 C 
HETATM    5  C   UNL     1     -43.811  56.140 -53.925  1.00  0.00     0.279 C 
HETATM    6  N   UNL     1     -44.012  54.947 -53.317  1.00  0.00    -0.273 N 
HETATM    7  O   UNL     1     -44.625  57.051 -53.797  1.00  0.00    -0.265 OA
HETATM    8  C   UNL     1     -42.965  54.334 -52.713  1.00  0.00     0.331 C 
HETATM    9  H   UNL     1     -44.858  54.896 -52.768  1.00  0.00     0.173 HD
HETATM   10  N   UNL     1     -41.721  54.562 -53.282  1.00  0.00    -0.284 N 
HETATM   11  O   UNL     1     -43.169  53.670 -51.699  1.00  0.00    -0.246 OA
HETATM   12  C   UNL     1     -41.541  55.413 -54.383  1.00  0.00     0.117 C 
BRANCH  10  13
HETATM   13  C   UNL     1     -40.576  53.996 -52.562  1.00  0.00     0.173 C 
BRANCH  13  14
HETATM   14  C   UNL     1     -40.250  52.541 -52.819  1.00  0.00    -0.040 A 
HETATM   15  C   UNL     1     -40.383  51.923 -54.069  1.00  0.00     0.009 A 
HETATM   16  C   UNL     1     -40.083  50.567 -54.226  1.00  0.00     0.001 A 
HETATM   17  C   UNL     1     -39.648  49.811 -53.139  1.00  0.00     0.000 A 
HETATM   18  C   UNL     1     -39.514  50.408 -51.889  1.00  0.00     0.001 A 
HETATM   19  C   UNL     1     -39.812  51.763 -51.731  1.00  0.00     0.009 A 
ENDBRANCH  13  14
ENDBRANCH  10  13
BRANCH  12  20
HETATM   20  N   UNL     1     -40.360  55.346 -55.112  1.00  0.00    -0.286 NA
HETATM   21  H   UNL     1     -40.405  54.580 -55.796  1.00  0.00     0.125 HD
HETATM   22  H   UNL     1     -40.103  56.204 -55.584  1.00  0.00     0.125 HD
ENDBRANCH  12  20
ENDBRANCH   1   4
BRANCH   1  23
HETATM   23  C   UNL     1     -41.842  58.558 -55.328  1.00  0.00     0.137 C 
BRANCH  23  24
HETATM   24  C   UNL     1     -42.446  59.488 -54.247  1.00  0.00     0.054 C 
BRANCH  24  25
HETATM   25  C   UNL     1     -41.885  59.618 -52.853  1.00  0.00    -0.082 C 
HETATM   26  C   UNL     1     -40.633  58.784 -52.629  1.00  0.00     0.034 C 
HETATM   27  C   UNL     1     -39.891  59.094 -51.330  1.00  0.00     0.005 C 
HETATM   28  C   UNL     1     -40.867  59.264 -50.175  1.00  0.00     0.004 C 
HETATM   29  C   UNL     1     -41.858  60.392 -50.463  1.00  0.00     0.027 C 
HETATM   30  C   UNL     1     -42.415  60.353 -51.860  1.00  0.00    -0.024 C 
ENDBRANCH  24  25
ENDBRANCH  23  24
ENDBRANCH   1  23
BRANCH   2  31
HETATM   31  C   UNL     1     -42.189  57.808 -58.201  1.00  0.00     0.144 C 
BRANCH  31  32
HETATM   32  C   UNL     1     -43.264  58.349 -59.094  1.00  0.00    -0.021 A 
HETATM   33  C   UNL     1     -44.191  59.390 -58.759  1.00  0.00    -0.001 A 
HETATM   34  C   UNL     1     -45.081  59.515 -59.825  1.00  0.00     0.042 A 
HETATM   35  C   UNL     1     -44.368  60.223 -57.635  1.00  0.00     0.014 A 
HETATM   36  C   UNL     1     -46.148  60.422 -59.817  1.00  0.00     0.030 A 
HETATM   37  N   UNL     1     -44.689  58.613 -60.786  1.00  0.00    -0.365 N 
HETATM   38  C   UNL     1     -46.303  61.231 -58.688  1.00  0.00     0.002 A 
HETATM   39  C   UNL     1     -45.424  61.140 -57.613  1.00  0.00     0.001 A 
HETATM   40  H   UNL     1     -45.154  58.488 -61.675  1.00  0.00     0.165 HD
HETATM   41  C   UNL     1     -43.603  57.900 -60.355  1.00  0.00     0.097 A 
ENDBRANCH  31  32
ENDBRANCH   2  31
TORSDOF 9
ENDMDL
MODEL 5
REMARK VINA RESULT:      -8.0      3.036      4.245
REMARK  9 active torsions:
REMARK  status: ('A' for Active; 'I' for Inactive)
REMARK    1  A    between atoms: C_4  and  C_5 
REMARK    2  A    between atoms: C_5  and  N_6 
REMARK    3  A    between atoms: C_12  and  N_13 
REMARK       I    between atoms: N_13  and  C_14 
REMARK    4  A    between atoms: N_13  and  C_27 
REMARK    5  A    between atoms: C_14  and  C_15 
REMARK    6  A    between atoms: C_15  and  C_16 
REMARK    7  A    between atoms: C_27  and  C_28 
REMARK    8  A    between atoms: C_28  and  C_29 
REMARK    9  A    between atoms: C_35  and  N_36 
ROOT
HETATM    1  N   UNL     1     -42.968  57.929 -54.932  1.00  0.00    -0.310 N 
HETATM    2  C   UNL     1     -42.517  57.369 -56.145  1.00  0.00     0.228 C 
HETATM    3  O   UNL     1     -42.054  56.220 -56.217  1.00  0.00    -0.273 OA
ENDROOT
BRANCH   1   4
HETATM    4  C   UNL     1     -42.472  57.391 -53.699  1.00  0.00     0.144 C 
HETATM    5  C   UNL     1     -41.327  58.119 -53.037  1.00  0.00     0.279 C 
HETATM    6  N   UNL     1     -41.160  57.894 -51.713  1.00  0.00    -0.273 N 
HETATM    7  O   UNL     1     -40.568  58.873 -53.643  1.00  0.00    -0.265 OA
HETATM    8  C   UNL     1     -41.287  56.629 -51.242  1.00  0.00     0.331 C 
HETATM    9  H   UNL     1     -40.378  58.381 -51.302  1.00  0.00     0.173 HD
HETATM   10  N   UNL     1     -42.182  55.818 -51.924  1.00  0.00    -0.284 N 
HETATM   11  O   UNL     1     -40.587  56.273 -50.297  1.00  0.00    -0.246 OA
HETATM   12  C   UNL     1     -42.879  56.254 -53.061  1.00  0.00     0.117 C 
BRANCH  10  13
HETATM   13  C   UNL     1     -42.234  54.418 -51.489  1.00  0.00     0.173 C 
BRANCH  13  14
HETATM   14  C   UNL     1     -41.291  53.449 -52.169  1.00  0.00    -0.040 A 
HETATM   15  C   UNL     1     -41.293  53.201 -53.547  1.00  0.00     0.009 A 
HETATM   16  C   UNL     1     -40.406  52.273 -54.102  1.00  0.00     0.001 A 
HETATM   17  C   UNL     1     -39.510  51.582 -53.290  1.00  0.00     0.000 A 
HETATM   18  C   UNL     1     -39.498  51.814 -51.918  1.00  0.00     0.001 A 
HETATM   19  C   UNL     1     -40.382  52.741 -51.362  1.00  0.00     0.009 A 
ENDBRANCH  13  14
ENDBRANCH  10  13
BRANCH  12  20
HETATM   20  N   UNL     1     -43.990  55.541 -53.497  1.00  0.00    -0.286 NA
HETATM   21  H   UNL     1     -43.781  54.535 -53.520  1.00  0.00     0.125 HD
HETATM   22  H   UNL     1     -44.832  55.699 -52.960  1.00  0.00     0.125 HD
ENDBRANCH  12  20
ENDBRANCH   1   4
BRANCH   1  23
HETATM   23  C   UNL     1     -43.592  59.279 -54.825  1.00  0.00     0.137 C 
BRANCH  23  24
HETATM   24  C   UNL     1     -45.052  59.471 -54.348  1.00  0.00     0.054 C 
BRANCH  24  25
HETATM   25  C   UNL     1     -45.424  59.830 -52.931  1.00  0.00    -0.082 C 
HETATM   26  C   UNL     1     -46.007  61.228 -52.799  1.00  0.00     0.034 C 
HETATM   27  C   UNL     1     -46.638  61.524 -51.440  1.00  0.00     0.005 C 
HETATM   28  C   UNL     1     -45.770  60.991 -50.310  1.00  0.00     0.004 C 
HETATM   29  C   UNL     1     -45.568  59.481 -50.447  1.00  0.00     0.027 C 
HETATM   30  C   UNL     1     -45.249  59.048 -51.852  1.00  0.00    -0.024 C 
ENDBRANCH  24  25
ENDBRANCH  23  24
ENDBRANCH   1  23
BRANCH   2  31
HETATM   31  C   UNL     1     -42.557  58.206 -57.416  1.00  0.00     0.144 C 
BRANCH  31  32
HETATM   32  C   UNL     1     -43.834  58.034 -58.181  1.00  0.00    -0.021 A 
HETATM   33  C   UNL     1     -44.189  56.899 -58.981  1.00  0.00    -0.001 A 
HETATM   34  C   UNL     1     -45.407  57.187 -59.596  1.00  0.00     0.042 A 
HETATM   35  C   UNL     1     -43.575  55.660 -59.255  1.00  0.00     0.014 A 
HETATM   36  C   UNL     1     -46.034  56.303 -60.484  1.00  0.00     0.030 A 
HETATM   37  N   UNL     1     -45.796  58.432 -59.160  1.00  0.00    -0.365 N 
HETATM   38  C   UNL     1     -45.399  55.085 -60.742  1.00  0.00     0.002 A 
HETATM   39  C   UNL     1     -44.189  54.762 -60.134  1.00  0.00     0.001 A 
HETATM   40  H   UNL     1     -46.649  58.895 -59.442  1.00  0.00     0.165 HD
HETATM   41  C   UNL     1     -44.854  58.955 -58.314  1.00  0.00     0.097 A 
ENDBRANCH  31  32
ENDBRANCH   2  31
TORSDOF 9
ENDMDL
MODEL 6
REMARK VINA RESULT:      -7.8      3.341      8.428
REMARK  9 active torsions:
REMARK  status: ('A' for Active; 'I' for Inactive)
REMARK    1  A    between atoms: C_4  and  C_5 
REMARK    2  A    between atoms: C_5  and  N_6 
REMARK    3  A    between atoms: C_12  and  N_13 
REMARK       I    between atoms: N_13  and  C_14 
REMARK    4  A    between atoms: N_13  and  C_27 
REMARK    5  A    between atoms: C_14  and  C_15 
REMARK    6  A    between atoms: C_15  and  C_16 
REMARK    7  A    between atoms: C_27  and  C_28 
REMARK    8  A    between atoms: C_28  and  C_29 
REMARK    9  A    between atoms: C_35  and  N_36 
ROOT
HETATM    1  N   UNL     1     -42.377  55.555 -55.084  1.00  0.00    -0.310 N 
HETATM    2  C   UNL     1     -42.811  54.237 -54.833  1.00  0.00     0.228 C 
HETATM    3  O   UNL     1     -43.808  53.748 -55.384  1.00  0.00    -0.273 OA
ENDROOT
BRANCH   1   4
HETATM    4  C   UNL     1     -43.322  56.506 -55.594  1.00  0.00     0.144 C 
HETATM    5  C   UNL     1     -43.270  56.811 -57.071  1.00  0.00     0.279 C 
HETATM    6  N   UNL     1     -44.393  57.335 -57.614  1.00  0.00    -0.273 N 
HETATM    7  O   UNL     1     -42.274  56.611 -57.764  1.00  0.00    -0.265 OA
HETATM    8  C   UNL     1     -45.066  58.293 -56.930  1.00  0.00     0.331 C 
HETATM    9  H   UNL     1     -44.323  57.543 -58.600  1.00  0.00     0.173 HD
HETATM   10  N   UNL     1     -45.002  58.206 -55.547  1.00  0.00    -0.284 N 
HETATM   11  O   UNL     1     -45.637  59.182 -57.558  1.00  0.00    -0.246 OA
HETATM   12  C   UNL     1     -44.248  57.222 -54.889  1.00  0.00     0.117 C 
BRANCH  10  13
HETATM   13  C   UNL     1     -45.630  59.305 -54.809  1.00  0.00     0.173 C 
BRANCH  13  14
HETATM   14  C   UNL     1     -44.764  60.060 -53.824  1.00  0.00    -0.040 A 
HETATM   15  C   UNL     1     -43.519  60.613 -54.149  1.00  0.00     0.009 A 
HETATM   16  C   UNL     1     -42.763  61.279 -53.180  1.00  0.00     0.001 A 
HETATM   17  C   UNL     1     -43.239  61.399 -51.876  1.00  0.00     0.000 A 
HETATM   18  C   UNL     1     -44.472  60.852 -51.535  1.00  0.00     0.001 A 
HETATM   19  C   UNL     1     -45.228  60.188 -52.502  1.00  0.00     0.009 A 
ENDBRANCH  13  14
ENDBRANCH  10  13
BRANCH  12  20
HETATM   20  N   UNL     1     -44.481  56.971 -53.542  1.00  0.00    -0.286 NA
HETATM   21  H   UNL     1     -43.764  57.427 -52.965  1.00  0.00     0.125 HD
HETATM   22  H   UNL     1     -45.399  57.239 -53.213  1.00  0.00     0.125 HD
ENDBRANCH  12  20
ENDBRANCH   1   4
BRANCH   1  23
HETATM   23  C   UNL     1     -41.145  56.149 -54.491  1.00  0.00     0.137 C 
BRANCH  23  24
HETATM   24  C   UNL     1     -41.059  57.646 -54.107  1.00  0.00     0.054 C 
BRANCH  24  25
HETATM   25  C   UNL     1     -40.764  58.131 -52.709  1.00  0.00    -0.082 C 
HETATM   26  C   UNL     1     -41.764  57.634 -51.677  1.00  0.00     0.034 C 
HETATM   27  C   UNL     1     -41.350  57.879 -50.227  1.00  0.00     0.005 C 
HETATM   28  C   UNL     1     -40.764  59.273 -50.058  1.00  0.00     0.004 C 
HETATM   29  C   UNL     1     -39.546  59.463 -50.962  1.00  0.00     0.027 C 
HETATM   30  C   UNL     1     -39.755  58.947 -52.360  1.00  0.00    -0.024 C 
ENDBRANCH  24  25
ENDBRANCH  23  24
ENDBRANCH   1  23
BRANCH   2  31
HETATM   31  C   UNL     1     -42.059  53.383 -53.821  1.00  0.00     0.144 C 
BRANCH  31  32
HETATM   32  C   UNL     1     -42.309  53.809 -52.406  1.00  0.00    -0.021 A 
HETATM   33  C   UNL     1     -41.323  53.908 -51.371  1.00  0.00    -0.001 A 
HETATM   34  C   UNL     1     -41.989  54.238 -50.190  1.00  0.00     0.042 A 
HETATM   35  C   UNL     1     -39.926  53.726 -51.325  1.00  0.00     0.014 A 
HETATM   36  C   UNL     1     -41.328  54.380 -48.964  1.00  0.00     0.030 A 
HETATM   37  N   UNL     1     -43.322  54.370 -50.502  1.00  0.00    -0.365 N 
HETATM   38  C   UNL     1     -39.944  54.187 -48.947  1.00  0.00     0.002 A 
HETATM   39  C   UNL     1     -39.248  53.871 -50.110  1.00  0.00     0.001 A 
HETATM   40  H   UNL     1     -44.043  54.611 -49.836  1.00  0.00     0.165 HD
HETATM   41  C   UNL     1     -43.528  54.107 -51.830  1.00  0.00     0.097 A 
ENDBRANCH  31  32
ENDBRANCH   2  31
TORSDOF 9
ENDMDL
MODEL 7
REMARK VINA RESULT:      -7.8      2.998      4.219
REMARK  9 active torsions:
REMARK  status: ('A' for Active; 'I' for Inactive)
REMARK    1  A    between atoms: C_4  and  C_5 
REMARK    2  A    between atoms: C_5  and  N_6 
REMARK    3  A    between atoms: C_12  and  N_13 
REMARK       I    between atoms: N_13  and  C_14 
REMARK    4  A    between atoms: N_13  and  C_27 
REMARK    5  A    between atoms: C_14  and  C_15 
REMARK    6  A    between atoms: C_15  and  C_16 
REMARK    7  A    between atoms: C_27  and  C_28 
REMARK    8  A    between atoms: C_28  and  C_29 
REMARK    9  A    between atoms: C_35  and  N_36 
ROOT
HETATM    1  N   UNL     1     -44.227  58.323 -53.927  1.00  0.00    -0.310 N 
HETATM    2  C   UNL     1     -45.119  57.980 -54.964  1.00  0.00     0.228 C 
HETATM    3  O   UNL     1     -45.806  56.949 -54.937  1.00  0.00    -0.273 OA
ENDROOT
BRANCH   1   4
HETATM    4  C   UNL     1     -43.737  57.284 -53.068  1.00  0.00     0.144 C 
HETATM    5  C   UNL     1     -44.506  57.016 -51.797  1.00  0.00     0.279 C 
HETATM    6  N   UNL     1     -44.325  55.799 -51.234  1.00  0.00    -0.273 N 
HETATM    7  O   UNL     1     -45.255  57.841 -51.277  1.00  0.00    -0.265 OA
HETATM    8  C   UNL     1     -43.073  55.282 -51.179  1.00  0.00     0.331 C 
HETATM    9  H   UNL     1     -44.840  55.655 -50.377  1.00  0.00     0.173 HD
HETATM   10  N   UNL     1     -42.225  55.642 -52.215  1.00  0.00    -0.284 N 
HETATM   11  O   UNL     1     -42.760  54.583 -50.217  1.00  0.00    -0.246 OA
HETATM   12  C   UNL     1     -42.613  56.526 -53.233  1.00  0.00     0.117 C 
BRANCH  10  13
HETATM   13  C   UNL     1     -40.839  55.179 -52.095  1.00  0.00     0.173 C 
BRANCH  13  14
HETATM   14  C   UNL     1     -40.530  53.785 -52.596  1.00  0.00    -0.040 A 
HETATM   15  C   UNL     1     -40.840  53.336 -53.885  1.00  0.00     0.009 A 
HETATM   16  C   UNL     1     -40.544  52.025 -54.271  1.00  0.00     0.001 A 
HETATM   17  C   UNL     1     -39.938  51.148 -53.375  1.00  0.00     0.000 A 
HETATM   18  C   UNL     1     -39.626  51.576 -52.088  1.00  0.00     0.001 A 
HETATM   19  C   UNL     1     -39.920  52.885 -51.702  1.00  0.00     0.009 A 
ENDBRANCH  13  14
ENDBRANCH  10  13
BRANCH  12  20
HETATM   20  N   UNL     1     -41.866  56.589 -54.404  1.00  0.00    -0.286 NA
HETATM   21  H   UNL     1     -40.886  56.344 -54.215  1.00  0.00     0.125 HD
HETATM   22  H   UNL     1     -42.216  56.018 -55.162  1.00  0.00     0.125 HD
ENDBRANCH  12  20
ENDBRANCH   1   4
BRANCH   1  23
HETATM   23  C   UNL     1     -43.438  59.588 -53.897  1.00  0.00     0.137 C 
BRANCH  23  24
HETATM   24  C   UNL     1     -42.963  60.226 -52.568  1.00  0.00     0.054 C 
BRANCH  24  25
HETATM   25  C   UNL     1     -41.683  59.838 -51.870  1.00  0.00    -0.082 C 
HETATM   26  C   UNL     1     -41.709  60.108 -50.375  1.00  0.00     0.034 C 
HETATM   27  C   UNL     1     -40.548  59.487 -49.600  1.00  0.00     0.005 C 
HETATM   28  C   UNL     1     -39.236  59.671 -50.348  1.00  0.00     0.004 C 
HETATM   29  C   UNL     1     -39.308  59.031 -51.735  1.00  0.00     0.027 C 
HETATM   30  C   UNL     1     -40.588  59.333 -52.465  1.00  0.00    -0.024 C 
ENDBRANCH  24  25
ENDBRANCH  23  24
ENDBRANCH   1  23
BRANCH   2  31
HETATM   31  C   UNL     1     -45.225  58.881 -56.187  1.00  0.00     0.144 C 
BRANCH  31  32
HETATM   32  C   UNL     1     -45.669  58.141 -57.412  1.00  0.00    -0.021 A 
HETATM   33  C   UNL     1     -44.843  57.315 -58.242  1.00  0.00    -0.001 A 
HETATM   34  C   UNL     1     -45.619  56.903 -59.325  1.00  0.00     0.042 A 
HETATM   35  C   UNL     1     -43.498  56.898 -58.182  1.00  0.00     0.014 A 
HETATM   36  C   UNL     1     -45.112  56.106 -60.359  1.00  0.00     0.030 A 
HETATM   37  N   UNL     1     -46.877  57.426 -59.142  1.00  0.00    -0.365 N 
HETATM   38  C   UNL     1     -43.773  55.711 -60.276  1.00  0.00     0.002 A 
HETATM   39  C   UNL     1     -42.976  56.095 -59.202  1.00  0.00     0.001 A 
HETATM   40  H   UNL     1     -47.652  57.285 -59.776  1.00  0.00     0.165 HD
HETATM   41  C   UNL     1     -46.918  58.180 -58.000  1.00  0.00     0.097 A 
ENDBRANCH  31  32
ENDBRANCH   2  31
TORSDOF 9
ENDMDL
MODEL 8
REMARK VINA RESULT:      -7.7      2.453      8.202
REMARK  9 active torsions:
REMARK  status: ('A' for Active; 'I' for Inactive)
REMARK    1  A    between atoms: C_4  and  C_5 
REMARK    2  A    between atoms: C_5  and  N_6 
REMARK    3  A    between atoms: C_12  and  N_13 
REMARK       I    between atoms: N_13  and  C_14 
REMARK    4  A    between atoms: N_13  and  C_27 
REMARK    5  A    between atoms: C_14  and  C_15 
REMARK    6  A    between atoms: C_15  and  C_16 
REMARK    7  A    between atoms: C_27  and  C_28 
REMARK    8  A    between atoms: C_28  and  C_29 
REMARK    9  A    between atoms: C_35  and  N_36 
ROOT
HETATM    1  N   UNL     1     -43.044  56.766 -55.166  1.00  0.00    -0.310 N 
HETATM    2  C   UNL     1     -42.130  56.004 -54.408  1.00  0.00     0.228 C 
HETATM    3  O   UNL     1     -40.939  55.881 -54.728  1.00  0.00    -0.273 OA
ENDROOT
BRANCH   1   4
HETATM    4  C   UNL     1     -42.753  57.014 -56.548  1.00  0.00     0.144 C 
HETATM    5  C   UNL     1     -42.080  58.321 -56.891  1.00  0.00     0.279 C 
HETATM    6  N   UNL     1     -41.425  58.364 -58.075  1.00  0.00    -0.273 N 
HETATM    7  O   UNL     1     -42.115  59.308 -56.159  1.00  0.00    -0.265 OA
HETATM    8  C   UNL     1     -42.001  57.798 -59.164  1.00  0.00     0.331 C 
HETATM    9  H   UNL     1     -40.999  59.255 -58.284  1.00  0.00     0.173 HD
HETATM   10  N   UNL     1     -42.809  56.698 -58.917  1.00  0.00    -0.284 N 
HETATM   11  O   UNL     1     -41.816  58.308 -60.266  1.00  0.00    -0.246 OA
HETATM   12  C   UNL     1     -43.061  56.224 -57.620  1.00  0.00     0.117 C 
BRANCH  10  13
HETATM   13  C   UNL     1     -43.524  56.158 -60.077  1.00  0.00     0.173 C 
BRANCH  13  14
HETATM   14  C   UNL     1     -44.936  56.651 -60.309  1.00  0.00    -0.040 A 
HETATM   15  C   UNL     1     -45.999  55.817 -60.675  1.00  0.00     0.009 A 
HETATM   16  C   UNL     1     -47.274  56.348 -60.895  1.00  0.00     0.001 A 
HETATM   17  C   UNL     1     -47.502  57.715 -60.754  1.00  0.00     0.000 A 
HETATM   18  C   UNL     1     -46.455  58.558 -60.395  1.00  0.00     0.001 A 
HETATM   19  C   UNL     1     -45.182  58.030 -60.175  1.00  0.00     0.009 A 
ENDBRANCH  13  14
ENDBRANCH  10  13
BRANCH  12  20
HETATM   20  N   UNL     1     -43.585  54.948 -57.449  1.00  0.00    -0.286 NA
HETATM   21  H   UNL     1     -43.766  54.512 -58.362  1.00  0.00     0.125 HD
HETATM   22  H   UNL     1     -43.018  54.329 -56.886  1.00  0.00     0.125 HD
ENDBRANCH  12  20
ENDBRANCH   1   4
BRANCH   1  23
HETATM   23  C   UNL     1     -44.464  56.989 -54.772  1.00  0.00     0.137 C 
BRANCH  23  24
HETATM   24  C   UNL     1     -44.970  58.366 -54.276  1.00  0.00     0.054 C 
BRANCH  24  25
HETATM   25  C   UNL     1     -45.315  59.508 -55.200  1.00  0.00    -0.082 C 
HETATM   26  C   UNL     1     -45.245  60.868 -54.525  1.00  0.00     0.034 C 
HETATM   27  C   UNL     1     -45.323  62.054 -55.484  1.00  0.00     0.005 C 
HETATM   28  C   UNL     1     -46.388  61.825 -56.546  1.00  0.00     0.004 C 
HETATM   29  C   UNL     1     -46.091  60.556 -57.347  1.00  0.00     0.027 C 
HETATM   30  C   UNL     1     -45.686  59.390 -56.486  1.00  0.00    -0.024 C 
ENDBRANCH  24  25
ENDBRANCH  23  24
ENDBRANCH   1  23
BRANCH   2  31
HETATM   31  C   UNL     1     -42.619  55.267 -53.169  1.00  0.00     0.144 C 
BRANCH  31  32
HETATM   32  C   UNL     1     -41.538  54.467 -52.508  1.00  0.00    -0.021 A 
HETATM   33  C   UNL     1     -40.976  53.245 -53.002  1.00  0.00    -0.001 A 
HETATM   34  C   UNL     1     -40.079  52.780 -52.040  1.00  0.00     0.042 A 
HETATM   35  C   UNL     1     -41.164  52.479 -54.170  1.00  0.00     0.014 A 
HETATM   36  C   UNL     1     -39.372  51.580 -52.183  1.00  0.00     0.030 A 
HETATM   37  N   UNL     1     -40.068  53.702 -51.019  1.00  0.00    -0.365 N 
HETATM   38  C   UNL     1     -39.582  50.838 -53.349  1.00  0.00     0.002 A 
HETATM   39  C   UNL     1     -40.461  51.281 -54.333  1.00  0.00     0.001 A 
HETATM   40  H   UNL     1     -39.501  53.623 -50.186  1.00  0.00     0.165 HD
HETATM   41  C   UNL     1     -40.948  54.717 -51.285  1.00  0.00     0.097 A 
ENDBRANCH  31  32
ENDBRANCH   2  31
TORSDOF 9
ENDMDL
MODEL 9
REMARK VINA RESULT:      -7.6      2.391      4.089
REMARK  9 active torsions:
REMARK  status: ('A' for Active; 'I' for Inactive)
REMARK    1  A    between atoms: C_4  and  C_5 
REMARK    2  A    between atoms: C_5  and  N_6 
REMARK    3  A    between atoms: C_12  and  N_13 
REMARK       I    between atoms: N_13  and  C_14 
REMARK    4  A    between atoms: N_13  and  C_27 
REMARK    5  A    between atoms: C_14  and  C_15 
REMARK    6  A    between atoms: C_15  and  C_16 
REMARK    7  A    between atoms: C_27  and  C_28 
REMARK    8  A    between atoms: C_28  and  C_29 
REMARK    9  A    between atoms: C_35  and  N_36 
ROOT
HETATM    1  N   UNL     1     -42.678  58.157 -54.104  1.00  0.00    -0.310 N 
HETATM    2  C   UNL     1     -43.863  58.911 -53.981  1.00  0.00     0.228 C 
HETATM    3  O   UNL     1     -44.322  59.258 -52.883  1.00  0.00    -0.273 OA
ENDROOT
BRANCH   1   4
HETATM    4  C   UNL     1     -42.242  57.374 -52.984  1.00  0.00     0.144 C 
HETATM    5  C   UNL     1     -41.070  57.896 -52.189  1.00  0.00     0.279 C 
HETATM    6  N   UNL     1     -40.945  57.424 -50.927  1.00  0.00    -0.273 N 
HETATM    7  O   UNL     1     -40.255  58.699 -52.639  1.00  0.00    -0.265 OA
HETATM    8  C   UNL     1     -41.157  56.105 -50.697  1.00  0.00     0.331 C 
HETATM    9  H   UNL     1     -40.144  57.779 -50.425  1.00  0.00     0.173 HD
HETATM   10  N   UNL     1     -42.083  55.488 -51.525  1.00  0.00    -0.284 N 
HETATM   11  O   UNL     1     -40.500  55.540 -49.826  1.00  0.00    -0.246 OA
HETATM   12  C   UNL     1     -42.729  56.167 -52.570  1.00  0.00     0.117 C 
BRANCH  10  13
HETATM   13  C   UNL     1     -42.227  54.039 -51.355  1.00  0.00     0.173 C 
BRANCH  13  14
HETATM   14  C   UNL     1     -41.227  53.157 -52.071  1.00  0.00    -0.040 A 
HETATM   15  C   UNL     1     -40.249  52.400 -51.414  1.00  0.00     0.009 A 
HETATM   16  C   UNL     1     -39.343  51.624 -52.145  1.00  0.00     0.001 A 
HETATM   17  C   UNL     1     -39.402  51.597 -53.536  1.00  0.00     0.000 A 
HETATM   18  C   UNL     1     -40.365  52.346 -54.204  1.00  0.00     0.001 A 
HETATM   19  C   UNL     1     -41.271  53.120 -53.477  1.00  0.00     0.009 A 
ENDBRANCH  13  14
ENDBRANCH  10  13
BRANCH  12  20
HETATM   20  N   UNL     1     -43.870  55.616 -53.140  1.00  0.00    -0.286 NA
HETATM   21  H   UNL     1     -43.618  54.833 -53.757  1.00  0.00     0.125 HD
HETATM   22  H   UNL     1     -44.570  55.311 -52.477  1.00  0.00     0.125 HD
ENDBRANCH  12  20
ENDBRANCH   1   4
BRANCH   1  23
HETATM   23  C   UNL     1     -42.065  57.784 -55.410  1.00  0.00     0.137 C 
BRANCH  23  24
HETATM   24  C   UNL     1     -42.565  56.572 -56.234  1.00  0.00     0.054 C 
BRANCH  24  25
HETATM   25  C   UNL     1     -42.786  56.614 -57.726  1.00  0.00    -0.082 C 
HETATM   26  C   UNL     1     -42.168  57.834 -58.391  1.00  0.00     0.034 C 
HETATM   27  C   UNL     1     -42.138  57.775 -59.917  1.00  0.00     0.005 C 
HETATM   28  C   UNL     1     -43.451  57.237 -60.465  1.00  0.00     0.004 C 
HETATM   29  C   UNL     1     -43.734  55.837 -59.919  1.00  0.00     0.027 C 
HETATM   30  C   UNL     1     -43.479  55.712 -58.441  1.00  0.00    -0.024 C 
ENDBRANCH  24  25
ENDBRANCH  23  24
ENDBRANCH   1  23
BRANCH   2  31
HETATM   31  C   UNL     1     -44.642  59.289 -55.234  1.00  0.00     0.144 C 
BRANCH  31  32
HETATM   32  C   UNL     1     -44.015  60.426 -55.982  1.00  0.00    -0.021 A 
HETATM   33  C   UNL     1     -44.161  60.694 -57.383  1.00  0.00    -0.001 A 
HETATM   34  C   UNL     1     -43.337  61.777 -57.689  1.00  0.00     0.042 A 
HETATM   35  C   UNL     1     -44.903  60.099 -58.424  1.00  0.00     0.014 A 
HETATM   36  C   UNL     1     -43.208  62.285 -58.988  1.00  0.00     0.030 A 
HETATM   37  N   UNL     1     -42.742  62.176 -56.515  1.00  0.00    -0.365 N 
HETATM   38  C   UNL     1     -43.951  61.672 -60.001  1.00  0.00     0.002 A 
HETATM   39  C   UNL     1     -44.792  60.598 -59.726  1.00  0.00     0.001 A 
HETATM   40  H   UNL     1     -42.094  62.947 -56.438  1.00  0.00     0.165 HD
HETATM   41  C   UNL     1     -43.136  61.366 -55.483  1.00  0.00     0.097 A 
ENDBRANCH  31  32
ENDBRANCH   2  31
TORSDOF 9
ENDMDL
MODEL 10
REMARK VINA RESULT:      -7.6      2.711      8.475
REMARK  9 active torsions:
REMARK  status: ('A' for Active; 'I' for Inactive)
REMARK    1  A    between atoms: C_4  and  C_5 
REMARK    2  A    between atoms: C_5  and  N_6 
REMARK    3  A    between atoms: C_12  and  N_13 
REMARK       I    between atoms: N_13  and  C_14 
REMARK    4  A    between atoms: N_13  and  C_27 
REMARK    5  A    between atoms: C_14  and  C_15 
REMARK    6  A    between atoms: C_15  and  C_16 
REMARK    7  A    between atoms: C_27  and  C_28 
REMARK    8  A    between atoms: C_28  and  C_29 
REMARK    9  A    between atoms: C_35  and  N_36 
ROOT
HETATM    1  N   UNL     1     -43.148  56.919 -54.862  1.00  0.00    -0.310 N 
HETATM    2  C   UNL     1     -42.227  56.084 -54.196  1.00  0.00     0.228 C 
HETATM    3  O   UNL     1     -41.022  56.058 -54.485  1.00  0.00    -0.273 OA
ENDROOT
BRANCH   1   4
HETATM    4  C   UNL     1     -42.824  57.390 -56.177  1.00  0.00     0.144 C 
HETATM    5  C   UNL     1     -42.357  58.820 -56.306  1.00  0.00     0.279 C 
HETATM    6  N   UNL     1     -41.652  59.121 -57.421  1.00  0.00    -0.273 N 
HETATM    7  O   UNL     1     -42.595  59.684 -55.464  1.00  0.00    -0.265 OA
HETATM    8  C   UNL     1     -42.064  58.622 -58.612  1.00  0.00     0.331 C 
HETATM    9  H   UNL     1     -41.366  60.087 -57.487  1.00  0.00     0.173 HD
HETATM   10  N   UNL     1     -42.693  57.386 -58.564  1.00  0.00    -0.284 N 
HETATM   11  O   UNL     1     -41.904  59.295 -59.627  1.00  0.00    -0.246 OA
HETATM   12  C   UNL     1     -42.937  56.711 -57.357  1.00  0.00     0.117 C 
BRANCH  10  13
HETATM   13  C   UNL     1     -43.243  56.900 -59.833  1.00  0.00     0.173 C 
BRANCH  13  14
HETATM   14  C   UNL     1     -44.723  57.107 -60.069  1.00  0.00    -0.040 A 
HETATM   15  C   UNL     1     -45.654  56.062 -60.125  1.00  0.00     0.009 A 
HETATM   16  C   UNL     1     -47.005  56.328 -60.370  1.00  0.00     0.001 A 
HETATM   17  C   UNL     1     -47.442  57.637 -60.562  1.00  0.00     0.000 A 
HETATM   18  C   UNL     1     -46.529  58.686 -60.512  1.00  0.00     0.001 A 
HETATM   19  C   UNL     1     -45.180  58.423 -60.268  1.00  0.00     0.009 A 
ENDBRANCH  13  14
ENDBRANCH  10  13
BRANCH  12  20
HETATM   20  N   UNL     1     -43.253  55.358 -57.384  1.00  0.00    -0.286 NA
HETATM   21  H   UNL     1     -44.051  55.191 -58.009  1.00  0.00     0.125 HD
HETATM   22  H   UNL     1     -42.489  54.749 -57.642  1.00  0.00     0.125 HD
ENDBRANCH  12  20
ENDBRANCH   1   4
BRANCH   1  23
HETATM   23  C   UNL     1     -44.589  57.024 -54.493  1.00  0.00     0.137 C 
BRANCH  23  24
HETATM   24  C   UNL     1     -45.111  58.124 -53.536  1.00  0.00     0.054 C 
BRANCH  24  25
HETATM   25  C   UNL     1     -44.223  58.898 -52.594  1.00  0.00    -0.082 C 
HETATM   26  C   UNL     1     -44.488  60.394 -52.612  1.00  0.00     0.034 C 
HETATM   27  C   UNL     1     -43.804  61.171 -51.488  1.00  0.00     0.005 C 
HETATM   28  C   UNL     1     -42.375  60.689 -51.287  1.00  0.00     0.004 C 
HETATM   29  C   UNL     1     -42.347  59.198 -50.950  1.00  0.00     0.027 C 
HETATM   30  C   UNL     1     -43.257  58.374 -51.819  1.00  0.00    -0.024 C 
ENDBRANCH  24  25
ENDBRANCH  23  24
ENDBRANCH   1  23
BRANCH   2  31
HETATM   31  C   UNL     1     -42.723  55.145 -53.105  1.00  0.00     0.144 C 
BRANCH  31  32
HETATM   32  C   UNL     1     -41.611  54.390 -52.444  1.00  0.00    -0.021 A 
HETATM   33  C   UNL     1     -40.983  53.204 -52.950  1.00  0.00    -0.001 A 
HETATM   34  C   UNL     1     -40.074  52.769 -51.984  1.00  0.00     0.042 A 
HETATM   35  C   UNL     1     -41.119  52.449 -54.132  1.00  0.00     0.014 A 
HETATM   36  C   UNL     1     -39.307  51.608 -52.138  1.00  0.00     0.030 A 
HETATM   37  N   UNL     1     -40.121  53.674 -50.950  1.00  0.00    -0.365 N 
HETATM   38  C   UNL     1     -39.467  50.875 -53.318  1.00  0.00     0.002 A 
HETATM   39  C   UNL     1     -40.356  51.290 -54.306  1.00  0.00     0.001 A 
HETATM   40  H   UNL     1     -39.560  53.610 -50.111  1.00  0.00     0.165 HD
HETATM   41  C   UNL     1     -41.047  54.648 -51.210  1.00  0.00     0.097 A 
ENDBRANCH  31  32
ENDBRANCH   2  31
TORSDOF 9
ENDMDL
