MODEL 1
REMARK VINA RESULT:      -8.2      0.000      0.000
REMARK  10 active torsions:
REMARK  status: ('A' for Active; 'I' for Inactive)
REMARK    1  A    between atoms: C_2  and  O_3 
REMARK    2  A    between atoms: O_3  and  C_4 
REMARK    3  A    between atoms: C_7  and  C_8 
REMARK    4  A    between atoms: C_8  and  C_9 
REMARK    5  A    between atoms: C_10  and  C_11 
REMARK    6  A    between atoms: C_14  and  N_15 
REMARK    7  A    between atoms: N_20  and  C_21 
REMARK    8  A    between atoms: C_21  and  C_22 
REMARK    9  A    between atoms: C_22  and  N_23 
REMARK   10  A    between atoms: C_34  and  O_35 
ROOT
HETATM    1  C   UNL     1     -42.689  58.091 -54.123  1.00  0.00     0.059 C 
HETATM    2  C   UNL     1     -43.524  57.754 -52.927  1.00  0.00     0.161 C 
HETATM    3  N   UNL     1     -43.691  59.080 -52.334  1.00  0.00    -0.332 N 
HETATM    4  C   UNL     1     -42.800  59.983 -52.887  1.00  0.00     0.278 C 
HETATM    5  O   UNL     1     -42.562  61.091 -52.437  1.00  0.00    -0.265 OA
HETATM    6  C   UNL     1     -42.240  59.355 -54.099  1.00  0.00     0.146 C 
ENDROOT
BRANCH   1   7
HETATM    7  C   UNL     1     -42.283  57.179 -55.208  1.00  0.00     0.193 C 
HETATM    8  O   UNL     1     -42.239  57.592 -56.364  1.00  0.00    -0.287 OA
BRANCH   7   9
HETATM    9  C   UNL     1     -41.885  55.793 -54.899  1.00  0.00     0.015 A 
HETATM   10  C   UNL     1     -40.597  55.479 -54.451  1.00  0.00     0.018 A 
HETATM   11  C   UNL     1     -40.256  54.147 -54.182  1.00  0.00     0.038 A 
HETATM   12  C   UNL     1     -41.203  53.134 -54.337  1.00  0.00     0.069 A 
HETATM   13  C   UNL     1     -42.498  53.467 -54.745  1.00  0.00     0.038 A 
HETATM   14  C   UNL     1     -42.845  54.789 -55.024  1.00  0.00     0.018 A 
BRANCH  12  15
HETATM   15  O   UNL     1     -41.021  51.803 -54.100  1.00  0.00    -0.347 OA
BRANCH  15  16
HETATM   16  C   UNL     1     -39.706  51.282 -53.882  1.00  0.00     0.120 C 
HETATM   17  C   UNL     1     -39.577  49.920 -54.558  1.00  0.00     0.040 C 
HETATM   18  C   UNL     1     -39.532  51.137 -52.372  1.00  0.00     0.040 C 
ENDBRANCH  15  16
ENDBRANCH  12  15
ENDBRANCH   7   9
ENDBRANCH   1   7
BRANCH   2  19
HETATM   19  C   UNL     1     -42.850  56.776 -51.978  1.00  0.00    -0.030 A 
HETATM   20  C   UNL     1     -43.450  55.549 -51.627  1.00  0.00     0.012 A 
HETATM   21  C   UNL     1     -42.830  54.677 -50.728  1.00  0.00     0.037 A 
HETATM   22  C   UNL     1     -41.601  55.028 -50.161  1.00  0.00     0.102 A 
HETATM   23  C   UNL     1     -40.992  56.245 -50.487  1.00  0.00     0.037 A 
HETATM   24  C   UNL     1     -41.614  57.109 -51.394  1.00  0.00     0.012 A 
BRANCH  22  25
HETATM   25  N   UNL     1     -40.942  54.107 -49.227  1.00  0.00    -0.116 N 
HETATM   26  O   UNL     1     -40.333  53.144 -49.717  1.00  0.00    -0.532 OA
HETATM   27  O   UNL     1     -41.011  54.366 -48.020  1.00  0.00    -0.532 OA
ENDBRANCH  22  25
ENDBRANCH   2  19
BRANCH   6  28
HETATM   28  O   UNL     1     -41.414  59.997 -54.974  1.00  0.00    -0.355 OA
HETATM   29  H   UNL     1     -41.721  59.780 -55.887  1.00  0.00     0.218 HD
ENDBRANCH   6  28
BRANCH   3  30
HETATM   30  C   UNL     1     -44.426  59.333 -51.099  1.00  0.00     0.155 C 
BRANCH  30  31
HETATM   31  C   UNL     1     -45.438  60.507 -51.231  1.00  0.00     0.254 C 
BRANCH  31  32
HETATM   32  N   UNL     1     -44.984  61.826 -50.591  1.00  0.00    -0.066 N 
HETATM   33  H   UNL     1     -44.230  62.166 -51.210  1.00  0.00     0.280 HD
HETATM   34  C   UNL     1     -44.325  61.589 -49.220  1.00  0.00     0.262 C 
HETATM   35  C   UNL     1     -45.369  61.413 -48.086  1.00  0.00     0.260 C 
HETATM   36  N   UNL     1     -46.318  62.579 -48.041  1.00  0.00    -0.072 N 
HETATM   37  H   UNL     1     -45.854  63.433 -47.691  1.00  0.00     0.277 HD
HETATM   38  H   UNL     1     -47.047  62.383 -47.332  1.00  0.00     0.277 HD
HETATM   39  C   UNL     1     -47.019  62.841 -49.349  1.00  0.00     0.260 C 
HETATM   40  C   UNL     1     -46.018  62.962 -50.524  1.00  0.00     0.262 C 
ENDBRANCH  31  32
ENDBRANCH  30  31
ENDBRANCH   3  30
TORSDOF 10
ENDMDL
MODEL 2
REMARK VINA RESULT:      -7.8      3.428      6.683
REMARK  10 active torsions:
REMARK  status: ('A' for Active; 'I' for Inactive)
REMARK    1  A    between atoms: C_2  and  O_3 
REMARK    2  A    between atoms: O_3  and  C_4 
REMARK    3  A    between atoms: C_7  and  C_8 
REMARK    4  A    between atoms: C_8  and  C_9 
REMARK    5  A    between atoms: C_10  and  C_11 
REMARK    6  A    between atoms: C_14  and  N_15 
REMARK    7  A    between atoms: N_20  and  C_21 
REMARK    8  A    between atoms: C_21  and  C_22 
REMARK    9  A    between atoms: C_22  and  N_23 
REMARK   10  A    between atoms: C_34  and  O_35 
ROOT
HETATM    1  C   UNL     1     -43.324  58.346 -54.152  1.00  0.00     0.059 C 
HETATM    2  C   UNL     1     -42.335  57.772 -55.117  1.00  0.00     0.161 C 
HETATM    3  N   UNL     1     -43.079  57.894 -56.370  1.00  0.00    -0.332 N 
HETATM    4  C   UNL     1     -44.416  58.157 -56.125  1.00  0.00     0.278 C 
HETATM    5  O   UNL     1     -45.302  58.090 -56.959  1.00  0.00    -0.265 OA
HETATM    6  C   UNL     1     -44.530  58.544 -54.706  1.00  0.00     0.146 C 
ENDROOT
BRANCH   1   7
HETATM    7  C   UNL     1     -43.112  58.617 -52.718  1.00  0.00     0.193 C 
HETATM    8  O   UNL     1     -43.315  59.745 -52.277  1.00  0.00    -0.287 OA
BRANCH   7   9
HETATM    9  C   UNL     1     -42.706  57.527 -51.812  1.00  0.00     0.015 A 
HETATM   10  C   UNL     1     -41.410  57.446 -51.292  1.00  0.00     0.018 A 
HETATM   11  C   UNL     1     -41.061  56.385 -50.445  1.00  0.00     0.038 A 
HETATM   12  C   UNL     1     -42.009  55.422 -50.100  1.00  0.00     0.069 A 
HETATM   13  C   UNL     1     -43.312  55.537 -50.593  1.00  0.00     0.038 A 
HETATM   14  C   UNL     1     -43.667  56.585 -51.444  1.00  0.00     0.018 A 
BRANCH  12  15
HETATM   15  O   UNL     1     -41.819  54.349 -49.279  1.00  0.00    -0.347 OA
BRANCH  15  16
HETATM   16  C   UNL     1     -40.515  53.783 -49.119  1.00  0.00     0.120 C 
HETATM   17  C   UNL     1     -40.518  52.341 -49.618  1.00  0.00     0.040 C 
HETATM   18  C   UNL     1     -40.196  53.822 -47.627  1.00  0.00     0.040 C 
ENDBRANCH  15  16
ENDBRANCH  12  15
ENDBRANCH   7   9
ENDBRANCH   1   7
BRANCH   2  19
HETATM   19  C   UNL     1     -41.958  56.331 -54.807  1.00  0.00    -0.030 A 
HETATM   20  C   UNL     1     -42.935  55.333 -54.615  1.00  0.00     0.012 A 
HETATM   21  C   UNL     1     -42.571  54.021 -54.299  1.00  0.00     0.037 A 
HETATM   22  C   UNL     1     -41.218  53.694 -54.163  1.00  0.00     0.102 A 
HETATM   23  C   UNL     1     -40.231  54.670 -54.340  1.00  0.00     0.037 A 
HETATM   24  C   UNL     1     -40.603  55.979 -54.664  1.00  0.00     0.012 A 
BRANCH  22  25
HETATM   25  N   UNL     1     -40.833  52.314 -53.845  1.00  0.00    -0.116 N 
HETATM   26  O   UNL     1     -41.338  51.413 -54.532  1.00  0.00    -0.532 OA
HETATM   27  O   UNL     1     -40.011  52.141 -52.938  1.00  0.00    -0.532 OA
ENDBRANCH  22  25
ENDBRANCH   2  19
BRANCH   6  28
HETATM   28  O   UNL     1     -45.683  58.993 -54.132  1.00  0.00    -0.355 OA
HETATM   29  H   UNL     1     -46.376  58.305 -54.276  1.00  0.00     0.218 HD
ENDBRANCH   6  28
BRANCH   3  30
HETATM   30  C   UNL     1     -42.574  57.449 -57.664  1.00  0.00     0.155 C 
BRANCH  30  31
HETATM   31  C   UNL     1     -43.182  56.089 -58.112  1.00  0.00     0.254 C 
BRANCH  31  32
HETATM   32  N   UNL     1     -43.294  55.901 -59.631  1.00  0.00    -0.066 N 
HETATM   33  H   UNL     1     -42.392  55.475 -59.904  1.00  0.00     0.280 HD
HETATM   34  C   UNL     1     -43.357  57.253 -60.363  1.00  0.00     0.262 C 
HETATM   35  C   UNL     1     -44.783  57.866 -60.347  1.00  0.00     0.260 C 
HETATM   36  N   UNL     1     -45.792  56.897 -60.902  1.00  0.00    -0.072 N 
HETATM   37  H   UNL     1     -45.686  56.781 -61.923  1.00  0.00     0.277 HD
HETATM   38  H   UNL     1     -46.736  57.309 -60.794  1.00  0.00     0.277 HD
HETATM   39  C   UNL     1     -45.798  55.563 -60.202  1.00  0.00     0.260 C 
HETATM   40  C   UNL     1     -44.382  54.940 -60.138  1.00  0.00     0.262 C 
ENDBRANCH  31  32
ENDBRANCH  30  31
ENDBRANCH   3  30
TORSDOF 10
ENDMDL
MODEL 3
REMARK VINA RESULT:      -7.7      2.198      3.225
REMARK  10 active torsions:
REMARK  status: ('A' for Active; 'I' for Inactive)
REMARK    1  A    between atoms: C_2  and  O_3 
REMARK    2  A    between atoms: O_3  and  C_4 
REMARK    3  A    between atoms: C_7  and  C_8 
REMARK    4  A    between atoms: C_8  and  C_9 
REMARK    5  A    between atoms: C_10  and  C_11 
REMARK    6  A    between atoms: C_14  and  N_15 
REMARK    7  A    between atoms: N_20  and  C_21 
REMARK    8  A    between atoms: C_21  and  C_22 
REMARK    9  A    between atoms: C_22  and  N_23 
REMARK   10  A    between atoms: C_34  and  O_35 
ROOT
HETATM    1  C   UNL     1     -42.944  57.251 -56.806  1.00  0.00     0.059 C 
HETATM    2  C   UNL     1     -43.619  58.056 -55.740  1.00  0.00     0.161 C 
HETATM    3  N   UNL     1     -43.448  59.407 -56.275  1.00  0.00    -0.332 N 
HETATM    4  C   UNL     1     -42.514  59.418 -57.295  1.00  0.00     0.278 C 
HETATM    5  O   UNL     1     -42.013  60.423 -57.769  1.00  0.00    -0.265 OA
HETATM    6  C   UNL     1     -42.280  58.015 -57.687  1.00  0.00     0.146 C 
ENDROOT
BRANCH   1   7
HETATM    7  C   UNL     1     -42.890  55.781 -56.908  1.00  0.00     0.193 C 
HETATM    8  O   UNL     1     -43.357  55.224 -57.898  1.00  0.00    -0.287 OA
BRANCH   7   9
HETATM    9  C   UNL     1     -42.234  54.990 -55.851  1.00  0.00     0.015 A 
HETATM   10  C   UNL     1     -40.851  55.037 -55.647  1.00  0.00     0.018 A 
HETATM   11  C   UNL     1     -40.266  54.259 -54.639  1.00  0.00     0.038 A 
HETATM   12  C   UNL     1     -41.061  53.454 -53.823  1.00  0.00     0.069 A 
HETATM   13  C   UNL     1     -42.446  53.449 -54.010  1.00  0.00     0.038 A 
HETATM   14  C   UNL     1     -43.038  54.214 -55.016  1.00  0.00     0.018 A 
BRANCH  12  15
HETATM   15  O   UNL     1     -40.636  52.660 -52.798  1.00  0.00    -0.347 OA
BRANCH  15  16
HETATM   16  C   UNL     1     -39.639  51.658 -53.027  1.00  0.00     0.120 C 
HETATM   17  C   UNL     1     -40.106  50.716 -54.133  1.00  0.00     0.040 C 
HETATM   18  C   UNL     1     -39.476  50.891 -51.717  1.00  0.00     0.040 C 
ENDBRANCH  15  16
ENDBRANCH  12  15
ENDBRANCH   7   9
ENDBRANCH   1   7
BRANCH   2  19
HETATM   19  C   UNL     1     -42.983  57.893 -54.368  1.00  0.00    -0.030 A 
HETATM   20  C   UNL     1     -41.645  58.262 -54.122  1.00  0.00     0.012 A 
HETATM   21  C   UNL     1     -41.067  58.074 -52.863  1.00  0.00     0.037 A 
HETATM   22  C   UNL     1     -41.823  57.505 -51.834  1.00  0.00     0.102 A 
HETATM   23  C   UNL     1     -43.151  57.123 -52.058  1.00  0.00     0.037 A 
HETATM   24  C   UNL     1     -43.725  57.321 -53.319  1.00  0.00     0.012 A 
BRANCH  22  25
HETATM   25  N   UNL     1     -41.223  57.321 -50.508  1.00  0.00    -0.116 N 
HETATM   26  O   UNL     1     -40.748  58.325 -49.957  1.00  0.00    -0.532 OA
HETATM   27  O   UNL     1     -41.257  56.187 -50.015  1.00  0.00    -0.532 OA
ENDBRANCH  22  25
ENDBRANCH   2  19
BRANCH   6  28
HETATM   28  O   UNL     1     -41.509  57.641 -58.748  1.00  0.00    -0.355 OA
HETATM   29  H   UNL     1     -41.873  58.082 -59.552  1.00  0.00     0.218 HD
ENDBRANCH   6  28
BRANCH   3  30
HETATM   30  C   UNL     1     -43.914  60.614 -55.601  1.00  0.00     0.155 C 
BRANCH  30  31
HETATM   31  C   UNL     1     -45.264  60.405 -54.858  1.00  0.00     0.254 C 
BRANCH  31  32
HETATM   32  N   UNL     1     -45.510  61.363 -53.684  1.00  0.00    -0.066 N 
HETATM   33  H   UNL     1     -45.963  62.186 -54.114  1.00  0.00     0.280 HD
HETATM   34  C   UNL     1     -44.186  61.876 -53.089  1.00  0.00     0.262 C 
HETATM   35  C   UNL     1     -43.546  60.859 -52.109  1.00  0.00     0.260 C 
HETATM   36  N   UNL     1     -44.516  60.470 -51.026  1.00  0.00    -0.072 N 
HETATM   37  H   UNL     1     -44.674  61.245 -50.362  1.00  0.00     0.277 HD
HETATM   38  H   UNL     1     -44.082  59.729 -50.447  1.00  0.00     0.277 HD
HETATM   39  C   UNL     1     -45.821  59.929 -51.548  1.00  0.00     0.260 C 
HETATM   40  C   UNL     1     -46.468  60.884 -52.581  1.00  0.00     0.262 C 
ENDBRANCH  31  32
ENDBRANCH  30  31
ENDBRANCH   3  30
TORSDOF 10
ENDMDL
MODEL 4
REMARK VINA RESULT:      -7.4      4.650      7.644
REMARK  10 active torsions:
REMARK  status: ('A' for Active; 'I' for Inactive)
REMARK    1  A    between atoms: C_2  and  O_3 
REMARK    2  A    between atoms: O_3  and  C_4 
REMARK    3  A    between atoms: C_7  and  C_8 
REMARK    4  A    between atoms: C_8  and  C_9 
REMARK    5  A    between atoms: C_10  and  C_11 
REMARK    6  A    between atoms: C_14  and  N_15 
REMARK    7  A    between atoms: N_20  and  C_21 
REMARK    8  A    between atoms: C_21  and  C_22 
REMARK    9  A    between atoms: C_22  and  N_23 
REMARK   10  A    between atoms: C_34  and  O_35 
ROOT
HETATM    1  C   UNL     1     -43.227  57.867 -55.561  1.00  0.00     0.059 C 
HETATM    2  C   UNL     1     -42.499  57.902 -56.869  1.00  0.00     0.161 C 
HETATM    3  N   UNL     1     -42.298  59.342 -57.027  1.00  0.00    -0.332 N 
HETATM    4  C   UNL     1     -43.094  60.050 -56.143  1.00  0.00     0.278 C 
HETATM    5  O   UNL     1     -43.298  61.251 -56.200  1.00  0.00    -0.265 OA
HETATM    6  C   UNL     1     -43.602  59.087 -55.147  1.00  0.00     0.146 C 
ENDROOT
BRANCH   1   7
HETATM    7  C   UNL     1     -43.607  56.671 -54.788  1.00  0.00     0.193 C 
HETATM    8  O   UNL     1     -44.715  56.614 -54.263  1.00  0.00    -0.287 OA
BRANCH   7   9
HETATM    9  C   UNL     1     -42.678  55.530 -54.687  1.00  0.00     0.015 A 
HETATM   10  C   UNL     1     -43.050  54.241 -55.083  1.00  0.00     0.018 A 
HETATM   11  C   UNL     1     -42.142  53.182 -54.957  1.00  0.00     0.038 A 
HETATM   12  C   UNL     1     -40.858  53.412 -54.462  1.00  0.00     0.069 A 
HETATM   13  C   UNL     1     -40.485  54.712 -54.110  1.00  0.00     0.038 A 
HETATM   14  C   UNL     1     -41.385  55.772 -54.222  1.00  0.00     0.018 A 
BRANCH  12  15
HETATM   15  O   UNL     1     -39.869  52.487 -54.299  1.00  0.00    -0.347 OA
BRANCH  15  16
HETATM   16  C   UNL     1     -40.102  51.308 -53.523  1.00  0.00     0.120 C 
HETATM   17  C   UNL     1     -39.384  51.429 -52.181  1.00  0.00     0.040 C 
HETATM   18  C   UNL     1     -39.535  50.135 -54.318  1.00  0.00     0.040 C 
ENDBRANCH  15  16
ENDBRANCH  12  15
ENDBRANCH   7   9
ENDBRANCH   1   7
BRANCH   2  19
HETATM   19  C   UNL     1     -43.294  57.299 -58.016  1.00  0.00    -0.030 A 
HETATM   20  C   UNL     1     -44.610  57.716 -58.307  1.00  0.00     0.012 A 
HETATM   21  C   UNL     1     -45.337  57.128 -59.346  1.00  0.00     0.037 A 
HETATM   22  C   UNL     1     -44.756  56.107 -60.104  1.00  0.00     0.102 A 
HETATM   23  C   UNL     1     -43.455  55.672 -59.828  1.00  0.00     0.037 A 
HETATM   24  C   UNL     1     -42.730  56.270 -58.792  1.00  0.00     0.012 A 
BRANCH  22  25
HETATM   25  N   UNL     1     -45.513  55.499 -61.204  1.00  0.00    -0.116 N 
HETATM   26  O   UNL     1     -44.906  54.707 -61.940  1.00  0.00    -0.532 OA
HETATM   27  O   UNL     1     -46.710  55.791 -61.308  1.00  0.00    -0.532 OA
ENDBRANCH  22  25
ENDBRANCH   2  19
BRANCH   6  28
HETATM   28  O   UNL     1     -44.325  59.443 -54.047  1.00  0.00    -0.355 OA
HETATM   29  H   UNL     1     -44.869  58.664 -53.782  1.00  0.00     0.218 HD
ENDBRANCH   6  28
BRANCH   3  30
HETATM   30  C   UNL     1     -41.639  59.951 -58.177  1.00  0.00     0.155 C 
BRANCH  30  31
HETATM   31  C   UNL     1     -42.632  60.699 -59.112  1.00  0.00     0.254 C 
BRANCH  31  32
HETATM   32  N   UNL     1     -42.383  62.208 -59.242  1.00  0.00    -0.066 N 
HETATM   33  H   UNL     1     -43.201  62.643 -58.783  1.00  0.00     0.280 HD
HETATM   34  C   UNL     1     -42.437  62.663 -60.712  1.00  0.00     0.262 C 
HETATM   35  C   UNL     1     -41.105  62.392 -61.461  1.00  0.00     0.260 C 
HETATM   36  N   UNL     1     -39.943  63.017 -60.739  1.00  0.00    -0.072 N 
HETATM   37  H   UNL     1     -39.957  64.047 -60.816  1.00  0.00     0.277 HD
HETATM   38  H   UNL     1     -39.069  62.742 -61.222  1.00  0.00     0.277 HD
HETATM   39  C   UNL     1     -39.820  62.584 -59.301  1.00  0.00     0.260 C 
HETATM   40  C   UNL     1     -41.147  62.777 -58.526  1.00  0.00     0.262 C 
ENDBRANCH  31  32
ENDBRANCH  30  31
ENDBRANCH   3  30
TORSDOF 10
ENDMDL
MODEL 5
REMARK VINA RESULT:      -7.4      2.732      6.134
REMARK  10 active torsions:
REMARK  status: ('A' for Active; 'I' for Inactive)
REMARK    1  A    between atoms: C_2  and  O_3 
REMARK    2  A    between atoms: O_3  and  C_4 
REMARK    3  A    between atoms: C_7  and  C_8 
REMARK    4  A    between atoms: C_8  and  C_9 
REMARK    5  A    between atoms: C_10  and  C_11 
REMARK    6  A    between atoms: C_14  and  N_15 
REMARK    7  A    between atoms: N_20  and  C_21 
REMARK    8  A    between atoms: C_21  and  C_22 
REMARK    9  A    between atoms: C_22  and  N_23 
REMARK   10  A    between atoms: C_34  and  O_35 
ROOT
HETATM    1  C   UNL     1     -41.669  58.220 -52.213  1.00  0.00     0.059 C 
HETATM    2  C   UNL     1     -43.134  58.391 -52.470  1.00  0.00     0.161 C 
HETATM    3  N   UNL     1     -43.106  58.958 -53.818  1.00  0.00    -0.332 N 
HETATM    4  C   UNL     1     -41.831  59.384 -54.147  1.00  0.00     0.278 C 
HETATM    5  O   UNL     1     -41.558  60.088 -55.104  1.00  0.00    -0.265 OA
HETATM    6  C   UNL     1     -40.909  58.810 -53.148  1.00  0.00     0.146 C 
ENDROOT
BRANCH   1   7
HETATM    7  C   UNL     1     -41.042  57.567 -51.049  1.00  0.00     0.193 C 
HETATM    8  O   UNL     1     -40.664  58.249 -50.101  1.00  0.00    -0.287 OA
BRANCH   7   9
HETATM    9  C   UNL     1     -40.916  56.098 -51.005  1.00  0.00     0.015 A 
HETATM   10  C   UNL     1     -40.323  55.443 -49.921  1.00  0.00     0.018 A 
HETATM   11  C   UNL     1     -40.210  54.047 -49.925  1.00  0.00     0.038 A 
HETATM   12  C   UNL     1     -40.709  53.305 -50.996  1.00  0.00     0.069 A 
HETATM   13  C   UNL     1     -41.337  53.969 -52.053  1.00  0.00     0.038 A 
HETATM   14  C   UNL     1     -41.446  55.360 -52.063  1.00  0.00     0.018 A 
BRANCH  12  15
HETATM   15  O   UNL     1     -40.684  51.947 -51.129  1.00  0.00    -0.347 OA
BRANCH  15  16
HETATM   16  C   UNL     1     -39.508  51.290 -51.610  1.00  0.00     0.120 C 
HETATM   17  C   UNL     1     -39.587  51.145 -53.128  1.00  0.00     0.040 C 
HETATM   18  C   UNL     1     -39.470  49.913 -50.953  1.00  0.00     0.040 C 
ENDBRANCH  15  16
ENDBRANCH  12  15
ENDBRANCH   7   9
ENDBRANCH   1   7
BRANCH   2  19
HETATM   19  C   UNL     1     -43.817  59.311 -51.470  1.00  0.00    -0.030 A 
HETATM   20  C   UNL     1     -43.209  60.503 -51.023  1.00  0.00     0.012 A 
HETATM   21  C   UNL     1     -43.838  61.320 -50.079  1.00  0.00     0.037 A 
HETATM   22  C   UNL     1     -45.084  60.948 -49.564  1.00  0.00     0.102 A 
HETATM   23  C   UNL     1     -45.701  59.766 -49.987  1.00  0.00     0.037 A 
HETATM   24  C   UNL     1     -45.069  58.957 -50.938  1.00  0.00     0.012 A 
BRANCH  22  25
HETATM   25  N   UNL     1     -45.751  61.812 -48.584  1.00  0.00    -0.116 N 
HETATM   26  O   UNL     1     -46.939  62.097 -48.796  1.00  0.00    -0.532 OA
HETATM   27  O   UNL     1     -45.098  62.174 -47.598  1.00  0.00    -0.532 OA
ENDBRANCH  22  25
ENDBRANCH   2  19
BRANCH   6  28
HETATM   28  O   UNL     1     -39.551  58.914 -53.220  1.00  0.00    -0.355 OA
HETATM   29  H   UNL     1     -39.193  58.789 -52.309  1.00  0.00     0.218 HD
ENDBRANCH   6  28
BRANCH   3  30
HETATM   30  C   UNL     1     -44.298  59.349 -54.562  1.00  0.00     0.155 C 
BRANCH  30  31
HETATM   31  C   UNL     1     -44.628  58.371 -55.726  1.00  0.00     0.254 C 
BRANCH  31  32
HETATM   32  N   UNL     1     -43.715  58.495 -56.952  1.00  0.00    -0.066 N 
HETATM   33  H   UNL     1     -43.179  59.363 -56.786  1.00  0.00     0.280 HD
HETATM   34  C   UNL     1     -44.527  58.744 -58.237  1.00  0.00     0.262 C 
HETATM   35  C   UNL     1     -45.116  57.434 -58.824  1.00  0.00     0.260 C 
HETATM   36  N   UNL     1     -44.036  56.411 -59.051  1.00  0.00    -0.072 N 
HETATM   37  H   UNL     1     -43.424  56.673 -59.841  1.00  0.00     0.277 HD
HETATM   38  H   UNL     1     -44.480  55.528 -59.360  1.00  0.00     0.277 HD
HETATM   39  C   UNL     1     -43.226  56.102 -57.818  1.00  0.00     0.260 C 
HETATM   40  C   UNL     1     -42.668  57.388 -57.159  1.00  0.00     0.262 C 
ENDBRANCH  31  32
ENDBRANCH  30  31
ENDBRANCH   3  30
TORSDOF 10
ENDMDL
MODEL 6
REMARK VINA RESULT:      -7.4      2.616      4.169
REMARK  10 active torsions:
REMARK  status: ('A' for Active; 'I' for Inactive)
REMARK    1  A    between atoms: C_2  and  O_3 
REMARK    2  A    between atoms: O_3  and  C_4 
REMARK    3  A    between atoms: C_7  and  C_8 
REMARK    4  A    between atoms: C_8  and  C_9 
REMARK    5  A    between atoms: C_10  and  C_11 
REMARK    6  A    between atoms: C_14  and  N_15 
REMARK    7  A    between atoms: N_20  and  C_21 
REMARK    8  A    between atoms: C_21  and  C_22 
REMARK    9  A    between atoms: C_22  and  N_23 
REMARK   10  A    between atoms: C_34  and  O_35 
ROOT
HETATM    1  C   UNL     1     -43.232  56.353 -55.796  1.00  0.00     0.059 C 
HETATM    2  C   UNL     1     -43.728  57.553 -55.052  1.00  0.00     0.161 C 
HETATM    3  N   UNL     1     -43.806  58.530 -56.138  1.00  0.00    -0.332 N 
HETATM    4  C   UNL     1     -43.124  58.079 -57.255  1.00  0.00     0.278 C 
HETATM    5  O   UNL     1     -42.836  58.768 -58.219  1.00  0.00    -0.265 OA
HETATM    6  C   UNL     1     -42.852  56.644 -57.050  1.00  0.00     0.146 C 
ENDROOT
BRANCH   1   7
HETATM    7  C   UNL     1     -43.064  54.987 -55.267  1.00  0.00     0.193 C 
HETATM    8  O   UNL     1     -43.257  54.023 -56.003  1.00  0.00    -0.287 OA
BRANCH   7   9
HETATM    9  C   UNL     1     -42.618  54.782 -53.876  1.00  0.00     0.015 A 
HETATM   10  C   UNL     1     -41.272  54.892 -53.510  1.00  0.00     0.018 A 
HETATM   11  C   UNL     1     -40.890  54.675 -52.180  1.00  0.00     0.038 A 
HETATM   12  C   UNL     1     -41.849  54.375 -51.213  1.00  0.00     0.069 A 
HETATM   13  C   UNL     1     -43.195  54.310 -51.584  1.00  0.00     0.038 A 
HETATM   14  C   UNL     1     -43.586  54.515 -52.908  1.00  0.00     0.018 A 
BRANCH  12  15
HETATM   15  O   UNL     1     -41.628  54.156 -49.885  1.00  0.00    -0.347 OA
BRANCH  15  16
HETATM   16  C   UNL     1     -40.406  53.553 -49.446  1.00  0.00     0.120 C 
HETATM   17  C   UNL     1     -40.445  52.054 -49.729  1.00  0.00     0.040 C 
HETATM   18  C   UNL     1     -40.306  53.801 -47.943  1.00  0.00     0.040 C 
ENDBRANCH  15  16
ENDBRANCH  12  15
ENDBRANCH   7   9
ENDBRANCH   1   7
BRANCH   2  19
HETATM   19  C   UNL     1     -42.793  58.000 -53.938  1.00  0.00    -0.030 A 
HETATM   20  C   UNL     1     -43.216  58.063 -52.595  1.00  0.00     0.012 A 
HETATM   21  C   UNL     1     -42.353  58.507 -51.589  1.00  0.00     0.037 A 
HETATM   22  C   UNL     1     -41.053  58.903 -51.920  1.00  0.00     0.102 A 
HETATM   23  C   UNL     1     -40.615  58.858 -53.248  1.00  0.00     0.037 A 
HETATM   24  C   UNL     1     -41.482  58.404 -54.248  1.00  0.00     0.012 A 
BRANCH  22  25
HETATM   25  N   UNL     1     -40.141  59.355 -50.864  1.00  0.00    -0.116 N 
HETATM   26  O   UNL     1     -40.610  59.473 -49.722  1.00  0.00    -0.532 OA
HETATM   27  O   UNL     1     -38.961  59.559 -51.172  1.00  0.00    -0.532 OA
ENDBRANCH  22  25
ENDBRANCH   2  19
BRANCH   6  28
HETATM   28  O   UNL     1     -42.302  55.832 -57.997  1.00  0.00    -0.355 OA
HETATM   29  H   UNL     1     -42.057  54.983 -57.558  1.00  0.00     0.218 HD
ENDBRANCH   6  28
BRANCH   3  30
HETATM   30  C   UNL     1     -44.224  59.916 -55.958  1.00  0.00     0.155 C 
BRANCH  30  31
HETATM   31  C   UNL     1     -45.304  60.080 -54.852  1.00  0.00     0.254 C 
BRANCH  31  32
HETATM   32  N   UNL     1     -45.377  61.478 -54.223  1.00  0.00    -0.066 N 
HETATM   33  H   UNL     1     -46.026  62.001 -54.835  1.00  0.00     0.280 HD
HETATM   34  C   UNL     1     -44.027  62.211 -54.321  1.00  0.00     0.262 C 
HETATM   35  C   UNL     1     -43.039  61.776 -53.206  1.00  0.00     0.260 C 
HETATM   36  N   UNL     1     -43.654  61.945 -51.844  1.00  0.00    -0.072 N 
HETATM   37  H   UNL     1     -43.744  62.942 -51.589  1.00  0.00     0.277 HD
HETATM   38  H   UNL     1     -42.998  61.565 -51.138  1.00  0.00     0.277 HD
HETATM   39  C   UNL     1     -44.965  61.222 -51.678  1.00  0.00     0.260 C 
HETATM   40  C   UNL     1     -45.965  61.577 -52.806  1.00  0.00     0.262 C 
ENDBRANCH  31  32
ENDBRANCH  30  31
ENDBRANCH   3  30
TORSDOF 10
ENDMDL
MODEL 7
REMARK VINA RESULT:      -7.1      3.667      6.171
REMARK  10 active torsions:
REMARK  status: ('A' for Active; 'I' for Inactive)
REMARK    1  A    between atoms: C_2  and  O_3 
REMARK    2  A    between atoms: O_3  and  C_4 
REMARK    3  A    between atoms: C_7  and  C_8 
REMARK    4  A    between atoms: C_8  and  C_9 
REMARK    5  A    between atoms: C_10  and  C_11 
REMARK    6  A    between atoms: C_14  and  N_15 
REMARK    7  A    between atoms: N_20  and  C_21 
REMARK    8  A    between atoms: C_21  and  C_22 
REMARK    9  A    between atoms: C_22  and  N_23 
REMARK   10  A    between atoms: C_34  and  O_35 
ROOT
HETATM    1  C   UNL     1     -42.421  58.539 -53.508  1.00  0.00     0.059 C 
HETATM    2  C   UNL     1     -42.621  59.326 -54.765  1.00  0.00     0.161 C 
HETATM    3  N   UNL     1     -43.881  60.004 -54.461  1.00  0.00    -0.332 N 
HETATM    4  C   UNL     1     -44.496  59.429 -53.363  1.00  0.00     0.278 C 
HETATM    5  O   UNL     1     -45.647  59.640 -53.021  1.00  0.00    -0.265 OA
HETATM    6  C   UNL     1     -43.498  58.562 -52.707  1.00  0.00     0.146 C 
ENDROOT
BRANCH   1   7
HETATM    7  C   UNL     1     -41.243  57.730 -53.144  1.00  0.00     0.193 C 
HETATM    8  O   UNL     1     -40.275  58.271 -52.614  1.00  0.00    -0.287 OA
BRANCH   7   9
HETATM    9  C   UNL     1     -41.248  56.273 -53.370  1.00  0.00     0.015 A 
HETATM   10  C   UNL     1     -41.978  55.404 -52.553  1.00  0.00     0.018 A 
HETATM   11  C   UNL     1     -41.944  54.024 -52.794  1.00  0.00     0.038 A 
HETATM   12  C   UNL     1     -41.204  53.515 -53.861  1.00  0.00     0.069 A 
HETATM   13  C   UNL     1     -40.513  54.399 -54.696  1.00  0.00     0.038 A 
HETATM   14  C   UNL     1     -40.533  55.774 -54.459  1.00  0.00     0.018 A 
BRANCH  12  15
HETATM   15  O   UNL     1     -41.091  52.205 -54.225  1.00  0.00    -0.347 OA
BRANCH  15  16
HETATM   16  C   UNL     1     -39.866  51.498 -54.005  1.00  0.00     0.120 C 
HETATM   17  C   UNL     1     -40.025  50.049 -54.458  1.00  0.00     0.040 C 
HETATM   18  C   UNL     1     -39.588  51.551 -52.505  1.00  0.00     0.040 C 
ENDBRANCH  15  16
ENDBRANCH  12  15
ENDBRANCH   7   9
ENDBRANCH   1   7
BRANCH   2  19
HETATM   19  C   UNL     1     -42.718  58.457 -56.010  1.00  0.00    -0.030 A 
HETATM   20  C   UNL     1     -43.407  57.226 -56.004  1.00  0.00     0.012 A 
HETATM   21  C   UNL     1     -43.458  56.426 -57.148  1.00  0.00     0.037 A 
HETATM   22  C   UNL     1     -42.813  56.846 -58.315  1.00  0.00     0.102 A 
HETATM   23  C   UNL     1     -42.116  58.060 -58.341  1.00  0.00     0.037 A 
HETATM   24  C   UNL     1     -42.075  58.859 -57.194  1.00  0.00     0.012 A 
BRANCH  22  25
HETATM   25  N   UNL     1     -42.878  56.014 -59.522  1.00  0.00    -0.116 N 
HETATM   26  O   UNL     1     -42.085  56.280 -60.437  1.00  0.00    -0.532 OA
HETATM   27  O   UNL     1     -43.696  55.087 -59.536  1.00  0.00    -0.532 OA
ENDBRANCH  22  25
ENDBRANCH   2  19
BRANCH   6  28
HETATM   28  O   UNL     1     -43.708  57.925 -51.520  1.00  0.00    -0.355 OA
HETATM   29  H   UNL     1     -42.837  57.584 -51.206  1.00  0.00     0.218 HD
ENDBRANCH   6  28
BRANCH   3  30
HETATM   30  C   UNL     1     -44.563  60.906 -55.382  1.00  0.00     0.155 C 
BRANCH  30  31
HETATM   31  C   UNL     1     -45.642  60.185 -56.240  1.00  0.00     0.254 C 
BRANCH  31  32
HETATM   32  N   UNL     1     -45.535  60.430 -57.751  1.00  0.00    -0.066 N 
HETATM   33  H   UNL     1     -44.579  60.801 -57.884  1.00  0.00     0.280 HD
HETATM   34  C   UNL     1     -46.486  61.551 -58.209  1.00  0.00     0.262 C 
HETATM   35  C   UNL     1     -47.940  61.045 -58.407  1.00  0.00     0.260 C 
HETATM   36  N   UNL     1     -47.979  59.875 -59.352  1.00  0.00    -0.072 N 
HETATM   37  H   UNL     1     -47.783  60.165 -60.324  1.00  0.00     0.277 HD
HETATM   38  H   UNL     1     -48.950  59.516 -59.390  1.00  0.00     0.277 HD
HETATM   39  C   UNL     1     -47.090  58.732 -58.938  1.00  0.00     0.260 C 
HETATM   40  C   UNL     1     -45.639  59.200 -58.668  1.00  0.00     0.262 C 
ENDBRANCH  31  32
ENDBRANCH  30  31
ENDBRANCH   3  30
TORSDOF 10
ENDMDL
MODEL 8
REMARK VINA RESULT:      -7.1      2.669      3.807
REMARK  10 active torsions:
REMARK  status: ('A' for Active; 'I' for Inactive)
REMARK    1  A    between atoms: C_2  and  O_3 
REMARK    2  A    between atoms: O_3  and  C_4 
REMARK    3  A    between atoms: C_7  and  C_8 
REMARK    4  A    between atoms: C_8  and  C_9 
REMARK    5  A    between atoms: C_10  and  C_11 
REMARK    6  A    between atoms: C_14  and  N_15 
REMARK    7  A    between atoms: N_20  and  C_21 
REMARK    8  A    between atoms: C_21  and  C_22 
REMARK    9  A    between atoms: C_22  and  N_23 
REMARK   10  A    between atoms: C_34  and  O_35 
ROOT
HETATM    1  C   UNL     1     -42.849  57.527 -56.796  1.00  0.00     0.059 C 
HETATM    2  C   UNL     1     -43.409  58.511 -55.817  1.00  0.00     0.161 C 
HETATM    3  N   UNL     1     -43.148  59.767 -56.519  1.00  0.00    -0.332 N 
HETATM    4  C   UNL     1     -42.259  59.573 -57.561  1.00  0.00     0.278 C 
HETATM    5  O   UNL     1     -41.696  60.466 -58.171  1.00  0.00    -0.265 OA
HETATM    6  C   UNL     1     -42.161  58.118 -57.785  1.00  0.00     0.146 C 
ENDROOT
BRANCH   1   7
HETATM    7  C   UNL     1     -42.922  56.056 -56.719  1.00  0.00     0.193 C 
HETATM    8  O   UNL     1     -43.193  55.407 -57.726  1.00  0.00    -0.287 OA
BRANCH   7   9
HETATM    9  C   UNL     1     -42.624  55.367 -55.450  1.00  0.00     0.015 A 
HETATM   10  C   UNL     1     -43.639  54.908 -54.604  1.00  0.00     0.018 A 
HETATM   11  C   UNL     1     -43.312  54.270 -53.400  1.00  0.00     0.038 A 
HETATM   12  C   UNL     1     -41.976  54.070 -53.052  1.00  0.00     0.069 A 
HETATM   13  C   UNL     1     -40.971  54.496 -53.926  1.00  0.00     0.038 A 
HETATM   14  C   UNL     1     -41.287  55.140 -55.123  1.00  0.00     0.018 A 
BRANCH  12  15
HETATM   15  O   UNL     1     -41.509  53.455 -51.927  1.00  0.00    -0.347 OA
BRANCH  15  16
HETATM   16  C   UNL     1     -40.104  53.398 -51.666  1.00  0.00     0.120 C 
HETATM   17  C   UNL     1     -39.629  51.949 -51.733  1.00  0.00     0.040 C 
HETATM   18  C   UNL     1     -39.892  53.955 -50.260  1.00  0.00     0.040 C 
ENDBRANCH  15  16
ENDBRANCH  12  15
ENDBRANCH   7   9
ENDBRANCH   1   7
BRANCH   2  19
HETATM   19  C   UNL     1     -42.733  58.457 -54.456  1.00  0.00    -0.030 A 
HETATM   20  C   UNL     1     -41.356  58.720 -54.300  1.00  0.00     0.012 A 
HETATM   21  C   UNL     1     -40.745  58.635 -53.046  1.00  0.00     0.037 A 
HETATM   22  C   UNL     1     -41.506  58.276 -51.930  1.00  0.00     0.102 A 
HETATM   23  C   UNL     1     -42.872  58.001 -52.062  1.00  0.00     0.037 A 
HETATM   24  C   UNL     1     -43.479  58.096 -53.319  1.00  0.00     0.012 A 
BRANCH  22  25
HETATM   25  N   UNL     1     -40.869  58.200 -50.610  1.00  0.00    -0.116 N 
HETATM   26  O   UNL     1     -41.113  57.199 -49.920  1.00  0.00    -0.532 OA
HETATM   27  O   UNL     1     -40.109  59.119 -50.286  1.00  0.00    -0.532 OA
ENDBRANCH  22  25
ENDBRANCH   2  19
BRANCH   6  28
HETATM   28  O   UNL     1     -41.468  57.553 -58.815  1.00  0.00    -0.355 OA
HETATM   29  H   UNL     1     -41.193  58.280 -59.423  1.00  0.00     0.218 HD
ENDBRANCH   6  28
BRANCH   3  30
HETATM   30  C   UNL     1     -43.483  61.083 -55.985  1.00  0.00     0.155 C 
BRANCH  30  31
HETATM   31  C   UNL     1     -44.869  61.110 -55.279  1.00  0.00     0.254 C 
BRANCH  31  32
HETATM   32  N   UNL     1     -44.819  61.371 -53.768  1.00  0.00    -0.066 N 
HETATM   33  H   UNL     1     -44.189  60.638 -53.401  1.00  0.00     0.280 HD
HETATM   34  C   UNL     1     -46.186  61.118 -53.107  1.00  0.00     0.262 C 
HETATM   35  C   UNL     1     -47.151  62.322 -53.270  1.00  0.00     0.260 C 
HETATM   36  N   UNL     1     -46.523  63.589 -52.756  1.00  0.00    -0.072 N 
HETATM   37  H   UNL     1     -46.452  63.587 -51.726  1.00  0.00     0.277 HD
HETATM   38  H   UNL     1     -47.162  64.378 -52.961  1.00  0.00     0.277 HD
HETATM   39  C   UNL     1     -45.195  63.907 -53.391  1.00  0.00     0.260 C 
HETATM   40  C   UNL     1     -44.217  62.710 -53.309  1.00  0.00     0.262 C 
ENDBRANCH  31  32
ENDBRANCH  30  31
ENDBRANCH   3  30
TORSDOF 10
ENDMDL
MODEL 9
REMARK VINA RESULT:      -7.0      3.012      5.186
REMARK  10 active torsions:
REMARK  status: ('A' for Active; 'I' for Inactive)
REMARK    1  A    between atoms: C_2  and  O_3 
REMARK    2  A    between atoms: O_3  and  C_4 
REMARK    3  A    between atoms: C_7  and  C_8 
REMARK    4  A    between atoms: C_8  and  C_9 
REMARK    5  A    between atoms: C_10  and  C_11 
REMARK    6  A    between atoms: C_14  and  N_15 
REMARK    7  A    between atoms: N_20  and  C_21 
REMARK    8  A    between atoms: C_21  and  C_22 
REMARK    9  A    between atoms: C_22  and  N_23 
REMARK   10  A    between atoms: C_34  and  O_35 
ROOT
HETATM    1  C   UNL     1     -42.307  58.656 -53.603  1.00  0.00     0.059 C 
HETATM    2  C   UNL     1     -42.595  59.420 -54.857  1.00  0.00     0.161 C 
HETATM    3  N   UNL     1     -43.873  60.040 -54.508  1.00  0.00    -0.332 N 
HETATM    4  C   UNL     1     -44.416  59.446 -53.382  1.00  0.00     0.278 C 
HETATM    5  O   UNL     1     -45.561  59.605 -52.996  1.00  0.00    -0.265 OA
HETATM    6  C   UNL     1     -43.351  58.635 -52.760  1.00  0.00     0.146 C 
ENDROOT
BRANCH   1   7
HETATM    7  C   UNL     1     -41.078  57.908 -53.280  1.00  0.00     0.193 C 
HETATM    8  O   UNL     1     -40.122  58.497 -52.783  1.00  0.00    -0.287 OA
BRANCH   7   9
HETATM    9  C   UNL     1     -41.016  56.453 -53.508  1.00  0.00     0.015 A 
HETATM   10  C   UNL     1     -40.447  55.912 -54.666  1.00  0.00     0.018 A 
HETATM   11  C   UNL     1     -40.422  54.523 -54.849  1.00  0.00     0.038 A 
HETATM   12  C   UNL     1     -40.941  53.676 -53.870  1.00  0.00     0.069 A 
HETATM   13  C   UNL     1     -41.468  54.227 -52.699  1.00  0.00     0.038 A 
HETATM   14  C   UNL     1     -41.506  55.609 -52.511  1.00  0.00     0.018 A 
BRANCH  12  15
HETATM   15  O   UNL     1     -40.971  52.312 -53.904  1.00  0.00    -0.347 OA
BRANCH  15  16
HETATM   16  C   UNL     1     -39.759  51.560 -53.781  1.00  0.00     0.120 C 
HETATM   17  C   UNL     1     -39.937  50.193 -54.437  1.00  0.00     0.040 C 
HETATM   18  C   UNL     1     -39.490  51.395 -52.288  1.00  0.00     0.040 C 
ENDBRANCH  15  16
ENDBRANCH  12  15
ENDBRANCH   7   9
ENDBRANCH   1   7
BRANCH   2  19
HETATM   19  C   UNL     1     -42.699  58.536 -56.090  1.00  0.00    -0.030 A 
HETATM   20  C   UNL     1     -43.410  57.318 -56.073  1.00  0.00     0.012 A 
HETATM   21  C   UNL     1     -43.468  56.503 -57.206  1.00  0.00     0.037 A 
HETATM   22  C   UNL     1     -42.806  56.895 -58.374  1.00  0.00     0.102 A 
HETATM   23  C   UNL     1     -42.087  58.095 -58.412  1.00  0.00     0.037 A 
HETATM   24  C   UNL     1     -42.040  58.910 -57.275  1.00  0.00     0.012 A 
BRANCH  22  25
HETATM   25  N   UNL     1     -42.879  56.047 -59.569  1.00  0.00    -0.116 N 
HETATM   26  O   UNL     1     -43.758  55.173 -59.591  1.00  0.00    -0.532 OA
HETATM   27  O   UNL     1     -42.082  56.278 -60.486  1.00  0.00    -0.532 OA
ENDBRANCH  22  25
ENDBRANCH   2  19
BRANCH   6  28
HETATM   28  O   UNL     1     -43.483  57.999 -51.561  1.00  0.00    -0.355 OA
HETATM   29  H   UNL     1     -44.443  57.992 -51.331  1.00  0.00     0.218 HD
ENDBRANCH   6  28
BRANCH   3  30
HETATM   30  C   UNL     1     -44.634  60.899 -55.408  1.00  0.00     0.155 C 
BRANCH  30  31
HETATM   31  C   UNL     1     -43.905  62.235 -55.725  1.00  0.00     0.254 C 
BRANCH  31  32
HETATM   32  N   UNL     1     -44.564  63.487 -55.131  1.00  0.00    -0.066 N 
HETATM   33  H   UNL     1     -45.216  63.807 -55.867  1.00  0.00     0.280 HD
HETATM   34  C   UNL     1     -43.546  64.628 -54.950  1.00  0.00     0.262 C 
HETATM   35  C   UNL     1     -42.709  64.469 -53.653  1.00  0.00     0.260 C 
HETATM   36  N   UNL     1     -43.601  64.338 -52.448  1.00  0.00    -0.072 N 
HETATM   37  H   UNL     1     -44.068  65.230 -52.222  1.00  0.00     0.277 HD
HETATM   38  H   UNL     1     -43.008  64.149 -51.620  1.00  0.00     0.277 HD
HETATM   39  C   UNL     1     -44.600  63.215 -52.555  1.00  0.00     0.260 C 
HETATM   40  C   UNL     1     -45.418  63.295 -53.867  1.00  0.00     0.262 C 
ENDBRANCH  31  32
ENDBRANCH  30  31
ENDBRANCH   3  30
TORSDOF 10
ENDMDL
MODEL 10
REMARK VINA RESULT:      -6.9      2.774      5.020
REMARK  10 active torsions:
REMARK  status: ('A' for Active; 'I' for Inactive)
REMARK    1  A    between atoms: C_2  and  O_3 
REMARK    2  A    between atoms: O_3  and  C_4 
REMARK    3  A    between atoms: C_7  and  C_8 
REMARK    4  A    between atoms: C_8  and  C_9 
REMARK    5  A    between atoms: C_10  and  C_11 
REMARK    6  A    between atoms: C_14  and  N_15 
REMARK    7  A    between atoms: N_20  and  C_21 
REMARK    8  A    between atoms: C_21  and  C_22 
REMARK    9  A    between atoms: C_22  and  N_23 
REMARK   10  A    between atoms: C_34  and  O_35 
ROOT
HETATM    1  C   UNL     1     -43.981  58.048 -51.398  1.00  0.00     0.059 C 
HETATM    2  C   UNL     1     -42.927  58.624 -52.292  1.00  0.00     0.161 C 
HETATM    3  N   UNL     1     -43.268  60.045 -52.230  1.00  0.00    -0.332 N 
HETATM    4  C   UNL     1     -44.527  60.225 -51.685  1.00  0.00     0.278 C 
HETATM    5  O   UNL     1     -45.154  61.271 -51.714  1.00  0.00    -0.265 OA
HETATM    6  C   UNL     1     -44.922  58.945 -51.066  1.00  0.00     0.146 C 
ENDROOT
BRANCH   1   7
HETATM    7  C   UNL     1     -44.099  56.648 -50.951  1.00  0.00     0.193 C 
HETATM    8  O   UNL     1     -45.063  56.307 -50.270  1.00  0.00    -0.287 OA
BRANCH   7   9
HETATM    9  C   UNL     1     -43.091  55.654 -51.361  1.00  0.00     0.015 A 
HETATM   10  C   UNL     1     -41.853  55.552 -50.717  1.00  0.00     0.018 A 
HETATM   11  C   UNL     1     -40.917  54.602 -51.147  1.00  0.00     0.038 A 
HETATM   12  C   UNL     1     -41.225  53.740 -52.201  1.00  0.00     0.069 A 
HETATM   13  C   UNL     1     -42.481  53.824 -52.807  1.00  0.00     0.038 A 
HETATM   14  C   UNL     1     -43.417  54.773 -52.392  1.00  0.00     0.018 A 
BRANCH  12  15
HETATM   15  O   UNL     1     -40.425  52.762 -52.714  1.00  0.00    -0.347 OA
BRANCH  15  16
HETATM   16  C   UNL     1     -40.630  52.287 -54.049  1.00  0.00     0.120 C 
HETATM   17  C   UNL     1     -39.893  50.965 -54.240  1.00  0.00     0.040 C 
HETATM   18  C   UNL     1     -40.059  53.347 -54.987  1.00  0.00     0.040 C 
ENDBRANCH  15  16
ENDBRANCH  12  15
ENDBRANCH   7   9
ENDBRANCH   1   7
BRANCH   2  19
HETATM   19  C   UNL     1     -42.979  58.078 -53.711  1.00  0.00    -0.030 A 
HETATM   20  C   UNL     1     -44.186  58.009 -54.436  1.00  0.00     0.012 A 
HETATM   21  C   UNL     1     -44.220  57.475 -55.727  1.00  0.00     0.037 A 
HETATM   22  C   UNL     1     -43.042  56.995 -56.308  1.00  0.00     0.102 A 
HETATM   23  C   UNL     1     -41.833  57.046 -55.603  1.00  0.00     0.037 A 
HETATM   24  C   UNL     1     -41.806  57.589 -54.314  1.00  0.00     0.012 A 
BRANCH  22  25
HETATM   25  N   UNL     1     -43.073  56.448 -57.669  1.00  0.00    -0.116 N 
HETATM   26  O   UNL     1     -43.302  55.235 -57.786  1.00  0.00    -0.532 OA
HETATM   27  O   UNL     1     -42.899  57.234 -58.607  1.00  0.00    -0.532 OA
ENDBRANCH  22  25
ENDBRANCH   2  19
BRANCH   6  28
HETATM   28  O   UNL     1     -46.054  58.778 -50.324  1.00  0.00    -0.355 OA
HETATM   29  H   UNL     1     -45.810  58.262 -49.519  1.00  0.00     0.218 HD
ENDBRANCH   6  28
BRANCH   3  30
HETATM   30  C   UNL     1     -42.553  61.086 -52.959  1.00  0.00     0.155 C 
BRANCH  30  31
HETATM   31  C   UNL     1     -43.230  61.447 -54.311  1.00  0.00     0.254 C 
BRANCH  31  32
HETATM   32  N   UNL     1     -42.982  62.882 -54.796  1.00  0.00    -0.066 N 
HETATM   33  H   UNL     1     -41.952  62.964 -54.836  1.00  0.00     0.280 HD
HETATM   34  C   UNL     1     -43.444  63.916 -53.753  1.00  0.00     0.262 C 
HETATM   35  C   UNL     1     -44.972  64.174 -53.816  1.00  0.00     0.260 C 
HETATM   36  N   UNL     1     -45.395  64.571 -55.204  1.00  0.00    -0.072 N 
HETATM   37  H   UNL     1     -45.069  65.522 -55.443  1.00  0.00     0.277 HD
HETATM   38  H   UNL     1     -46.428  64.650 -55.223  1.00  0.00     0.277 HD
HETATM   39  C   UNL     1     -44.998  63.579 -56.265  1.00  0.00     0.260 C 
HETATM   40  C   UNL     1     -43.488  63.242 -56.202  1.00  0.00     0.262 C 
ENDBRANCH  31  32
ENDBRANCH  30  31
ENDBRANCH   3  30
TORSDOF 10
ENDMDL
