MODEL 1
REMARK VINA RESULT:      -7.8      0.000      0.000
REMARK  3 active torsions:
REMARK  status: ('A' for Active; 'I' for Inactive)
REMARK    1  A    between atoms: C_9  and  C_10 
REMARK    2  A    between atoms: C_16  and  C_17 
REMARK       I    between atoms: C_17  and  N_18 
REMARK    3  A    between atoms: N_18  and  C_19 
ROOT
HETATM    1  C   UNL     1     -41.761  54.512 -49.200  1.00  0.00     0.070 C 
HETATM    2  C   UNL     1     -41.545  55.586 -50.234  1.00  0.00     0.037 A 
HETATM    3  N   UNL     1     -41.432  56.883 -49.745  1.00  0.00    -0.192 N 
HETATM    4  C   UNL     1     -41.057  57.927 -50.510  1.00  0.00     0.725 A 
HETATM    5  N   UNL     1     -40.894  57.750 -51.858  1.00  0.00    -0.082 N 
HETATM    6  N   UNL     1     -40.378  58.859 -52.437  1.00  0.00    -0.149 NA
HETATM    7  C   UNL     1     -40.344  59.689 -51.388  1.00  0.00     0.275 A 
HETATM    8  N   UNL     1     -40.745  59.157 -50.190  1.00  0.00    -0.054 NA
HETATM    9  C   UNL     1     -41.110  56.480 -52.552  1.00  0.00     0.221 A 
HETATM   10  C   UNL     1     -41.407  55.361 -51.563  1.00  0.00     0.064 A 
HETATM   11  H   UNL     1     -41.473  57.014 -48.738  1.00  0.00     0.184 HD
ENDROOT
BRANCH  10  12
HETATM   12  C   UNL     1     -41.466  54.018 -52.188  1.00  0.00     0.256 C 
HETATM   13  N   UNL     1     -40.285  53.321 -52.094  1.00  0.00    -0.322 N 
HETATM   14  H   UNL     1     -39.547  53.750 -51.546  1.00  0.00     0.169 HD
HETATM   15  O   UNL     1     -42.521  53.637 -52.678  1.00  0.00    -0.267 OA
BRANCH  13  16
HETATM   16  C   UNL     1     -40.012  52.052 -52.643  1.00  0.00     0.052 A 
HETATM   17  C   UNL     1     -39.717  50.907 -51.909  1.00  0.00     0.145 A 
HETATM   18  N   UNL     1     -39.476  49.688 -52.462  1.00  0.00    -0.271 NA
HETATM   19  C   UNL     1     -39.535  49.606 -53.807  1.00  0.00     0.116 A 
HETATM   20  C   UNL     1     -39.820  50.683 -54.626  1.00  0.00     0.021 A 
HETATM   21  C   UNL     1     -40.056  51.922 -54.034  1.00  0.00     0.032 A 
ENDBRANCH  13  16
ENDBRANCH  10  12
BRANCH   9  22
HETATM   22  C   UNL     1     -42.219  56.659 -53.583  1.00  0.00     0.064 A 
HETATM   23  N   UNL     1     -41.916  56.474 -54.901  1.00  0.00    -0.263 NA
HETATM   24  C   UNL     1     -42.922  56.609 -55.795  1.00  0.00     0.117 A 
HETATM   25  C   UNL     1     -44.224  56.931 -55.452  1.00  0.00     0.019 A 
HETATM   26  C   UNL     1     -44.519  57.122 -54.108  1.00  0.00     0.003 A 
HETATM   27  C   UNL     1     -43.510  56.982 -53.160  1.00  0.00     0.030 A 
ENDBRANCH   9  22
TORSDOF 3
ENDMDL
MODEL 2
REMARK VINA RESULT:      -7.7      1.951      4.220
REMARK  3 active torsions:
REMARK  status: ('A' for Active; 'I' for Inactive)
REMARK    1  A    between atoms: C_9  and  C_10 
REMARK    2  A    between atoms: C_16  and  C_17 
REMARK       I    between atoms: C_17  and  N_18 
REMARK    3  A    between atoms: N_18  and  C_19 
ROOT
HETATM    1  C   UNL     1     -43.234  54.599 -56.215  1.00  0.00     0.070 C 
HETATM    2  C   UNL     1     -43.468  55.800 -55.336  1.00  0.00     0.037 A 
HETATM    3  N   UNL     1     -44.009  56.915 -55.966  1.00  0.00    -0.192 N 
HETATM    4  C   UNL     1     -44.446  57.999 -55.294  1.00  0.00     0.725 A 
HETATM    5  N   UNL     1     -44.245  58.079 -53.942  1.00  0.00    -0.082 N 
HETATM    6  N   UNL     1     -44.874  59.158 -53.419  1.00  0.00    -0.149 NA
HETATM    7  C   UNL     1     -45.354  59.724 -54.531  1.00  0.00     0.275 A 
HETATM    8  N   UNL     1     -45.119  59.045 -55.698  1.00  0.00    -0.054 NA
HETATM    9  C   UNL     1     -43.566  57.053 -53.150  1.00  0.00     0.221 A 
HETATM   10  C   UNL     1     -43.236  55.835 -54.001  1.00  0.00     0.064 A 
HETATM   11  H   UNL     1     -44.235  56.838 -56.953  1.00  0.00     0.184 HD
ENDROOT
BRANCH  10  12
HETATM   12  C   UNL     1     -42.701  54.694 -53.221  1.00  0.00     0.256 C 
HETATM   13  N   UNL     1     -41.443  54.306 -53.616  1.00  0.00    -0.322 N 
HETATM   14  H   UNL     1     -40.991  54.880 -54.319  1.00  0.00     0.169 HD
HETATM   15  O   UNL     1     -43.371  54.236 -52.305  1.00  0.00    -0.267 OA
BRANCH  13  16
HETATM   16  C   UNL     1     -40.701  53.219 -53.112  1.00  0.00     0.052 A 
HETATM   17  C   UNL     1     -40.235  53.103 -51.806  1.00  0.00     0.145 A 
HETATM   18  N   UNL     1     -39.538  52.034 -51.337  1.00  0.00    -0.271 NA
HETATM   19  C   UNL     1     -39.298  51.033 -52.208  1.00  0.00     0.116 A 
HETATM   20  C   UNL     1     -39.718  51.049 -53.525  1.00  0.00     0.021 A 
HETATM   21  C   UNL     1     -40.425  52.161 -53.982  1.00  0.00     0.032 A 
ENDBRANCH  13  16
ENDBRANCH  10  12
BRANCH   9  22
HETATM   22  C   UNL     1     -42.330  57.665 -52.499  1.00  0.00     0.064 A 
HETATM   23  N   UNL     1     -42.214  57.605 -51.140  1.00  0.00    -0.263 NA
HETATM   24  C   UNL     1     -41.096  58.128 -50.588  1.00  0.00     0.117 A 
HETATM   25  C   UNL     1     -40.080  58.722 -51.314  1.00  0.00     0.019 A 
HETATM   26  C   UNL     1     -40.210  58.782 -52.696  1.00  0.00     0.003 A 
HETATM   27  C   UNL     1     -41.344  58.247 -53.299  1.00  0.00     0.030 A 
ENDBRANCH   9  22
TORSDOF 3
ENDMDL
MODEL 3
REMARK VINA RESULT:      -7.7      2.468      4.913
REMARK  3 active torsions:
REMARK  status: ('A' for Active; 'I' for Inactive)
REMARK    1  A    between atoms: C_9  and  C_10 
REMARK    2  A    between atoms: C_16  and  C_17 
REMARK       I    between atoms: C_17  and  N_18 
REMARK    3  A    between atoms: N_18  and  C_19 
ROOT
HETATM    1  C   UNL     1     -40.555  53.977 -55.087  1.00  0.00     0.070 C 
HETATM    2  C   UNL     1     -41.602  55.059 -55.155  1.00  0.00     0.037 A 
HETATM    3  N   UNL     1     -41.736  55.696 -56.384  1.00  0.00    -0.192 N 
HETATM    4  C   UNL     1     -42.740  56.550 -56.663  1.00  0.00     0.725 A 
HETATM    5  N   UNL     1     -43.608  56.917 -55.670  1.00  0.00    -0.082 N 
HETATM    6  N   UNL     1     -44.628  57.657 -56.163  1.00  0.00    -0.149 NA
HETATM    7  C   UNL     1     -44.255  57.767 -57.443  1.00  0.00     0.275 A 
HETATM    8  N   UNL     1     -43.108  57.101 -57.791  1.00  0.00    -0.054 NA
HETATM    9  C   UNL     1     -43.521  56.445 -54.288  1.00  0.00     0.221 A 
HETATM   10  C   UNL     1     -42.427  55.397 -54.135  1.00  0.00     0.064 A 
HETATM   11  H   UNL     1     -41.149  55.375 -57.149  1.00  0.00     0.184 HD
ENDROOT
BRANCH  10  12
HETATM   12  C   UNL     1     -42.402  54.757 -52.799  1.00  0.00     0.256 C 
HETATM   13  N   UNL     1     -41.400  55.233 -51.986  1.00  0.00    -0.322 N 
HETATM   14  H   UNL     1     -40.856  56.010 -52.344  1.00  0.00     0.169 HD
HETATM   15  O   UNL     1     -43.257  53.927 -52.522  1.00  0.00    -0.267 OA
BRANCH  13  16
HETATM   16  C   UNL     1     -41.082  54.779 -50.690  1.00  0.00     0.052 A 
HETATM   17  C   UNL     1     -41.281  55.500 -49.517  1.00  0.00     0.145 A 
HETATM   18  N   UNL     1     -40.984  55.033 -48.275  1.00  0.00    -0.271 NA
HETATM   19  C   UNL     1     -40.470  53.789 -48.198  1.00  0.00     0.116 A 
HETATM   20  C   UNL     1     -40.234  52.990 -49.303  1.00  0.00     0.021 A 
HETATM   21  C   UNL     1     -40.541  53.496 -50.565  1.00  0.00     0.032 A 
ENDBRANCH  13  16
ENDBRANCH  10  12
BRANCH   9  22
HETATM   22  C   UNL     1     -43.317  57.643 -53.366  1.00  0.00     0.064 A 
HETATM   23  N   UNL     1     -42.108  58.277 -53.383  1.00  0.00    -0.263 NA
HETATM   24  C   UNL     1     -41.959  59.354 -52.579  1.00  0.00     0.117 A 
HETATM   25  C   UNL     1     -42.949  59.838 -51.743  1.00  0.00     0.019 A 
HETATM   26  C   UNL     1     -44.174  59.183 -51.730  1.00  0.00     0.003 A 
HETATM   27  C   UNL     1     -44.365  58.075 -52.551  1.00  0.00     0.030 A 
ENDBRANCH   9  22
TORSDOF 3
ENDMDL
MODEL 4
REMARK VINA RESULT:      -7.7      2.767      5.973
REMARK  3 active torsions:
REMARK  status: ('A' for Active; 'I' for Inactive)
REMARK    1  A    between atoms: C_9  and  C_10 
REMARK    2  A    between atoms: C_16  and  C_17 
REMARK       I    between atoms: C_17  and  N_18 
REMARK    3  A    between atoms: N_18  and  C_19 
ROOT
HETATM    1  C   UNL     1     -42.117  60.059 -55.746  1.00  0.00     0.070 C 
HETATM    2  C   UNL     1     -41.918  59.037 -54.657  1.00  0.00     0.037 A 
HETATM    3  N   UNL     1     -41.069  59.414 -53.622  1.00  0.00    -0.192 N 
HETATM    4  C   UNL     1     -40.928  58.697 -52.489  1.00  0.00     0.725 A 
HETATM    5  N   UNL     1     -41.545  57.479 -52.382  1.00  0.00    -0.082 N 
HETATM    6  N   UNL     1     -41.415  56.976 -51.132  1.00  0.00    -0.149 NA
HETATM    7  C   UNL     1     -40.633  57.905 -50.573  1.00  0.00     0.275 A 
HETATM    8  N   UNL     1     -40.317  58.978 -51.367  1.00  0.00    -0.054 NA
HETATM    9  C   UNL     1     -42.360  56.875 -53.436  1.00  0.00     0.221 A 
HETATM   10  C   UNL     1     -42.539  57.834 -54.605  1.00  0.00     0.064 A 
HETATM   11  H   UNL     1     -40.669  60.348 -53.653  1.00  0.00     0.184 HD
ENDROOT
BRANCH  10  12
HETATM   12  C   UNL     1     -43.494  57.348 -55.629  1.00  0.00     0.256 C 
HETATM   13  N   UNL     1     -42.922  57.174 -56.867  1.00  0.00    -0.322 N 
HETATM   14  H   UNL     1     -41.919  57.308 -56.927  1.00  0.00     0.169 HD
HETATM   15  O   UNL     1     -44.649  57.112 -55.300  1.00  0.00    -0.267 OA
BRANCH  13  16
HETATM   16  C   UNL     1     -43.582  56.786 -58.051  1.00  0.00     0.052 A 
HETATM   17  C   UNL     1     -44.392  57.612 -58.825  1.00  0.00     0.145 A 
HETATM   18  N   UNL     1     -45.003  57.220 -59.975  1.00  0.00    -0.271 NA
HETATM   19  C   UNL     1     -44.795  55.949 -60.374  1.00  0.00     0.116 A 
HETATM   20  C   UNL     1     -44.008  55.049 -59.677  1.00  0.00     0.021 A 
HETATM   21  C   UNL     1     -43.398  55.475 -58.498  1.00  0.00     0.032 A 
ENDBRANCH  13  16
ENDBRANCH  10  12
BRANCH   9  22
HETATM   22  C   UNL     1     -41.728  55.552 -53.856  1.00  0.00     0.064 A 
HETATM   23  N   UNL     1     -42.345  54.392 -53.489  1.00  0.00    -0.263 NA
HETATM   24  C   UNL     1     -41.783  53.232 -53.898  1.00  0.00     0.117 A 
HETATM   25  C   UNL     1     -40.624  53.157 -54.651  1.00  0.00     0.019 A 
HETATM   26  C   UNL     1     -40.001  54.344 -55.015  1.00  0.00     0.003 A 
HETATM   27  C   UNL     1     -40.557  55.557 -54.618  1.00  0.00     0.030 A 
ENDBRANCH   9  22
TORSDOF 3
ENDMDL
MODEL 5
REMARK VINA RESULT:      -7.3      2.122      5.234
REMARK  3 active torsions:
REMARK  status: ('A' for Active; 'I' for Inactive)
REMARK    1  A    between atoms: C_9  and  C_10 
REMARK    2  A    between atoms: C_16  and  C_17 
REMARK       I    between atoms: C_17  and  N_18 
REMARK    3  A    between atoms: N_18  and  C_19 
ROOT
HETATM    1  C   UNL     1     -40.856  52.347 -53.881  1.00  0.00     0.070 C 
HETATM    2  C   UNL     1     -40.946  53.303 -52.720  1.00  0.00     0.037 A 
HETATM    3  N   UNL     1     -40.878  52.727 -51.456  1.00  0.00    -0.192 N 
HETATM    4  C   UNL     1     -40.760  53.450 -50.324  1.00  0.00     0.725 A 
HETATM    5  N   UNL     1     -40.832  54.816 -50.388  1.00  0.00    -0.082 N 
HETATM    6  N   UNL     1     -40.549  55.375 -49.188  1.00  0.00    -0.149 NA
HETATM    7  C   UNL     1     -40.405  54.279 -48.435  1.00  0.00     0.275 A 
HETATM    8  N   UNL     1     -40.521  53.082 -49.092  1.00  0.00    -0.054 NA
HETATM    9  C   UNL     1     -41.042  55.572 -51.623  1.00  0.00     0.221 A 
HETATM   10  C   UNL     1     -41.035  54.650 -52.835  1.00  0.00     0.064 A 
HETATM   11  H   UNL     1     -40.745  51.721 -51.400  1.00  0.00     0.184 HD
ENDROOT
BRANCH  10  12
HETATM   12  C   UNL     1     -41.072  55.372 -54.129  1.00  0.00     0.256 C 
HETATM   13  N   UNL     1     -42.348  55.608 -54.584  1.00  0.00    -0.322 N 
HETATM   14  H   UNL     1     -43.107  55.349 -53.963  1.00  0.00     0.169 HD
HETATM   15  O   UNL     1     -40.018  55.721 -54.644  1.00  0.00    -0.267 OA
BRANCH  13  16
HETATM   16  C   UNL     1     -42.706  56.212 -55.806  1.00  0.00     0.052 A 
HETATM   17  C   UNL     1     -42.910  57.576 -55.997  1.00  0.00     0.145 A 
HETATM   18  N   UNL     1     -43.236  58.138 -57.191  1.00  0.00    -0.271 NA
HETATM   19  C   UNL     1     -43.361  57.305 -58.244  1.00  0.00     0.116 A 
HETATM   20  C   UNL     1     -43.178  55.936 -58.161  1.00  0.00     0.021 A 
HETATM   21  C   UNL     1     -42.851  55.385 -56.923  1.00  0.00     0.032 A 
ENDBRANCH  13  16
ENDBRANCH  10  12
BRANCH   9  22
HETATM   22  C   UNL     1     -42.336  56.370 -51.503  1.00  0.00     0.064 A 
HETATM   23  N   UNL     1     -42.353  57.653 -51.969  1.00  0.00    -0.263 NA
HETATM   24  C   UNL     1     -43.519  58.332 -51.879  1.00  0.00     0.117 A 
HETATM   25  C   UNL     1     -44.680  57.808 -51.338  1.00  0.00     0.019 A 
HETATM   26  C   UNL     1     -44.650  56.503 -50.863  1.00  0.00     0.003 A 
HETATM   27  C   UNL     1     -43.469  55.772 -50.947  1.00  0.00     0.030 A 
ENDBRANCH   9  22
TORSDOF 3
ENDMDL
MODEL 6
REMARK VINA RESULT:      -7.3      2.194      6.100
REMARK  3 active torsions:
REMARK  status: ('A' for Active; 'I' for Inactive)
REMARK    1  A    between atoms: C_9  and  C_10 
REMARK    2  A    between atoms: C_16  and  C_17 
REMARK       I    between atoms: C_17  and  N_18 
REMARK    3  A    between atoms: N_18  and  C_19 
ROOT
HETATM    1  C   UNL     1     -40.458  54.635 -49.517  1.00  0.00     0.070 C 
HETATM    2  C   UNL     1     -40.717  54.054 -50.883  1.00  0.00     0.037 A 
HETATM    3  N   UNL     1     -39.753  53.173 -51.359  1.00  0.00    -0.192 N 
HETATM    4  C   UNL     1     -39.920  52.432 -52.473  1.00  0.00     0.725 A 
HETATM    5  N   UNL     1     -41.028  52.628 -53.252  1.00  0.00    -0.082 N 
HETATM    6  N   UNL     1     -41.101  51.703 -54.237  1.00  0.00    -0.149 NA
HETATM    7  C   UNL     1     -39.956  51.042 -54.038  1.00  0.00     0.275 A 
HETATM    8  N   UNL     1     -39.207  51.453 -52.966  1.00  0.00    -0.054 NA
HETATM    9  C   UNL     1     -42.070  53.615 -52.966  1.00  0.00     0.221 A 
HETATM   10  C   UNL     1     -41.825  54.294 -51.625  1.00  0.00     0.064 A 
HETATM   11  H   UNL     1     -38.965  52.961 -50.753  1.00  0.00     0.184 HD
ENDROOT
BRANCH  10  12
HETATM   12  C   UNL     1     -42.934  55.181 -51.199  1.00  0.00     0.256 C 
HETATM   13  N   UNL     1     -42.780  56.483 -51.612  1.00  0.00    -0.322 N 
HETATM   14  H   UNL     1     -41.992  56.676 -52.221  1.00  0.00     0.169 HD
HETATM   15  O   UNL     1     -43.874  54.700 -50.580  1.00  0.00    -0.267 OA
BRANCH  13  16
HETATM   16  C   UNL     1     -43.629  57.567 -51.310  1.00  0.00     0.052 A 
HETATM   17  C   UNL     1     -44.990  57.466 -51.034  1.00  0.00     0.145 A 
HETATM   18  N   UNL     1     -45.785  58.525 -50.726  1.00  0.00    -0.271 NA
HETATM   19  C   UNL     1     -45.198  59.739 -50.688  1.00  0.00     0.116 A 
HETATM   20  C   UNL     1     -43.855  59.946 -50.946  1.00  0.00     0.021 A 
HETATM   21  C   UNL     1     -43.063  58.844 -51.266  1.00  0.00     0.032 A 
ENDBRANCH  13  16
ENDBRANCH  10  12
BRANCH   9  22
HETATM   22  C   UNL     1     -42.143  54.610 -54.121  1.00  0.00     0.064 A 
HETATM   23  N   UNL     1     -41.284  55.670 -54.120  1.00  0.00    -0.263 NA
HETATM   24  C   UNL     1     -41.347  56.522 -55.169  1.00  0.00     0.117 A 
HETATM   25  C   UNL     1     -42.231  56.385 -56.224  1.00  0.00     0.019 A 
HETATM   26  C   UNL     1     -43.104  55.305 -56.212  1.00  0.00     0.003 A 
HETATM   27  C   UNL     1     -43.061  54.404 -55.153  1.00  0.00     0.030 A 
ENDBRANCH   9  22
TORSDOF 3
ENDMDL
MODEL 7
REMARK VINA RESULT:      -7.2      1.741      1.992
REMARK  3 active torsions:
REMARK  status: ('A' for Active; 'I' for Inactive)
REMARK    1  A    between atoms: C_9  and  C_10 
REMARK    2  A    between atoms: C_16  and  C_17 
REMARK       I    between atoms: C_17  and  N_18 
REMARK    3  A    between atoms: N_18  and  C_19 
ROOT
HETATM    1  C   UNL     1     -44.109  55.473 -50.253  1.00  0.00     0.070 C 
HETATM    2  C   UNL     1     -43.522  56.443 -51.245  1.00  0.00     0.037 A 
HETATM    3  N   UNL     1     -43.718  57.790 -50.963  1.00  0.00    -0.192 N 
HETATM    4  C   UNL     1     -43.107  58.780 -51.643  1.00  0.00     0.725 A 
HETATM    5  N   UNL     1     -42.351  58.475 -52.743  1.00  0.00    -0.082 N 
HETATM    6  N   UNL     1     -41.701  59.567 -53.207  1.00  0.00    -0.149 NA
HETATM    7  C   UNL     1     -42.186  60.507 -52.388  1.00  0.00     0.275 A 
HETATM    8  N   UNL     1     -43.045  60.067 -51.414  1.00  0.00    -0.054 NA
HETATM    9  C   UNL     1     -42.159  57.118 -53.257  1.00  0.00     0.221 A 
HETATM   10  C   UNL     1     -42.795  56.089 -52.333  1.00  0.00     0.064 A 
HETATM   11  H   UNL     1     -44.209  58.028 -50.106  1.00  0.00     0.184 HD
ENDROOT
BRANCH  10  12
HETATM   12  C   UNL     1     -42.489  54.688 -52.706  1.00  0.00     0.256 C 
HETATM   13  N   UNL     1     -41.206  54.307 -52.388  1.00  0.00    -0.322 N 
HETATM   14  H   UNL     1     -40.650  54.976 -51.868  1.00  0.00     0.169 HD
HETATM   15  O   UNL     1     -43.370  54.000 -53.206  1.00  0.00    -0.267 OA
BRANCH  13  16
HETATM   16  C   UNL     1     -40.603  53.066 -52.674  1.00  0.00     0.052 A 
HETATM   17  C   UNL     1     -40.039  52.212 -51.729  1.00  0.00     0.145 A 
HETATM   18  N   UNL     1     -39.480  51.009 -52.027  1.00  0.00    -0.271 NA
HETATM   19  C   UNL     1     -39.485  50.638 -53.323  1.00  0.00     0.116 A 
HETATM   20  C   UNL     1     -40.019  51.412 -54.338  1.00  0.00     0.021 A 
HETATM   21  C   UNL     1     -40.580  52.644 -54.006  1.00  0.00     0.032 A 
ENDBRANCH  13  16
ENDBRANCH  10  12
BRANCH   9  22
HETATM   22  C   UNL     1     -42.704  57.043 -54.679  1.00  0.00     0.064 A 
HETATM   23  N   UNL     1     -43.876  57.684 -54.961  1.00  0.00    -0.263 NA
HETATM   24  C   UNL     1     -44.324  57.628 -56.235  1.00  0.00     0.117 A 
HETATM   25  C   UNL     1     -43.674  56.957 -57.255  1.00  0.00     0.019 A 
HETATM   26  C   UNL     1     -42.484  56.305 -56.957  1.00  0.00     0.003 A 
HETATM   27  C   UNL     1     -41.989  56.348 -55.658  1.00  0.00     0.030 A 
ENDBRANCH   9  22
TORSDOF 3
ENDMDL
MODEL 8
REMARK VINA RESULT:      -7.1      2.321      5.741
REMARK  3 active torsions:
REMARK  status: ('A' for Active; 'I' for Inactive)
REMARK    1  A    between atoms: C_9  and  C_10 
REMARK    2  A    between atoms: C_16  and  C_17 
REMARK       I    between atoms: C_17  and  N_18 
REMARK    3  A    between atoms: N_18  and  C_19 
ROOT
HETATM    1  C   UNL     1     -42.594  59.505 -52.053  1.00  0.00     0.070 C 
HETATM    2  C   UNL     1     -42.354  58.039 -51.801  1.00  0.00     0.037 A 
HETATM    3  N   UNL     1     -41.650  57.732 -50.642  1.00  0.00    -0.192 N 
HETATM    4  C   UNL     1     -41.511  56.474 -50.179  1.00  0.00     0.725 A 
HETATM    5  N   UNL     1     -41.970  55.425 -50.930  1.00  0.00    -0.082 N 
HETATM    6  N   UNL     1     -41.879  54.260 -50.247  1.00  0.00    -0.149 NA
HETATM    7  C   UNL     1     -41.274  54.677 -49.130  1.00  0.00     0.275 A 
HETATM    8  N   UNL     1     -41.036  56.025 -49.045  1.00  0.00    -0.054 NA
HETATM    9  C   UNL     1     -42.608  55.569 -52.238  1.00  0.00     0.221 A 
HETATM   10  C   UNL     1     -42.815  57.037 -52.587  1.00  0.00     0.064 A 
HETATM   11  H   UNL     1     -41.375  58.501 -50.037  1.00  0.00     0.184 HD
ENDROOT
BRANCH  10  12
HETATM   12  C   UNL     1     -43.609  57.246 -53.820  1.00  0.00     0.256 C 
HETATM   13  N   UNL     1     -42.836  57.404 -54.946  1.00  0.00    -0.322 N 
HETATM   14  H   UNL     1     -41.837  57.276 -54.832  1.00  0.00     0.169 HD
HETATM   15  O   UNL     1     -44.831  57.223 -53.751  1.00  0.00    -0.267 OA
BRANCH  13  16
HETATM   16  C   UNL     1     -43.296  57.682 -56.249  1.00  0.00     0.052 A 
HETATM   17  C   UNL     1     -43.810  58.903 -56.675  1.00  0.00     0.145 A 
HETATM   18  N   UNL     1     -44.229  59.153 -57.944  1.00  0.00    -0.271 NA
HETATM   19  C   UNL     1     -44.128  58.142 -58.831  1.00  0.00     0.116 A 
HETATM   20  C   UNL     1     -43.631  56.892 -58.509  1.00  0.00     0.021 A 
HETATM   21  C   UNL     1     -43.214  56.660 -57.199  1.00  0.00     0.032 A 
ENDBRANCH  13  16
ENDBRANCH  10  12
BRANCH   9  22
HETATM   22  C   UNL     1     -41.776  54.831 -53.282  1.00  0.00     0.064 A 
HETATM   23  N   UNL     1     -40.805  55.523 -53.947  1.00  0.00    -0.263 NA
HETATM   24  C   UNL     1     -40.061  54.841 -54.846  1.00  0.00     0.117 A 
HETATM   25  C   UNL     1     -40.232  53.498 -55.133  1.00  0.00     0.019 A 
HETATM   26  C   UNL     1     -41.226  52.805 -54.454  1.00  0.00     0.003 A 
HETATM   27  C   UNL     1     -42.006  53.473 -53.516  1.00  0.00     0.030 A 
ENDBRANCH   9  22
TORSDOF 3
ENDMDL
MODEL 9
REMARK VINA RESULT:      -7.1     15.089     17.004
REMARK  3 active torsions:
REMARK  status: ('A' for Active; 'I' for Inactive)
REMARK    1  A    between atoms: C_9  and  C_10 
REMARK    2  A    between atoms: C_16  and  C_17 
REMARK       I    between atoms: C_17  and  N_18 
REMARK    3  A    between atoms: N_18  and  C_19 
ROOT
HETATM    1  C   UNL     1     -37.825  40.854 -52.345  1.00  0.00     0.070 C 
HETATM    2  C   UNL     1     -36.967  41.024 -53.572  1.00  0.00     0.037 A 
HETATM    3  N   UNL     1     -37.644  41.039 -54.787  1.00  0.00    -0.192 N 
HETATM    4  C   UNL     1     -37.052  41.363 -55.954  1.00  0.00     0.725 A 
HETATM    5  N   UNL     1     -35.700  41.571 -55.988  1.00  0.00    -0.082 N 
HETATM    6  N   UNL     1     -35.307  42.027 -57.200  1.00  0.00    -0.149 NA
HETATM    7  C   UNL     1     -36.466  41.981 -57.866  1.00  0.00     0.275 A 
HETATM    8  N   UNL     1     -37.559  41.586 -57.139  1.00  0.00    -0.054 NA
HETATM    9  C   UNL     1     -34.821  41.456 -54.824  1.00  0.00     0.221 A 
HETATM   10  C   UNL     1     -35.625  41.210 -53.555  1.00  0.00     0.064 A 
HETATM   11  H   UNL     1     -38.657  40.965 -54.765  1.00  0.00     0.184 HD
ENDROOT
BRANCH  10  12
HETATM   12  C   UNL     1     -34.809  41.254 -52.318  1.00  0.00     0.256 C 
HETATM   13  N   UNL     1     -34.161  40.071 -52.051  1.00  0.00    -0.322 N 
HETATM   14  H   UNL     1     -34.237  39.343 -52.753  1.00  0.00     0.169 HD
HETATM   15  O   UNL     1     -34.745  42.300 -51.686  1.00  0.00    -0.267 OA
BRANCH  13  16
HETATM   16  C   UNL     1     -33.368  39.783 -50.922  1.00  0.00     0.052 A 
HETATM   17  C   UNL     1     -32.003  40.039 -50.815  1.00  0.00     0.145 A 
HETATM   18  N   UNL     1     -31.263  39.771 -49.707  1.00  0.00    -0.271 NA
HETATM   19  C   UNL     1     -31.910  39.227 -48.657  1.00  0.00     0.116 A 
HETATM   20  C   UNL     1     -33.262  38.935 -48.661  1.00  0.00     0.021 A 
HETATM   21  C   UNL     1     -33.997  39.214 -49.812  1.00  0.00     0.032 A 
ENDBRANCH  13  16
ENDBRANCH  10  12
BRANCH   9  22
HETATM   22  C   UNL     1     -33.790  40.363 -55.085  1.00  0.00     0.064 A 
HETATM   23  N   UNL     1     -32.477  40.635 -54.829  1.00  0.00    -0.263 NA
HETATM   24  C   UNL     1     -31.584  39.641 -55.041  1.00  0.00     0.117 A 
HETATM   25  C   UNL     1     -31.923  38.383 -55.506  1.00  0.00     0.019 A 
HETATM   26  C   UNL     1     -33.262  38.119 -55.767  1.00  0.00     0.003 A 
HETATM   27  C   UNL     1     -34.208  39.116 -55.553  1.00  0.00     0.030 A 
ENDBRANCH   9  22
TORSDOF 3
ENDMDL
MODEL 10
REMARK VINA RESULT:      -6.9      2.298      2.926
REMARK  3 active torsions:
REMARK  status: ('A' for Active; 'I' for Inactive)
REMARK    1  A    between atoms: C_9  and  C_10 
REMARK    2  A    between atoms: C_16  and  C_17 
REMARK       I    between atoms: C_17  and  N_18 
REMARK    3  A    between atoms: N_18  and  C_19 
ROOT
HETATM    1  C   UNL     1     -44.301  56.343 -50.874  1.00  0.00     0.070 C 
HETATM    2  C   UNL     1     -43.765  57.219 -51.976  1.00  0.00     0.037 A 
HETATM    3  N   UNL     1     -43.977  58.585 -51.820  1.00  0.00    -0.192 N 
HETATM    4  C   UNL     1     -43.408  59.512 -52.615  1.00  0.00     0.725 A 
HETATM    5  N   UNL     1     -42.682  59.111 -53.705  1.00  0.00    -0.082 N 
HETATM    6  N   UNL     1     -42.068  60.162 -54.296  1.00  0.00    -0.149 NA
HETATM    7  C   UNL     1     -42.545  61.171 -53.558  1.00  0.00     0.275 A 
HETATM    8  N   UNL     1     -43.363  60.816 -52.516  1.00  0.00    -0.054 NA
HETATM    9  C   UNL     1     -42.480  57.713 -54.088  1.00  0.00     0.221 A 
HETATM   10  C   UNL     1     -43.066  56.771 -53.046  1.00  0.00     0.064 A 
HETATM   11  H   UNL     1     -44.446  58.897 -50.975  1.00  0.00     0.184 HD
ENDROOT
BRANCH  10  12
HETATM   12  C   UNL     1     -42.745  55.345 -53.290  1.00  0.00     0.256 C 
HETATM   13  N   UNL     1     -41.471  55.000 -52.905  1.00  0.00    -0.322 N 
HETATM   14  H   UNL     1     -40.931  55.714 -52.429  1.00  0.00     0.169 HD
HETATM   15  O   UNL     1     -43.609  54.612 -53.753  1.00  0.00    -0.267 OA
BRANCH  13  16
HETATM   16  C   UNL     1     -40.855  53.742 -53.067  1.00  0.00     0.052 A 
HETATM   17  C   UNL     1     -40.727  53.061 -54.274  1.00  0.00     0.145 A 
HETATM   18  N   UNL     1     -40.111  51.857 -54.408  1.00  0.00    -0.271 NA
HETATM   19  C   UNL     1     -39.596  51.307 -53.290  1.00  0.00     0.116 A 
HETATM   20  C   UNL     1     -39.669  51.901 -52.043  1.00  0.00     0.021 A 
HETATM   21  C   UNL     1     -40.312  53.133 -51.933  1.00  0.00     0.032 A 
ENDBRANCH  13  16
ENDBRANCH  10  12
BRANCH   9  22
HETATM   22  C   UNL     1     -43.068  57.489 -55.478  1.00  0.00     0.064 A 
HETATM   23  N   UNL     1     -44.298  58.012 -55.754  1.00  0.00    -0.263 NA
HETATM   24  C   UNL     1     -44.787  57.825 -57.001  1.00  0.00     0.117 A 
HETATM   25  C   UNL     1     -44.121  57.134 -57.997  1.00  0.00     0.019 A 
HETATM   26  C   UNL     1     -42.872  56.602 -57.704  1.00  0.00     0.003 A 
HETATM   27  C   UNL     1     -42.335  56.782 -56.433  1.00  0.00     0.030 A 
ENDBRANCH   9  22
TORSDOF 3
ENDMDL
