MODEL 1
REMARK VINA RESULT:      -8.1      0.000      0.000
REMARK  9 active torsions:
REMARK  status: ('A' for Active; 'I' for Inactive)
REMARK    1  A    between atoms: C_2  and  C_3 
REMARK    2  A    between atoms: C_6  and  N_7 
REMARK    3  A    between atoms: N_7  and  S_8 
REMARK    4  A    between atoms: S_8  and  C_9 
REMARK    5  A    between atoms: C_15  and  C_16 
REMARK       I    between atoms: C_16  and  N_17 
REMARK    6  A    between atoms: N_17  and  C_18 
REMARK    7  A    between atoms: C_18  and  C_19 
REMARK    8  A    between atoms: C_19  and  C_20 
REMARK    9  A    between atoms: C_20  and  O_21 
ROOT
HETATM    1  C   UNL     1     -43.301  56.584 -52.002  1.00  0.00     0.081 A 
HETATM    2  C   UNL     1     -43.297  56.432 -53.390  1.00  0.00     0.043 A 
HETATM    3  C   UNL     1     -44.033  57.327 -54.173  1.00  0.00     0.043 A 
HETATM    4  C   UNL     1     -44.755  58.380 -53.583  1.00  0.00     0.046 A 
HETATM    5  N   UNL     1     -45.517  59.234 -54.388  1.00  0.00    -0.364 N 
HETATM    6  C   UNL     1     -45.493  59.118 -55.755  1.00  0.00     0.109 A 
HETATM    7  C   UNL     1     -44.834  58.174 -56.447  1.00  0.00     0.098 A 
HETATM    8  C   UNL     1     -44.053  57.182 -55.653  1.00  0.00     0.201 A 
HETATM    9  O   UNL     1     -43.435  56.265 -56.192  1.00  0.00    -0.286 OA
HETATM   10  C   UNL     1     -44.749  58.512 -52.191  1.00  0.00     0.032 A 
HETATM   11  C   UNL     1     -44.014  57.624 -51.398  1.00  0.00     0.027 A 
HETATM   12  H   UNL     1     -45.913  60.076 -53.983  1.00  0.00     0.165 HD
ENDROOT
BRANCH   1  13
HETATM   13  S   UNL     1     -42.323  55.476 -51.007  1.00  0.00     0.263 S 
HETATM   14  O   UNL     1     -43.044  54.228 -50.894  1.00  0.00    -0.200 OA
HETATM   15  O   UNL     1     -41.913  56.215 -49.831  1.00  0.00    -0.200 OA
BRANCH  13  16
HETATM   16  N   UNL     1     -40.937  55.263 -51.941  1.00  0.00    -0.281 N 
HETATM   17  H   UNL     1     -40.781  56.026 -52.598  1.00  0.00     0.179 HD
BRANCH  16  18
HETATM   18  C   UNL     1     -40.552  53.954 -52.337  1.00  0.00     0.042 A 
HETATM   19  C   UNL     1     -39.976  53.090 -51.407  1.00  0.00     0.030 A 
HETATM   20  C   UNL     1     -39.601  51.801 -51.797  1.00  0.00     0.009 A 
HETATM   21  C   UNL     1     -39.801  51.368 -53.116  1.00  0.00    -0.058 A 
HETATM   22  C   UNL     1     -40.376  52.249 -54.040  1.00  0.00     0.009 A 
HETATM   23  C   UNL     1     -40.743  53.539 -53.653  1.00  0.00     0.030 A 
BRANCH  21  24
HETATM   24  C   UNL     1     -39.441  49.963 -53.527  1.00  0.00     0.034 C 
HETATM   25  C   UNL     1     -39.858  49.667 -54.959  1.00  0.00     0.010 C 
ENDBRANCH  21  24
ENDBRANCH  16  18
ENDBRANCH  13  16
ENDBRANCH   1  13
BRANCH   7  26
HETATM   26  C   UNL     1     -44.922  58.187 -57.935  1.00  0.00     0.257 C 
HETATM   27  N   UNL     1     -45.869  57.352 -58.473  1.00  0.00    -0.357 N 
HETATM   28  H   UNL     1     -46.456  56.813 -57.835  1.00  0.00     0.162 HD
HETATM   29  O   UNL     1     -44.191  58.899 -58.617  1.00  0.00    -0.267 OA
BRANCH  27  30
HETATM   30  C   UNL     1     -46.102  57.242 -59.898  1.00  0.00     0.125 C 
BRANCH  30  31
HETATM   31  C   UNL     1     -46.054  55.806 -60.410  1.00  0.00     0.046 C 
BRANCH  31  32
HETATM   32  C   UNL     1     -44.691  55.153 -60.212  1.00  0.00     0.168 C 
BRANCH  32  33
HETATM   33  O   UNL     1     -43.686  56.104 -60.567  1.00  0.00    -0.396 OA
HETATM   34  C   UNL     1     -42.538  55.991 -59.737  1.00  0.00     0.201 C 
ENDBRANCH  32  33
ENDBRANCH  31  32
ENDBRANCH  30  31
ENDBRANCH  27  30
ENDBRANCH   7  26
TORSDOF 9
ENDMDL
MODEL 2
REMARK VINA RESULT:      -7.6      4.299      5.593
REMARK  9 active torsions:
REMARK  status: ('A' for Active; 'I' for Inactive)
REMARK    1  A    between atoms: C_2  and  C_3 
REMARK    2  A    between atoms: C_6  and  N_7 
REMARK    3  A    between atoms: N_7  and  S_8 
REMARK    4  A    between atoms: S_8  and  C_9 
REMARK    5  A    between atoms: C_15  and  C_16 
REMARK       I    between atoms: C_16  and  N_17 
REMARK    6  A    between atoms: N_17  and  C_18 
REMARK    7  A    between atoms: C_18  and  C_19 
REMARK    8  A    between atoms: C_19  and  C_20 
REMARK    9  A    between atoms: C_20  and  O_21 
ROOT
HETATM    1  C   UNL     1     -42.885  56.854 -56.218  1.00  0.00     0.081 A 
HETATM    2  C   UNL     1     -42.589  58.157 -56.623  1.00  0.00     0.043 A 
HETATM    3  C   UNL     1     -42.416  58.421 -57.985  1.00  0.00     0.043 A 
HETATM    4  C   UNL     1     -42.554  57.401 -58.943  1.00  0.00     0.046 A 
HETATM    5  N   UNL     1     -42.333  57.686 -60.296  1.00  0.00    -0.364 N 
HETATM    6  C   UNL     1     -42.077  58.968 -60.711  1.00  0.00     0.109 A 
HETATM    7  C   UNL     1     -41.939  60.036 -59.907  1.00  0.00     0.098 A 
HETATM    8  C   UNL     1     -42.091  59.799 -58.443  1.00  0.00     0.201 A 
HETATM    9  O   UNL     1     -41.959  60.707 -57.624  1.00  0.00    -0.286 OA
HETATM   10  C   UNL     1     -42.846  56.102 -58.517  1.00  0.00     0.032 A 
HETATM   11  C   UNL     1     -43.025  55.827 -57.156  1.00  0.00     0.027 A 
HETATM   12  H   UNL     1     -42.576  56.993 -60.996  1.00  0.00     0.165 HD
ENDROOT
BRANCH   1  13
HETATM   13  S   UNL     1     -43.156  56.526 -54.488  1.00  0.00     0.263 S 
HETATM   14  O   UNL     1     -43.923  55.305 -54.382  1.00  0.00    -0.200 OA
HETATM   15  O   UNL     1     -43.623  57.760 -53.892  1.00  0.00    -0.200 OA
BRANCH  13  16
HETATM   16  N   UNL     1     -41.593  56.281 -53.907  1.00  0.00    -0.281 N 
HETATM   17  H   UNL     1     -40.944  57.012 -54.194  1.00  0.00     0.179 HD
BRANCH  16  18
HETATM   18  C   UNL     1     -41.091  54.958 -53.780  1.00  0.00     0.042 A 
HETATM   19  C   UNL     1     -40.627  54.281 -54.907  1.00  0.00     0.030 A 
HETATM   20  C   UNL     1     -40.131  52.980 -54.780  1.00  0.00     0.009 A 
HETATM   21  C   UNL     1     -40.094  52.350 -53.528  1.00  0.00    -0.058 A 
HETATM   22  C   UNL     1     -40.568  53.040 -52.406  1.00  0.00     0.009 A 
HETATM   23  C   UNL     1     -41.071  54.336 -52.534  1.00  0.00     0.030 A 
BRANCH  21  24
HETATM   24  C   UNL     1     -39.515  50.965 -53.382  1.00  0.00     0.034 C 
HETATM   25  C   UNL     1     -40.055  50.012 -54.437  1.00  0.00     0.010 C 
ENDBRANCH  21  24
ENDBRANCH  16  18
ENDBRANCH  13  16
ENDBRANCH   1  13
BRANCH   7  26
HETATM   26  C   UNL     1     -41.652  61.362 -60.525  1.00  0.00     0.257 C 
HETATM   27  N   UNL     1     -40.812  62.175 -59.806  1.00  0.00    -0.357 N 
HETATM   28  H   UNL     1     -40.425  61.816 -58.932  1.00  0.00     0.162 HD
HETATM   29  O   UNL     1     -42.142  61.690 -61.602  1.00  0.00    -0.267 OA
BRANCH  27  30
HETATM   30  C   UNL     1     -40.415  63.492 -60.257  1.00  0.00     0.125 C 
BRANCH  30  31
HETATM   31  C   UNL     1     -38.905  63.653 -60.402  1.00  0.00     0.046 C 
BRANCH  31  32
HETATM   32  C   UNL     1     -38.472  63.876 -61.846  1.00  0.00     0.168 C 
BRANCH  32  33
HETATM   33  O   UNL     1     -39.300  63.074 -62.690  1.00  0.00    -0.396 OA
HETATM   34  C   UNL     1     -38.963  63.231 -64.061  1.00  0.00     0.201 C 
ENDBRANCH  32  33
ENDBRANCH  31  32
ENDBRANCH  30  31
ENDBRANCH  27  30
ENDBRANCH   7  26
TORSDOF 9
ENDMDL
MODEL 3
REMARK VINA RESULT:      -7.6      1.931      2.516
REMARK  9 active torsions:
REMARK  status: ('A' for Active; 'I' for Inactive)
REMARK    1  A    between atoms: C_2  and  C_3 
REMARK    2  A    between atoms: C_6  and  N_7 
REMARK    3  A    between atoms: N_7  and  S_8 
REMARK    4  A    between atoms: S_8  and  C_9 
REMARK    5  A    between atoms: C_15  and  C_16 
REMARK       I    between atoms: C_16  and  N_17 
REMARK    6  A    between atoms: N_17  and  C_18 
REMARK    7  A    between atoms: C_18  and  C_19 
REMARK    8  A    between atoms: C_19  and  C_20 
REMARK    9  A    between atoms: C_20  and  O_21 
ROOT
HETATM    1  C   UNL     1     -41.433  56.503 -51.060  1.00  0.00     0.081 A 
HETATM    2  C   UNL     1     -41.909  56.326 -52.362  1.00  0.00     0.043 A 
HETATM    3  C   UNL     1     -41.884  57.410 -53.246  1.00  0.00     0.043 A 
HETATM    4  C   UNL     1     -41.373  58.658 -52.847  1.00  0.00     0.046 A 
HETATM    5  N   UNL     1     -41.401  59.735 -53.740  1.00  0.00    -0.364 N 
HETATM    6  C   UNL     1     -41.832  59.566 -55.032  1.00  0.00     0.109 A 
HETATM    7  C   UNL     1     -42.326  58.428 -55.547  1.00  0.00     0.098 A 
HETATM    8  C   UNL     1     -42.394  57.251 -54.635  1.00  0.00     0.201 A 
HETATM    9  O   UNL     1     -42.852  56.172 -55.005  1.00  0.00    -0.286 OA
HETATM   10  C   UNL     1     -40.905  58.814 -51.539  1.00  0.00     0.032 A 
HETATM   11  C   UNL     1     -40.922  57.737 -50.646  1.00  0.00     0.027 A 
HETATM   12  H   UNL     1     -40.901  60.587 -53.507  1.00  0.00     0.165 HD
ENDROOT
BRANCH   1  13
HETATM   13  S   UNL     1     -41.416  55.111 -49.949  1.00  0.00     0.263 S 
HETATM   14  O   UNL     1     -42.503  54.233 -50.320  1.00  0.00    -0.200 OA
HETATM   15  O   UNL     1     -41.306  55.643 -48.606  1.00  0.00    -0.200 OA
BRANCH  13  16
HETATM   16  N   UNL     1     -39.936  54.380 -50.292  1.00  0.00    -0.281 N 
HETATM   17  H   UNL     1     -39.182  55.053 -50.419  1.00  0.00     0.179 HD
BRANCH  16  18
HETATM   18  C   UNL     1     -39.905  53.189 -51.066  1.00  0.00     0.042 A 
HETATM   19  C   UNL     1     -39.968  53.264 -52.456  1.00  0.00     0.030 A 
HETATM   20  C   UNL     1     -39.935  52.091 -53.217  1.00  0.00     0.009 A 
HETATM   21  C   UNL     1     -39.836  50.839 -52.592  1.00  0.00    -0.058 A 
HETATM   22  C   UNL     1     -39.779  50.779 -51.195  1.00  0.00     0.009 A 
HETATM   23  C   UNL     1     -39.821  51.950 -50.435  1.00  0.00     0.030 A 
BRANCH  21  24
HETATM   24  C   UNL     1     -39.751  49.577 -53.412  1.00  0.00     0.034 C 
HETATM   25  C   UNL     1     -39.815  49.866 -54.904  1.00  0.00     0.010 C 
ENDBRANCH  21  24
ENDBRANCH  16  18
ENDBRANCH  13  16
ENDBRANCH   1  13
BRANCH   7  26
HETATM   26  C   UNL     1     -42.760  58.420 -56.973  1.00  0.00     0.257 C 
HETATM   27  N   UNL     1     -42.336  57.343 -57.709  1.00  0.00    -0.357 N 
HETATM   28  H   UNL     1     -41.789  56.621 -57.236  1.00  0.00     0.162 HD
HETATM   29  O   UNL     1     -43.448  59.323 -57.442  1.00  0.00    -0.267 OA
BRANCH  27  30
HETATM   30  C   UNL     1     -42.670  57.163 -59.106  1.00  0.00     0.125 C 
BRANCH  30  31
HETATM   31  C   UNL     1     -42.938  55.710 -59.483  1.00  0.00     0.046 C 
BRANCH  31  32
HETATM   32  C   UNL     1     -44.224  55.534 -60.281  1.00  0.00     0.168 C 
BRANCH  32  33
HETATM   33  O   UNL     1     -44.972  56.748 -60.196  1.00  0.00    -0.396 OA
HETATM   34  C   UNL     1     -46.314  56.513 -59.791  1.00  0.00     0.201 C 
ENDBRANCH  32  33
ENDBRANCH  31  32
ENDBRANCH  30  31
ENDBRANCH  27  30
ENDBRANCH   7  26
TORSDOF 9
ENDMDL
MODEL 4
REMARK VINA RESULT:      -7.5      4.083      7.462
REMARK  9 active torsions:
REMARK  status: ('A' for Active; 'I' for Inactive)
REMARK    1  A    between atoms: C_2  and  C_3 
REMARK    2  A    between atoms: C_6  and  N_7 
REMARK    3  A    between atoms: N_7  and  S_8 
REMARK    4  A    between atoms: S_8  and  C_9 
REMARK    5  A    between atoms: C_15  and  C_16 
REMARK       I    between atoms: C_16  and  N_17 
REMARK    6  A    between atoms: N_17  and  C_18 
REMARK    7  A    between atoms: C_18  and  C_19 
REMARK    8  A    between atoms: C_19  and  C_20 
REMARK    9  A    between atoms: C_20  and  O_21 
ROOT
HETATM    1  C   UNL     1     -42.992  57.698 -52.394  1.00  0.00     0.081 A 
HETATM    2  C   UNL     1     -43.984  58.260 -51.587  1.00  0.00     0.043 A 
HETATM    3  C   UNL     1     -44.045  59.651 -51.457  1.00  0.00     0.043 A 
HETATM    4  C   UNL     1     -43.138  60.482 -52.137  1.00  0.00     0.046 A 
HETATM    5  N   UNL     1     -43.196  61.868 -51.954  1.00  0.00    -0.364 N 
HETATM    6  C   UNL     1     -44.188  62.435 -51.193  1.00  0.00     0.109 A 
HETATM    7  C   UNL     1     -45.126  61.762 -50.506  1.00  0.00     0.098 A 
HETATM    8  C   UNL     1     -45.086  60.275 -50.596  1.00  0.00     0.201 A 
HETATM    9  O   UNL     1     -45.887  59.569 -49.985  1.00  0.00    -0.286 OA
HETATM   10  C   UNL     1     -42.150  59.900 -52.937  1.00  0.00     0.032 A 
HETATM   11  C   UNL     1     -42.081  58.509 -53.078  1.00  0.00     0.027 A 
HETATM   12  H   UNL     1     -42.645  62.473 -52.554  1.00  0.00     0.165 HD
ENDROOT
BRANCH   1  13
HETATM   13  S   UNL     1     -42.944  55.929 -52.602  1.00  0.00     0.263 S 
HETATM   14  O   UNL     1     -43.614  55.610 -53.843  1.00  0.00    -0.200 OA
HETATM   15  O   UNL     1     -43.369  55.344 -51.347  1.00  0.00    -0.200 OA
BRANCH  13  16
HETATM   16  N   UNL     1     -41.294  55.616 -52.736  1.00  0.00    -0.281 N 
HETATM   17  H   UNL     1     -40.789  56.351 -53.229  1.00  0.00     0.179 HD
BRANCH  16  18
HETATM   18  C   UNL     1     -40.845  54.277 -52.897  1.00  0.00     0.042 A 
HETATM   19  C   UNL     1     -40.820  53.701 -54.166  1.00  0.00     0.030 A 
HETATM   20  C   UNL     1     -40.376  52.385 -54.323  1.00  0.00     0.009 A 
HETATM   21  C   UNL     1     -39.953  51.638 -53.213  1.00  0.00    -0.058 A 
HETATM   22  C   UNL     1     -39.988  52.228 -51.944  1.00  0.00     0.009 A 
HETATM   23  C   UNL     1     -40.439  53.540 -51.786  1.00  0.00     0.030 A 
BRANCH  21  24
HETATM   24  C   UNL     1     -39.428  50.236 -53.386  1.00  0.00     0.034 C 
HETATM   25  C   UNL     1     -39.716  49.691 -54.777  1.00  0.00     0.010 C 
ENDBRANCH  21  24
ENDBRANCH  16  18
ENDBRANCH  13  16
ENDBRANCH   1  13
BRANCH   7  26
HETATM   26  C   UNL     1     -46.127  62.537 -49.719  1.00  0.00     0.257 C 
HETATM   27  N   UNL     1     -46.156  62.263 -48.375  1.00  0.00    -0.357 N 
HETATM   28  H   UNL     1     -45.486  61.586 -48.006  1.00  0.00     0.162 HD
HETATM   29  O   UNL     1     -46.869  63.358 -50.252  1.00  0.00    -0.267 OA
BRANCH  27  30
HETATM   30  C   UNL     1     -47.056  62.927 -47.456  1.00  0.00     0.125 C 
BRANCH  30  31
HETATM   31  C   UNL     1     -47.307  62.134 -46.177  1.00  0.00     0.046 C 
BRANCH  31  32
HETATM   32  C   UNL     1     -46.555  60.809 -46.146  1.00  0.00     0.168 C 
BRANCH  32  33
HETATM   33  O   UNL     1     -47.509  59.752 -46.243  1.00  0.00    -0.396 OA
HETATM   34  C   UNL     1     -47.149  58.640 -45.434  1.00  0.00     0.201 C 
ENDBRANCH  32  33
ENDBRANCH  31  32
ENDBRANCH  30  31
ENDBRANCH  27  30
ENDBRANCH   7  26
TORSDOF 9
ENDMDL
MODEL 5
REMARK VINA RESULT:      -7.4      3.934      7.630
REMARK  9 active torsions:
REMARK  status: ('A' for Active; 'I' for Inactive)
REMARK    1  A    between atoms: C_2  and  C_3 
REMARK    2  A    between atoms: C_6  and  N_7 
REMARK    3  A    between atoms: N_7  and  S_8 
REMARK    4  A    between atoms: S_8  and  C_9 
REMARK    5  A    between atoms: C_15  and  C_16 
REMARK       I    between atoms: C_16  and  N_17 
REMARK    6  A    between atoms: N_17  and  C_18 
REMARK    7  A    between atoms: C_18  and  C_19 
REMARK    8  A    between atoms: C_19  and  C_20 
REMARK    9  A    between atoms: C_20  and  O_21 
ROOT
HETATM    1  C   UNL     1     -42.672  57.444 -53.945  1.00  0.00     0.081 A 
HETATM    2  C   UNL     1     -43.588  58.261 -53.278  1.00  0.00     0.043 A 
HETATM    3  C   UNL     1     -43.135  59.084 -52.243  1.00  0.00     0.043 A 
HETATM    4  C   UNL     1     -41.775  59.113 -51.884  1.00  0.00     0.046 A 
HETATM    5  N   UNL     1     -41.358  59.916 -50.816  1.00  0.00    -0.364 N 
HETATM    6  C   UNL     1     -42.240  60.748 -50.175  1.00  0.00     0.109 A 
HETATM    7  C   UNL     1     -43.557  60.834 -50.428  1.00  0.00     0.098 A 
HETATM    8  C   UNL     1     -44.091  59.956 -51.509  1.00  0.00     0.201 A 
HETATM    9  O   UNL     1     -45.286  59.943 -51.800  1.00  0.00    -0.286 OA
HETATM   10  C   UNL     1     -40.875  58.286 -52.562  1.00  0.00     0.032 A 
HETATM   11  C   UNL     1     -41.317  57.460 -53.601  1.00  0.00     0.027 A 
HETATM   12  H   UNL     1     -40.365  60.051 -50.654  1.00  0.00     0.165 HD
ENDROOT
BRANCH   1  13
HETATM   13  S   UNL     1     -43.239  56.432 -55.297  1.00  0.00     0.263 S 
HETATM   14  O   UNL     1     -42.112  56.182 -56.167  1.00  0.00    -0.200 OA
HETATM   15  O   UNL     1     -44.455  57.040 -55.799  1.00  0.00    -0.200 OA
BRANCH  13  16
HETATM   16  N   UNL     1     -43.705  55.008 -54.525  1.00  0.00    -0.281 N 
HETATM   17  H   UNL     1     -44.716  54.905 -54.459  1.00  0.00     0.179 HD
BRANCH  16  18
HETATM   18  C   UNL     1     -42.912  54.495 -53.464  1.00  0.00     0.042 A 
HETATM   19  C   UNL     1     -41.713  53.843 -53.746  1.00  0.00     0.030 A 
HETATM   20  C   UNL     1     -40.932  53.341 -52.700  1.00  0.00     0.009 A 
HETATM   21  C   UNL     1     -41.344  53.490 -51.368  1.00  0.00    -0.058 A 
HETATM   22  C   UNL     1     -42.553  54.144 -51.100  1.00  0.00     0.009 A 
HETATM   23  C   UNL     1     -43.336  54.637 -52.144  1.00  0.00     0.030 A 
BRANCH  21  24
HETATM   24  C   UNL     1     -40.481  52.993 -50.236  1.00  0.00     0.034 C 
HETATM   25  C   UNL     1     -39.655  54.112 -49.621  1.00  0.00     0.010 C 
ENDBRANCH  21  24
ENDBRANCH  16  18
ENDBRANCH  13  16
ENDBRANCH   1  13
BRANCH   7  26
HETATM   26  C   UNL     1     -44.377  61.788 -49.629  1.00  0.00     0.257 C 
HETATM   27  N   UNL     1     -45.463  61.239 -48.994  1.00  0.00    -0.357 N 
HETATM   28  H   UNL     1     -45.617  60.234 -49.085  1.00  0.00     0.162 HD
HETATM   29  O   UNL     1     -44.089  62.979 -49.556  1.00  0.00    -0.267 OA
BRANCH  27  30
HETATM   30  C   UNL     1     -46.364  62.013 -48.167  1.00  0.00     0.125 C 
BRANCH  30  31
HETATM   31  C   UNL     1     -46.155  61.791 -46.673  1.00  0.00     0.046 C 
BRANCH  31  32
HETATM   32  C   UNL     1     -45.600  60.408 -46.353  1.00  0.00     0.168 C 
BRANCH  32  33
HETATM   33  O   UNL     1     -46.566  59.436 -46.754  1.00  0.00    -0.396 OA
HETATM   34  C   UNL     1     -47.217  58.847 -45.636  1.00  0.00     0.201 C 
ENDBRANCH  32  33
ENDBRANCH  31  32
ENDBRANCH  30  31
ENDBRANCH  27  30
ENDBRANCH   7  26
TORSDOF 9
ENDMDL
MODEL 6
REMARK VINA RESULT:      -7.3      1.824      2.267
REMARK  9 active torsions:
REMARK  status: ('A' for Active; 'I' for Inactive)
REMARK    1  A    between atoms: C_2  and  C_3 
REMARK    2  A    between atoms: C_6  and  N_7 
REMARK    3  A    between atoms: N_7  and  S_8 
REMARK    4  A    between atoms: S_8  and  C_9 
REMARK    5  A    between atoms: C_15  and  C_16 
REMARK       I    between atoms: C_16  and  N_17 
REMARK    6  A    between atoms: N_17  and  C_18 
REMARK    7  A    between atoms: C_18  and  C_19 
REMARK    8  A    between atoms: C_19  and  C_20 
REMARK    9  A    between atoms: C_20  and  O_21 
ROOT
HETATM    1  C   UNL     1     -42.247  56.726 -52.725  1.00  0.00     0.081 A 
HETATM    2  C   UNL     1     -42.490  56.280 -54.027  1.00  0.00     0.043 A 
HETATM    3  C   UNL     1     -42.382  57.186 -55.086  1.00  0.00     0.043 A 
HETATM    4  C   UNL     1     -42.016  58.525 -54.858  1.00  0.00     0.046 A 
HETATM    5  N   UNL     1     -41.957  59.420 -55.933  1.00  0.00    -0.364 N 
HETATM    6  C   UNL     1     -42.159  58.987 -57.219  1.00  0.00     0.109 A 
HETATM    7  C   UNL     1     -42.495  57.737 -57.578  1.00  0.00     0.098 A 
HETATM    8  C   UNL     1     -42.645  56.740 -56.480  1.00  0.00     0.201 A 
HETATM    9  O   UNL     1     -42.973  55.576 -56.704  1.00  0.00    -0.286 OA
HETATM   10  C   UNL     1     -41.780  58.952 -53.548  1.00  0.00     0.032 A 
HETATM   11  C   UNL     1     -41.882  58.054 -52.480  1.00  0.00     0.027 A 
HETATM   12  H   UNL     1     -41.552  60.339 -55.792  1.00  0.00     0.165 HD
ENDROOT
BRANCH   1  13
HETATM   13  S   UNL     1     -42.334  55.561 -51.380  1.00  0.00     0.263 S 
HETATM   14  O   UNL     1     -43.198  54.476 -51.789  1.00  0.00    -0.200 OA
HETATM   15  O   UNL     1     -42.602  56.322 -50.178  1.00  0.00    -0.200 OA
BRANCH  13  16
HETATM   16  N   UNL     1     -40.742  55.020 -51.254  1.00  0.00    -0.281 N 
HETATM   17  H   UNL     1     -40.066  55.781 -51.229  1.00  0.00     0.179 HD
BRANCH  16  18
HETATM   18  C   UNL     1     -40.360  53.810 -51.893  1.00  0.00     0.042 A 
HETATM   19  C   UNL     1     -40.347  53.735 -53.284  1.00  0.00     0.030 A 
HETATM   20  C   UNL     1     -39.968  52.544 -53.912  1.00  0.00     0.009 A 
HETATM   21  C   UNL     1     -39.599  51.424 -53.153  1.00  0.00    -0.058 A 
HETATM   22  C   UNL     1     -39.622  51.513 -51.755  1.00  0.00     0.009 A 
HETATM   23  C   UNL     1     -40.008  52.699 -51.129  1.00  0.00     0.030 A 
BRANCH  21  24
HETATM   24  C   UNL     1     -39.144  50.155 -53.827  1.00  0.00     0.034 C 
HETATM   25  C   UNL     1     -40.115  49.710 -54.910  1.00  0.00     0.010 C 
ENDBRANCH  21  24
ENDBRANCH  16  18
ENDBRANCH  13  16
ENDBRANCH   1  13
BRANCH   7  26
HETATM   26  C   UNL     1     -42.686  57.437 -59.026  1.00  0.00     0.257 C 
HETATM   27  N   UNL     1     -43.566  56.422 -59.304  1.00  0.00    -0.357 N 
HETATM   28  H   UNL     1     -44.042  55.968 -58.522  1.00  0.00     0.162 HD
HETATM   29  O   UNL     1     -42.090  58.064 -59.897  1.00  0.00    -0.267 OA
BRANCH  27  30
HETATM   30  C   UNL     1     -43.882  56.001 -60.652  1.00  0.00     0.125 C 
BRANCH  30  31
HETATM   31  C   UNL     1     -45.142  55.146 -60.740  1.00  0.00     0.046 C 
BRANCH  31  32
HETATM   32  C   UNL     1     -46.419  55.977 -60.758  1.00  0.00     0.168 C 
BRANCH  32  33
HETATM   33  O   UNL     1     -46.113  57.278 -60.253  1.00  0.00    -0.396 OA
HETATM   34  C   UNL     1     -46.895  57.596 -59.110  1.00  0.00     0.201 C 
ENDBRANCH  32  33
ENDBRANCH  31  32
ENDBRANCH  30  31
ENDBRANCH  27  30
ENDBRANCH   7  26
TORSDOF 9
ENDMDL
MODEL 7
REMARK VINA RESULT:      -7.2      3.342      7.111
REMARK  9 active torsions:
REMARK  status: ('A' for Active; 'I' for Inactive)
REMARK    1  A    between atoms: C_2  and  C_3 
REMARK    2  A    between atoms: C_6  and  N_7 
REMARK    3  A    between atoms: N_7  and  S_8 
REMARK    4  A    between atoms: S_8  and  C_9 
REMARK    5  A    between atoms: C_15  and  C_16 
REMARK       I    between atoms: C_16  and  N_17 
REMARK    6  A    between atoms: N_17  and  C_18 
REMARK    7  A    between atoms: C_18  and  C_19 
REMARK    8  A    between atoms: C_19  and  C_20 
REMARK    9  A    between atoms: C_20  and  O_21 
ROOT
HETATM    1  C   UNL     1     -43.628  56.837 -54.628  1.00  0.00     0.081 A 
HETATM    2  C   UNL     1     -43.290  57.475 -53.432  1.00  0.00     0.043 A 
HETATM    3  C   UNL     1     -43.987  58.629 -53.058  1.00  0.00     0.043 A 
HETATM    4  C   UNL     1     -45.026  59.137 -53.858  1.00  0.00     0.046 A 
HETATM    5  N   UNL     1     -45.677  60.317 -53.480  1.00  0.00    -0.364 N 
HETATM    6  C   UNL     1     -45.379  60.934 -52.291  1.00  0.00     0.109 A 
HETATM    7  C   UNL     1     -44.426  60.546 -51.427  1.00  0.00     0.098 A 
HETATM    8  C   UNL     1     -43.640  59.333 -51.794  1.00  0.00     0.201 A 
HETATM    9  O   UNL     1     -42.731  58.912 -51.082  1.00  0.00    -0.286 OA
HETATM   10  C   UNL     1     -45.346  58.486 -55.052  1.00  0.00     0.032 A 
HETATM   11  C   UNL     1     -44.658  57.329 -55.435  1.00  0.00     0.027 A 
HETATM   12  H   UNL     1     -46.518  60.600 -53.971  1.00  0.00     0.165 HD
ENDROOT
BRANCH   1  13
HETATM   13  S   UNL     1     -42.777  55.338 -55.080  1.00  0.00     0.263 S 
HETATM   14  O   UNL     1     -42.430  55.431 -56.480  1.00  0.00    -0.200 OA
HETATM   15  O   UNL     1     -43.566  54.235 -54.573  1.00  0.00    -0.200 OA
BRANCH  13  16
HETATM   16  N   UNL     1     -41.385  55.402 -54.131  1.00  0.00    -0.281 N 
HETATM   17  H   UNL     1     -40.726  56.114 -54.440  1.00  0.00     0.179 HD
BRANCH  16  18
HETATM   18  C   UNL     1     -40.859  54.204 -53.577  1.00  0.00     0.042 A 
HETATM   19  C   UNL     1     -40.379  53.203 -54.419  1.00  0.00     0.030 A 
HETATM   20  C   UNL     1     -39.859  52.025 -53.873  1.00  0.00     0.009 A 
HETATM   21  C   UNL     1     -39.815  51.843 -52.483  1.00  0.00    -0.058 A 
HETATM   22  C   UNL     1     -40.306  52.855 -51.649  1.00  0.00     0.009 A 
HETATM   23  C   UNL     1     -40.833  54.027 -52.195  1.00  0.00     0.030 A 
BRANCH  21  24
HETATM   24  C   UNL     1     -39.211  50.595 -51.890  1.00  0.00     0.034 C 
HETATM   25  C   UNL     1     -39.939  50.159 -50.628  1.00  0.00     0.010 C 
ENDBRANCH  21  24
ENDBRANCH  16  18
ENDBRANCH  13  16
ENDBRANCH   1  13
BRANCH   7  26
HETATM   26  C   UNL     1     -44.227  61.338 -50.180  1.00  0.00     0.257 C 
HETATM   27  N   UNL     1     -45.180  61.155 -49.210  1.00  0.00    -0.357 N 
HETATM   28  H   UNL     1     -45.928  60.484 -49.390  1.00  0.00     0.162 HD
HETATM   29  O   UNL     1     -43.272  62.099 -50.047  1.00  0.00    -0.267 OA
BRANCH  27  30
HETATM   30  C   UNL     1     -45.142  61.833 -47.932  1.00  0.00     0.125 C 
BRANCH  30  31
HETATM   31  C   UNL     1     -46.524  62.066 -47.330  1.00  0.00     0.046 C 
BRANCH  31  32
HETATM   32  C   UNL     1     -46.880  61.043 -46.257  1.00  0.00     0.168 C 
BRANCH  32  33
HETATM   33  O   UNL     1     -46.534  59.746 -46.745  1.00  0.00    -0.396 OA
HETATM   34  C   UNL     1     -46.906  58.723 -45.832  1.00  0.00     0.201 C 
ENDBRANCH  32  33
ENDBRANCH  31  32
ENDBRANCH  30  31
ENDBRANCH  27  30
ENDBRANCH   7  26
TORSDOF 9
ENDMDL
MODEL 8
REMARK VINA RESULT:      -7.1      4.215      6.934
REMARK  9 active torsions:
REMARK  status: ('A' for Active; 'I' for Inactive)
REMARK    1  A    between atoms: C_2  and  C_3 
REMARK    2  A    between atoms: C_6  and  N_7 
REMARK    3  A    between atoms: N_7  and  S_8 
REMARK    4  A    between atoms: S_8  and  C_9 
REMARK    5  A    between atoms: C_15  and  C_16 
REMARK       I    between atoms: C_16  and  N_17 
REMARK    6  A    between atoms: N_17  and  C_18 
REMARK    7  A    between atoms: C_18  and  C_19 
REMARK    8  A    between atoms: C_19  and  C_20 
REMARK    9  A    between atoms: C_20  and  O_21 
ROOT
HETATM    1  C   UNL     1     -42.888  57.716 -51.937  1.00  0.00     0.081 A 
HETATM    2  C   UNL     1     -44.057  58.209 -51.352  1.00  0.00     0.043 A 
HETATM    3  C   UNL     1     -44.063  59.510 -50.839  1.00  0.00     0.043 A 
HETATM    4  C   UNL     1     -42.919  60.325 -50.921  1.00  0.00     0.046 A 
HETATM    5  N   UNL     1     -42.941  61.607 -50.361  1.00  0.00    -0.364 N 
HETATM    6  C   UNL     1     -44.093  62.117 -49.816  1.00  0.00     0.109 A 
HETATM    7  C   UNL     1     -45.256  61.456 -49.690  1.00  0.00     0.098 A 
HETATM    8  C   UNL     1     -45.292  60.056 -50.203  1.00  0.00     0.201 A 
HETATM    9  O   UNL     1     -46.302  59.360 -50.113  1.00  0.00    -0.286 OA
HETATM   10  C   UNL     1     -41.759  59.811 -51.506  1.00  0.00     0.032 A 
HETATM   11  C   UNL     1     -41.742  58.512 -52.026  1.00  0.00     0.027 A 
HETATM   12  H   UNL     1     -42.175  62.245 -50.550  1.00  0.00     0.165 HD
ENDROOT
BRANCH   1  13
HETATM   13  S   UNL     1     -42.895  56.078 -52.637  1.00  0.00     0.263 S 
HETATM   14  O   UNL     1     -43.498  56.158 -53.948  1.00  0.00    -0.200 OA
HETATM   15  O   UNL     1     -43.420  55.187 -51.623  1.00  0.00    -0.200 OA
BRANCH  13  16
HETATM   16  N   UNL     1     -41.252  55.726 -52.773  1.00  0.00    -0.281 N 
HETATM   17  H   UNL     1     -40.717  56.485 -53.191  1.00  0.00     0.179 HD
BRANCH  16  18
HETATM   18  C   UNL     1     -40.841  54.393 -53.045  1.00  0.00     0.042 A 
HETATM   19  C   UNL     1     -40.821  53.928 -54.358  1.00  0.00     0.030 A 
HETATM   20  C   UNL     1     -40.414  52.617 -54.625  1.00  0.00     0.009 A 
HETATM   21  C   UNL     1     -40.023  51.766 -53.581  1.00  0.00    -0.058 A 
HETATM   22  C   UNL     1     -40.052  52.246 -52.265  1.00  0.00     0.009 A 
HETATM   23  C   UNL     1     -40.467  53.552 -51.999  1.00  0.00     0.030 A 
BRANCH  21  24
HETATM   24  C   UNL     1     -39.537  50.368 -53.870  1.00  0.00     0.034 C 
HETATM   25  C   UNL     1     -39.598  49.481 -52.636  1.00  0.00     0.010 C 
ENDBRANCH  21  24
ENDBRANCH  16  18
ENDBRANCH  13  16
ENDBRANCH   1  13
BRANCH   7  26
HETATM   26  C   UNL     1     -46.412  62.158 -49.063  1.00  0.00     0.257 C 
HETATM   27  N   UNL     1     -46.872  63.255 -49.746  1.00  0.00    -0.357 N 
HETATM   28  H   UNL     1     -46.422  63.496 -50.631  1.00  0.00     0.162 HD
HETATM   29  O   UNL     1     -46.905  61.769 -48.008  1.00  0.00    -0.267 OA
BRANCH  27  30
HETATM   30  C   UNL     1     -47.991  64.052 -49.291  1.00  0.00     0.125 C 
BRANCH  30  31
HETATM   31  C   UNL     1     -49.287  63.760 -50.042  1.00  0.00     0.046 C 
BRANCH  31  32
HETATM   32  C   UNL     1     -49.137  63.900 -51.553  1.00  0.00     0.168 C 
BRANCH  32  33
HETATM   33  O   UNL     1     -50.224  63.211 -52.174  1.00  0.00    -0.396 OA
HETATM   34  C   UNL     1     -49.772  62.118 -52.963  1.00  0.00     0.201 C 
ENDBRANCH  32  33
ENDBRANCH  31  32
ENDBRANCH  30  31
ENDBRANCH  27  30
ENDBRANCH   7  26
TORSDOF 9
ENDMDL
MODEL 9
REMARK VINA RESULT:      -6.9     16.532     18.325
REMARK  9 active torsions:
REMARK  status: ('A' for Active; 'I' for Inactive)
REMARK    1  A    between atoms: C_2  and  C_3 
REMARK    2  A    between atoms: C_6  and  N_7 
REMARK    3  A    between atoms: N_7  and  S_8 
REMARK    4  A    between atoms: S_8  and  C_9 
REMARK    5  A    between atoms: C_15  and  C_16 
REMARK       I    between atoms: C_16  and  N_17 
REMARK    6  A    between atoms: N_17  and  C_18 
REMARK    7  A    between atoms: C_18  and  C_19 
REMARK    8  A    between atoms: C_19  and  C_20 
REMARK    9  A    between atoms: C_20  and  O_21 
ROOT
HETATM    1  C   UNL     1     -34.365  40.684 -55.944  1.00  0.00     0.081 A 
HETATM    2  C   UNL     1     -34.811  39.811 -56.939  1.00  0.00     0.043 A 
HETATM    3  C   UNL     1     -35.714  40.280 -57.898  1.00  0.00     0.043 A 
HETATM    4  C   UNL     1     -36.158  41.614 -57.882  1.00  0.00     0.046 A 
HETATM    5  N   UNL     1     -37.095  42.043 -58.830  1.00  0.00    -0.364 N 
HETATM    6  C   UNL     1     -37.514  41.206 -59.833  1.00  0.00     0.109 A 
HETATM    7  C   UNL     1     -37.156  39.919 -59.977  1.00  0.00     0.098 A 
HETATM    8  C   UNL     1     -36.212  39.368 -58.963  1.00  0.00     0.201 A 
HETATM    9  O   UNL     1     -35.843  38.195 -58.993  1.00  0.00    -0.286 OA
HETATM   10  C   UNL     1     -35.703  42.470 -56.876  1.00  0.00     0.032 A 
HETATM   11  C   UNL     1     -34.797  42.014 -55.912  1.00  0.00     0.027 A 
HETATM   12  H   UNL     1     -37.300  43.034 -58.912  1.00  0.00     0.165 HD
ENDROOT
BRANCH   1  13
HETATM   13  S   UNL     1     -33.176  40.103 -54.751  1.00  0.00     0.263 S 
HETATM   14  O   UNL     1     -31.856  40.404 -55.258  1.00  0.00    -0.200 OA
HETATM   15  O   UNL     1     -33.556  38.750 -54.401  1.00  0.00    -0.200 OA
BRANCH  13  16
HETATM   16  N   UNL     1     -33.511  41.054 -53.400  1.00  0.00    -0.281 N 
HETATM   17  H   UNL     1     -33.380  42.049 -53.574  1.00  0.00     0.179 HD
BRANCH  16  18
HETATM   18  C   UNL     1     -33.209  40.559 -52.103  1.00  0.00     0.042 A 
HETATM   19  C   UNL     1     -34.239  40.324 -51.194  1.00  0.00     0.030 A 
HETATM   20  C   UNL     1     -33.942  39.834 -49.918  1.00  0.00     0.009 A 
HETATM   21  C   UNL     1     -32.615  39.575 -49.546  1.00  0.00    -0.058 A 
HETATM   22  C   UNL     1     -31.590  39.820 -50.468  1.00  0.00     0.009 A 
HETATM   23  C   UNL     1     -31.887  40.317 -51.738  1.00  0.00     0.030 A 
BRANCH  21  24
HETATM   24  C   UNL     1     -32.296  39.002 -48.189  1.00  0.00     0.034 C 
HETATM   25  C   UNL     1     -31.220  39.805 -47.474  1.00  0.00     0.010 C 
ENDBRANCH  21  24
ENDBRANCH  16  18
ENDBRANCH  13  16
ENDBRANCH   1  13
BRANCH   7  26
HETATM   26  C   UNL     1     -37.713  39.147 -61.123  1.00  0.00     0.257 C 
HETATM   27  N   UNL     1     -38.954  38.601 -60.915  1.00  0.00    -0.357 N 
HETATM   28  H   UNL     1     -39.416  38.780 -60.021  1.00  0.00     0.162 HD
HETATM   29  O   UNL     1     -37.091  39.016 -62.174  1.00  0.00    -0.267 OA
BRANCH  27  30
HETATM   30  C   UNL     1     -39.654  37.829 -61.920  1.00  0.00     0.125 C 
BRANCH  30  31
HETATM   31  C   UNL     1     -40.455  36.667 -61.341  1.00  0.00     0.046 C 
BRANCH  31  32
HETATM   32  C   UNL     1     -41.959  36.842 -61.516  1.00  0.00     0.168 C 
BRANCH  32  33
HETATM   33  O   UNL     1     -42.207  37.250 -62.862  1.00  0.00    -0.396 OA
HETATM   34  C   UNL     1     -43.390  36.658 -63.382  1.00  0.00     0.201 C 
ENDBRANCH  32  33
ENDBRANCH  31  32
ENDBRANCH  30  31
ENDBRANCH  27  30
ENDBRANCH   7  26
TORSDOF 9
ENDMDL
MODEL 10
REMARK VINA RESULT:      -6.8     16.184     20.409
REMARK  9 active torsions:
REMARK  status: ('A' for Active; 'I' for Inactive)
REMARK    1  A    between atoms: C_2  and  C_3 
REMARK    2  A    between atoms: C_6  and  N_7 
REMARK    3  A    between atoms: N_7  and  S_8 
REMARK    4  A    between atoms: S_8  and  C_9 
REMARK    5  A    between atoms: C_15  and  C_16 
REMARK       I    between atoms: C_16  and  N_17 
REMARK    6  A    between atoms: N_17  and  C_18 
REMARK    7  A    between atoms: C_18  and  C_19 
REMARK    8  A    between atoms: C_19  and  C_20 
REMARK    9  A    between atoms: C_20  and  O_21 
ROOT
HETATM    1  C   UNL     1     -36.215  40.380 -51.507  1.00  0.00     0.081 A 
HETATM    2  C   UNL     1     -34.901  40.392 -51.033  1.00  0.00     0.043 A 
HETATM    3  C   UNL     1     -34.569  39.593 -49.935  1.00  0.00     0.043 A 
HETATM    4  C   UNL     1     -35.530  38.770 -49.321  1.00  0.00     0.046 A 
HETATM    5  N   UNL     1     -35.178  38.013 -48.197  1.00  0.00    -0.364 N 
HETATM    6  C   UNL     1     -33.883  37.989 -47.743  1.00  0.00     0.109 A 
HETATM    7  C   UNL     1     -32.867  38.709 -48.246  1.00  0.00     0.098 A 
HETATM    8  C   UNL     1     -33.179  39.596 -49.403  1.00  0.00     0.201 A 
HETATM    9  O   UNL     1     -32.322  40.312 -49.919  1.00  0.00    -0.286 OA
HETATM   10  C   UNL     1     -36.839  38.774 -49.808  1.00  0.00     0.032 A 
HETATM   11  C   UNL     1     -37.184  39.568 -50.908  1.00  0.00     0.027 A 
HETATM   12  H   UNL     1     -35.823  37.312 -47.849  1.00  0.00     0.165 HD
ENDROOT
BRANCH   1  13
HETATM   13  S   UNL     1     -36.629  41.358 -52.937  1.00  0.00     0.263 S 
HETATM   14  O   UNL     1     -35.936  42.622 -52.825  1.00  0.00    -0.200 OA
HETATM   15  O   UNL     1     -38.068  41.301 -53.085  1.00  0.00    -0.200 OA
BRANCH  13  16
HETATM   16  N   UNL     1     -35.985  40.453 -54.205  1.00  0.00    -0.281 N 
HETATM   17  H   UNL     1     -35.043  40.115 -54.012  1.00  0.00     0.179 HD
BRANCH  16  18
HETATM   18  C   UNL     1     -36.310  40.795 -55.545  1.00  0.00     0.042 A 
HETATM   19  C   UNL     1     -35.575  41.776 -56.208  1.00  0.00     0.030 A 
HETATM   20  C   UNL     1     -35.894  42.109 -57.528  1.00  0.00     0.009 A 
HETATM   21  C   UNL     1     -36.946  41.462 -58.192  1.00  0.00    -0.058 A 
HETATM   22  C   UNL     1     -37.678  40.481 -57.512  1.00  0.00     0.009 A 
HETATM   23  C   UNL     1     -37.365  40.155 -56.191  1.00  0.00     0.030 A 
BRANCH  21  24
HETATM   24  C   UNL     1     -37.261  41.785 -59.631  1.00  0.00     0.034 C 
HETATM   25  C   UNL     1     -37.424  40.527 -60.471  1.00  0.00     0.010 C 
ENDBRANCH  21  24
ENDBRANCH  16  18
ENDBRANCH  13  16
ENDBRANCH   1  13
BRANCH   7  26
HETATM   26  C   UNL     1     -31.518  38.571 -47.625  1.00  0.00     0.257 C 
HETATM   27  N   UNL     1     -30.902  39.751 -47.291  1.00  0.00    -0.357 N 
HETATM   28  H   UNL     1     -31.407  40.623 -47.459  1.00  0.00     0.162 HD
HETATM   29  O   UNL     1     -31.008  37.471 -47.433  1.00  0.00    -0.267 OA
BRANCH  27  30
HETATM   30  C   UNL     1     -29.596  39.808 -46.671  1.00  0.00     0.125 C 
BRANCH  30  31
HETATM   31  C   UNL     1     -29.623  40.372 -45.253  1.00  0.00     0.046 C 
BRANCH  31  32
HETATM   32  C   UNL     1     -30.149  39.372 -44.231  1.00  0.00     0.168 C 
BRANCH  32  33
HETATM   33  O   UNL     1     -31.577  39.407 -44.266  1.00  0.00    -0.396 OA
HETATM   34  C   UNL     1     -32.144  38.167 -43.865  1.00  0.00     0.201 C 
ENDBRANCH  32  33
ENDBRANCH  31  32
ENDBRANCH  30  31
ENDBRANCH  27  30
ENDBRANCH   7  26
TORSDOF 9
ENDMDL
