MODEL 1
REMARK VINA RESULT:      -8.0      0.000      0.000
REMARK  9 active torsions:
REMARK  status: ('A' for Active; 'I' for Inactive)
REMARK    1  A    between atoms: C_4  and  N_5 
REMARK    2  A    between atoms: C_6  and  S_7 
REMARK    3  A    between atoms: S_7  and  C_8 
REMARK    4  A    between atoms: C_8  and  C_9 
REMARK       I    between atoms: C_9  and  N_10 
REMARK    5  A    between atoms: N_10  and  C_11 
REMARK    6  A    between atoms: C_12  and  C_13 
REMARK       I    between atoms: C_13  and  N_14 
REMARK    7  A    between atoms: N_14  and  C_15 
REMARK    8  A    between atoms: C_26  and  C_27 
REMARK    9  A    between atoms: C_27  and  N_28 
ROOT
HETATM    1  S   UNL     1     -43.511  59.093 -53.437  1.00  0.00    -0.080 SA
ENDROOT
BRANCH   1   2
HETATM    2  C   UNL     1     -43.874  57.810 -52.337  1.00  0.00     0.196 C 
HETATM    3  N   UNL     1     -43.479  56.487 -52.461  1.00  0.00    -0.274 N 
HETATM    4  C   UNL     1     -43.862  55.930 -51.248  1.00  0.00     0.161 C 
HETATM    5  N   UNL     1     -44.644  56.761 -50.595  1.00  0.00    -0.132 NA
HETATM    6  N   UNL     1     -44.658  57.932 -51.289  1.00  0.00    -0.122 NA
BRANCH   3   7
HETATM    7  C   UNL     1     -42.863  55.790 -53.532  1.00  0.00     0.043 A 
HETATM    8  C   UNL     1     -43.546  54.818 -54.268  1.00  0.00     0.030 A 
HETATM    9  C   UNL     1     -42.892  54.144 -55.303  1.00  0.00     0.002 A 
HETATM   10  C   UNL     1     -41.559  54.428 -55.600  1.00  0.00     0.000 A 
HETATM   11  C   UNL     1     -40.873  55.391 -54.866  1.00  0.00     0.002 A 
HETATM   12  C   UNL     1     -41.520  56.074 -53.836  1.00  0.00     0.030 A 
ENDBRANCH   3   7
BRANCH   4  13
HETATM   13  C   UNL     1     -43.296  54.690 -50.659  1.00  0.00     0.315 C 
BRANCH  13  14
HETATM   14  N   UNL     1     -41.789  54.778 -50.553  1.00  0.00    -0.064 N 
HETATM   15  H   UNL     1     -41.523  55.572 -51.159  1.00  0.00     0.280 HD
HETATM   16  C   UNL     1     -41.039  53.578 -51.117  1.00  0.00     0.235 C 
HETATM   17  C   UNL     1     -40.338  52.987 -49.909  1.00  0.00     0.029 C 
HETATM   18  C   UNL     1     -40.016  54.202 -49.063  1.00  0.00     0.029 C 
HETATM   19  C   UNL     1     -41.285  55.026 -49.155  1.00  0.00     0.235 C 
ENDBRANCH  13  14
ENDBRANCH   4  13
ENDBRANCH   1   2
BRANCH   1  20
HETATM   20  C   UNL     1     -45.037  59.209 -54.403  1.00  0.00     0.185 C 
BRANCH  20  21
HETATM   21  C   UNL     1     -44.825  58.857 -55.871  1.00  0.00     0.231 C 
HETATM   22  N   UNL     1     -43.656  58.149 -56.100  1.00  0.00    -0.326 N 
HETATM   23  H   UNL     1     -42.984  58.137 -55.342  1.00  0.00     0.169 HD
HETATM   24  O   UNL     1     -45.585  59.261 -56.747  1.00  0.00    -0.272 OA
BRANCH  22  25
HETATM   25  C   UNL     1     -43.168  57.733 -57.357  1.00  0.00     0.050 A 
HETATM   26  C   UNL     1     -42.196  58.383 -58.130  1.00  0.00     0.058 A 
HETATM   27  C   UNL     1     -41.748  57.802 -59.331  1.00  0.00     0.019 A 
HETATM   28  C   UNL     1     -42.280  56.592 -59.776  1.00  0.00     0.001 A 
HETATM   29  C   UNL     1     -43.289  55.975 -59.046  1.00  0.00     0.002 A 
HETATM   30  C   UNL     1     -43.738  56.548 -57.854  1.00  0.00     0.030 A 
BRANCH  26  31
HETATM   31  C   UNL     1     -41.743  59.777 -57.911  1.00  0.00     0.254 C 
HETATM   32  N   UNL     1     -41.640  60.520 -59.067  1.00  0.00    -0.352 N 
HETATM   33  H   UNL     1     -41.454  59.988 -59.917  1.00  0.00     0.163 HD
HETATM   34  O   UNL     1     -41.599  60.200 -56.766  1.00  0.00    -0.268 OA
BRANCH  32  35
HETATM   35  C   UNL     1     -41.383  61.922 -59.100  1.00  0.00     0.084 A 
HETATM   36  C   UNL     1     -40.008  62.506 -58.945  1.00  0.00     0.027 A 
HETATM   37  C   UNL     1     -40.678  62.524 -60.286  1.00  0.00     0.027 A 
ENDBRANCH  32  35
ENDBRANCH  26  31
ENDBRANCH  22  25
ENDBRANCH  20  21
ENDBRANCH   1  20
TORSDOF 9
ENDMDL
MODEL 2
REMARK VINA RESULT:      -7.8      2.500      5.167
REMARK  9 active torsions:
REMARK  status: ('A' for Active; 'I' for Inactive)
REMARK    1  A    between atoms: C_4  and  N_5 
REMARK    2  A    between atoms: C_6  and  S_7 
REMARK    3  A    between atoms: S_7  and  C_8 
REMARK    4  A    between atoms: C_8  and  C_9 
REMARK       I    between atoms: C_9  and  N_10 
REMARK    5  A    between atoms: N_10  and  C_11 
REMARK    6  A    between atoms: C_12  and  C_13 
REMARK       I    between atoms: C_13  and  N_14 
REMARK    7  A    between atoms: N_14  and  C_15 
REMARK    8  A    between atoms: C_26  and  C_27 
REMARK    9  A    between atoms: C_27  and  N_28 
ROOT
HETATM    1  S   UNL     1     -43.525  60.515 -54.590  1.00  0.00    -0.080 SA
ENDROOT
BRANCH   1   2
HETATM    2  C   UNL     1     -42.276  59.909 -53.561  1.00  0.00     0.196 C 
HETATM    3  N   UNL     1     -42.365  59.707 -52.193  1.00  0.00    -0.274 N 
HETATM    4  C   UNL     1     -41.181  59.046 -51.895  1.00  0.00     0.161 C 
HETATM    5  N   UNL     1     -40.361  59.101 -52.922  1.00  0.00    -0.132 NA
HETATM    6  N   UNL     1     -41.049  59.653 -53.958  1.00  0.00    -0.122 NA
BRANCH   3   7
HETATM    7  C   UNL     1     -43.362  60.079 -51.255  1.00  0.00     0.043 A 
HETATM    8  C   UNL     1     -43.194  61.164 -50.392  1.00  0.00     0.030 A 
HETATM    9  C   UNL     1     -44.197  61.482 -49.471  1.00  0.00     0.002 A 
HETATM   10  C   UNL     1     -45.360  60.716 -49.402  1.00  0.00     0.000 A 
HETATM   11  C   UNL     1     -45.530  59.630 -50.256  1.00  0.00     0.002 A 
HETATM   12  C   UNL     1     -44.537  59.310 -51.183  1.00  0.00     0.030 A 
ENDBRANCH   3   7
BRANCH   4  13
HETATM   13  C   UNL     1     -40.951  58.201 -50.696  1.00  0.00     0.315 C 
BRANCH  13  14
HETATM   14  N   UNL     1     -41.151  56.736 -51.017  1.00  0.00    -0.064 N 
HETATM   15  H   UNL     1     -40.384  56.496 -51.667  1.00  0.00     0.280 HD
HETATM   16  C   UNL     1     -42.432  56.420 -51.779  1.00  0.00     0.235 C 
HETATM   17  C   UNL     1     -43.217  55.544 -50.821  1.00  0.00     0.029 C 
HETATM   18  C   UNL     1     -42.139  54.772 -50.090  1.00  0.00     0.029 C 
HETATM   19  C   UNL     1     -41.089  55.829 -49.815  1.00  0.00     0.235 C 
ENDBRANCH  13  14
ENDBRANCH   4  13
ENDBRANCH   1   2
BRANCH   1  20
HETATM   20  C   UNL     1     -42.583  61.137 -56.006  1.00  0.00     0.185 C 
BRANCH  20  21
HETATM   21  C   UNL     1     -42.291  60.050 -57.033  1.00  0.00     0.231 C 
HETATM   22  N   UNL     1     -43.300  59.106 -57.133  1.00  0.00    -0.326 N 
HETATM   23  H   UNL     1     -43.989  59.106 -56.389  1.00  0.00     0.169 HD
HETATM   24  O   UNL     1     -41.216  59.995 -57.625  1.00  0.00    -0.272 OA
BRANCH  22  25
HETATM   25  C   UNL     1     -43.290  57.960 -57.955  1.00  0.00     0.050 A 
HETATM   26  C   UNL     1     -43.195  56.628 -57.527  1.00  0.00     0.058 A 
HETATM   27  C   UNL     1     -43.280  55.580 -58.463  1.00  0.00     0.019 A 
HETATM   28  C   UNL     1     -43.435  55.853 -59.822  1.00  0.00     0.001 A 
HETATM   29  C   UNL     1     -43.466  57.172 -60.259  1.00  0.00     0.002 A 
HETATM   30  C   UNL     1     -43.381  58.216 -59.334  1.00  0.00     0.030 A 
BRANCH  26  31
HETATM   31  C   UNL     1     -42.775  56.211 -56.168  1.00  0.00     0.254 C 
HETATM   32  N   UNL     1     -41.704  55.343 -56.156  1.00  0.00    -0.352 N 
HETATM   33  H   UNL     1     -41.598  54.763 -56.987  1.00  0.00     0.163 HD
HETATM   34  O   UNL     1     -43.304  56.718 -55.182  1.00  0.00    -0.268 OA
BRANCH  32  35
HETATM   35  C   UNL     1     -41.018  54.931 -54.976  1.00  0.00     0.084 A 
HETATM   36  C   UNL     1     -41.405  53.711 -54.189  1.00  0.00     0.027 A 
HETATM   37  C   UNL     1     -40.149  53.702 -55.008  1.00  0.00     0.027 A 
ENDBRANCH  32  35
ENDBRANCH  26  31
ENDBRANCH  22  25
ENDBRANCH  20  21
ENDBRANCH   1  20
TORSDOF 9
ENDMDL
MODEL 3
REMARK VINA RESULT:      -7.5      2.591      8.876
REMARK  9 active torsions:
REMARK  status: ('A' for Active; 'I' for Inactive)
REMARK    1  A    between atoms: C_4  and  N_5 
REMARK    2  A    between atoms: C_6  and  S_7 
REMARK    3  A    between atoms: S_7  and  C_8 
REMARK    4  A    between atoms: C_8  and  C_9 
REMARK       I    between atoms: C_9  and  N_10 
REMARK    5  A    between atoms: N_10  and  C_11 
REMARK    6  A    between atoms: C_12  and  C_13 
REMARK       I    between atoms: C_13  and  N_14 
REMARK    7  A    between atoms: N_14  and  C_15 
REMARK    8  A    between atoms: C_26  and  C_27 
REMARK    9  A    between atoms: C_27  and  N_28 
ROOT
HETATM    1  S   UNL     1     -43.020  57.077 -54.894  1.00  0.00    -0.080 SA
ENDROOT
BRANCH   1   2
HETATM    2  C   UNL     1     -42.508  58.430 -55.840  1.00  0.00     0.196 C 
HETATM    3  N   UNL     1     -42.737  58.619 -57.193  1.00  0.00    -0.274 N 
HETATM    4  C   UNL     1     -42.296  59.918 -57.409  1.00  0.00     0.161 C 
HETATM    5  N   UNL     1     -41.624  60.347 -56.362  1.00  0.00    -0.132 NA
HETATM    6  N   UNL     1     -41.751  59.405 -55.387  1.00  0.00    -0.122 NA
BRANCH   3   7
HETATM    7  C   UNL     1     -43.257  57.748 -58.185  1.00  0.00     0.043 A 
HETATM    8  C   UNL     1     -44.631  57.604 -58.391  1.00  0.00     0.030 A 
HETATM    9  C   UNL     1     -45.098  56.719 -59.368  1.00  0.00     0.002 A 
HETATM   10  C   UNL     1     -44.200  55.972 -60.132  1.00  0.00     0.000 A 
HETATM   11  C   UNL     1     -42.830  56.109 -59.926  1.00  0.00     0.002 A 
HETATM   12  C   UNL     1     -42.356  56.995 -58.958  1.00  0.00     0.030 A 
ENDBRANCH   3   7
BRANCH   4  13
HETATM   13  C   UNL     1     -42.709  60.786 -58.540  1.00  0.00     0.315 C 
BRANCH  13  14
HETATM   14  N   UNL     1     -41.587  60.940 -59.544  1.00  0.00    -0.064 N 
HETATM   15  H   UNL     1     -40.946  60.152 -59.354  1.00  0.00     0.280 HD
HETATM   16  C   UNL     1     -40.740  62.194 -59.367  1.00  0.00     0.235 C 
HETATM   17  C   UNL     1     -40.980  62.978 -60.643  1.00  0.00     0.029 C 
HETATM   18  C   UNL     1     -41.160  61.897 -61.688  1.00  0.00     0.029 C 
HETATM   19  C   UNL     1     -42.036  60.882 -60.981  1.00  0.00     0.235 C 
ENDBRANCH  13  14
ENDBRANCH   4  13
ENDBRANCH   1   2
BRANCH   1  20
HETATM   20  C   UNL     1     -43.008  57.759 -53.217  1.00  0.00     0.185 C 
BRANCH  20  21
HETATM   21  C   UNL     1     -42.905  56.676 -52.149  1.00  0.00     0.231 C 
HETATM   22  N   UNL     1     -41.616  56.197 -51.978  1.00  0.00    -0.326 N 
HETATM   23  H   UNL     1     -40.948  56.440 -52.701  1.00  0.00     0.169 HD
HETATM   24  O   UNL     1     -43.901  56.228 -51.586  1.00  0.00    -0.272 OA
BRANCH  22  25
HETATM   25  C   UNL     1     -41.221  55.162 -51.105  1.00  0.00     0.050 A 
HETATM   26  C   UNL     1     -40.770  53.887 -51.474  1.00  0.00     0.058 A 
HETATM   27  C   UNL     1     -40.332  52.983 -50.489  1.00  0.00     0.019 A 
HETATM   28  C   UNL     1     -40.362  53.334 -49.139  1.00  0.00     0.001 A 
HETATM   29  C   UNL     1     -40.867  54.573 -48.762  1.00  0.00     0.002 A 
HETATM   30  C   UNL     1     -41.305  55.473 -49.736  1.00  0.00     0.030 A 
BRANCH  26  31
HETATM   31  C   UNL     1     -40.928  53.300 -52.826  1.00  0.00     0.254 C 
HETATM   32  N   UNL     1     -40.041  52.281 -53.100  1.00  0.00    -0.352 N 
HETATM   33  H   UNL     1     -39.156  52.321 -52.597  1.00  0.00     0.163 HD
HETATM   34  O   UNL     1     -41.857  53.660 -53.544  1.00  0.00    -0.268 OA
BRANCH  32  35
HETATM   35  C   UNL     1     -40.100  51.456 -54.261  1.00  0.00     0.084 A 
HETATM   36  C   UNL     1     -39.389  50.137 -54.365  1.00  0.00     0.027 A 
HETATM   37  C   UNL     1     -40.881  50.169 -54.225  1.00  0.00     0.027 A 
ENDBRANCH  32  35
ENDBRANCH  26  31
ENDBRANCH  22  25
ENDBRANCH  20  21
ENDBRANCH   1  20
TORSDOF 9
ENDMDL
MODEL 4
REMARK VINA RESULT:      -7.5      2.922      8.733
REMARK  9 active torsions:
REMARK  status: ('A' for Active; 'I' for Inactive)
REMARK    1  A    between atoms: C_4  and  N_5 
REMARK    2  A    between atoms: C_6  and  S_7 
REMARK    3  A    between atoms: S_7  and  C_8 
REMARK    4  A    between atoms: C_8  and  C_9 
REMARK       I    between atoms: C_9  and  N_10 
REMARK    5  A    between atoms: N_10  and  C_11 
REMARK    6  A    between atoms: C_12  and  C_13 
REMARK       I    between atoms: C_13  and  N_14 
REMARK    7  A    between atoms: N_14  and  C_15 
REMARK    8  A    between atoms: C_26  and  C_27 
REMARK    9  A    between atoms: C_27  and  N_28 
ROOT
HETATM    1  S   UNL     1     -41.796  57.443 -54.905  1.00  0.00    -0.080 SA
ENDROOT
BRANCH   1   2
HETATM    2  C   UNL     1     -42.451  56.929 -56.420  1.00  0.00     0.196 C 
HETATM    3  N   UNL     1     -42.702  57.733 -57.520  1.00  0.00    -0.274 N 
HETATM    4  C   UNL     1     -43.038  56.818 -58.509  1.00  0.00     0.161 C 
HETATM    5  N   UNL     1     -43.234  55.631 -57.978  1.00  0.00    -0.132 NA
HETATM    6  N   UNL     1     -42.877  55.710 -56.667  1.00  0.00    -0.122 NA
BRANCH   3   7
HETATM    7  C   UNL     1     -42.677  59.143 -57.674  1.00  0.00     0.043 A 
HETATM    8  C   UNL     1     -41.535  59.816 -58.114  1.00  0.00     0.030 A 
HETATM    9  C   UNL     1     -41.552  61.209 -58.233  1.00  0.00     0.002 A 
HETATM   10  C   UNL     1     -42.699  61.932 -57.905  1.00  0.00     0.000 A 
HETATM   11  C   UNL     1     -43.838  61.266 -57.461  1.00  0.00     0.002 A 
HETATM   12  C   UNL     1     -43.832  59.876 -57.347  1.00  0.00     0.030 A 
ENDBRANCH   3   7
BRANCH   4  13
HETATM   13  C   UNL     1     -42.960  57.069 -59.970  1.00  0.00     0.315 C 
BRANCH  13  14
HETATM   14  N   UNL     1     -44.332  57.008 -60.605  1.00  0.00    -0.064 N 
HETATM   15  H   UNL     1     -44.207  57.400 -61.553  1.00  0.00     0.280 HD
HETATM   16  C   UNL     1     -45.381  57.892 -59.943  1.00  0.00     0.235 C 
HETATM   17  C   UNL     1     -46.407  56.907 -59.416  1.00  0.00     0.029 C 
HETATM   18  C   UNL     1     -46.379  55.791 -60.441  1.00  0.00     0.029 C 
HETATM   19  C   UNL     1     -44.898  55.615 -60.712  1.00  0.00     0.235 C 
ENDBRANCH  13  14
ENDBRANCH   4  13
ENDBRANCH   1   2
BRANCH   1  20
HETATM   20  C   UNL     1     -43.234  57.329 -53.810  1.00  0.00     0.185 C 
BRANCH  20  21
HETATM   21  C   UNL     1     -43.047  56.290 -52.711  1.00  0.00     0.231 C 
HETATM   22  N   UNL     1     -41.718  56.052 -52.403  1.00  0.00    -0.326 N 
HETATM   23  H   UNL     1     -41.035  56.404 -53.063  1.00  0.00     0.169 HD
HETATM   24  O   UNL     1     -43.999  55.676 -52.237  1.00  0.00    -0.272 OA
BRANCH  22  25
HETATM   25  C   UNL     1     -41.235  55.110 -51.470  1.00  0.00     0.050 A 
HETATM   26  C   UNL     1     -40.633  53.879 -51.764  1.00  0.00     0.058 A 
HETATM   27  C   UNL     1     -40.125  53.078 -50.724  1.00  0.00     0.019 A 
HETATM   28  C   UNL     1     -40.234  53.486 -49.395  1.00  0.00     0.001 A 
HETATM   29  C   UNL     1     -40.886  54.676 -49.093  1.00  0.00     0.002 A 
HETATM   30  C   UNL     1     -41.393  55.474 -50.121  1.00  0.00     0.030 A 
BRANCH  26  31
HETATM   31  C   UNL     1     -40.685  53.214 -53.087  1.00  0.00     0.254 C 
HETATM   32  N   UNL     1     -39.863  52.112 -53.192  1.00  0.00    -0.352 N 
HETATM   33  H   UNL     1     -39.041  52.117 -52.590  1.00  0.00     0.163 HD
HETATM   34  O   UNL     1     -41.491  53.595 -53.932  1.00  0.00    -0.268 OA
BRANCH  32  35
HETATM   35  C   UNL     1     -39.859  51.217 -54.302  1.00  0.00     0.084 A 
HETATM   36  C   UNL     1     -39.360  49.803 -54.210  1.00  0.00     0.027 A 
HETATM   37  C   UNL     1     -40.830  50.067 -54.338  1.00  0.00     0.027 A 
ENDBRANCH  32  35
ENDBRANCH  26  31
ENDBRANCH  22  25
ENDBRANCH  20  21
ENDBRANCH   1  20
TORSDOF 9
ENDMDL
MODEL 5
REMARK VINA RESULT:      -7.4      2.596      8.314
REMARK  9 active torsions:
REMARK  status: ('A' for Active; 'I' for Inactive)
REMARK    1  A    between atoms: C_4  and  N_5 
REMARK    2  A    between atoms: C_6  and  S_7 
REMARK    3  A    between atoms: S_7  and  C_8 
REMARK    4  A    between atoms: C_8  and  C_9 
REMARK       I    between atoms: C_9  and  N_10 
REMARK    5  A    between atoms: N_10  and  C_11 
REMARK    6  A    between atoms: C_12  and  C_13 
REMARK       I    between atoms: C_13  and  N_14 
REMARK    7  A    between atoms: N_14  and  C_15 
REMARK    8  A    between atoms: C_26  and  C_27 
REMARK    9  A    between atoms: C_27  and  N_28 
ROOT
HETATM    1  S   UNL     1     -43.689  56.980 -54.995  1.00  0.00    -0.080 SA
ENDROOT
BRANCH   1   2
HETATM    2  C   UNL     1     -42.916  58.317 -55.772  1.00  0.00     0.196 C 
HETATM    3  N   UNL     1     -43.071  58.699 -57.095  1.00  0.00    -0.274 N 
HETATM    4  C   UNL     1     -42.396  59.911 -57.154  1.00  0.00     0.161 C 
HETATM    5  N   UNL     1     -41.687  60.087 -56.060  1.00  0.00    -0.132 NA
HETATM    6  N   UNL     1     -42.008  59.079 -55.204  1.00  0.00    -0.122 NA
BRANCH   3   7
HETATM    7  C   UNL     1     -43.712  58.057 -58.186  1.00  0.00     0.043 A 
HETATM    8  C   UNL     1     -42.990  57.375 -59.168  1.00  0.00     0.030 A 
HETATM    9  C   UNL     1     -43.664  56.774 -60.235  1.00  0.00     0.002 A 
HETATM   10  C   UNL     1     -45.053  56.858 -60.330  1.00  0.00     0.000 A 
HETATM   11  C   UNL     1     -45.777  57.541 -59.357  1.00  0.00     0.002 A 
HETATM   12  C   UNL     1     -45.113  58.138 -58.285  1.00  0.00     0.030 A 
ENDBRANCH   3   7
BRANCH   4  13
HETATM   13  C   UNL     1     -42.615  60.963 -58.177  1.00  0.00     0.315 C 
BRANCH  13  14
HETATM   14  N   UNL     1     -41.423  61.076 -59.104  1.00  0.00    -0.064 N 
HETATM   15  H   UNL     1     -40.882  60.208 -58.952  1.00  0.00     0.280 HD
HETATM   16  C   UNL     1     -40.461  62.209 -58.770  1.00  0.00     0.235 C 
HETATM   17  C   UNL     1     -40.538  63.120 -59.981  1.00  0.00     0.029 C 
HETATM   18  C   UNL     1     -40.767  62.156 -61.128  1.00  0.00     0.029 C 
HETATM   19  C   UNL     1     -41.787  61.189 -60.562  1.00  0.00     0.235 C 
ENDBRANCH  13  14
ENDBRANCH   4  13
ENDBRANCH   1   2
BRANCH   1  20
HETATM   20  C   UNL     1     -42.829  55.565 -55.728  1.00  0.00     0.185 C 
BRANCH  20  21
HETATM   21  C   UNL     1     -41.688  55.061 -54.852  1.00  0.00     0.231 C 
HETATM   22  N   UNL     1     -41.906  53.790 -54.348  1.00  0.00    -0.326 N 
HETATM   23  H   UNL     1     -42.852  53.435 -54.421  1.00  0.00     0.169 HD
HETATM   24  O   UNL     1     -40.731  55.777 -54.565  1.00  0.00    -0.272 OA
BRANCH  22  25
HETATM   25  C   UNL     1     -41.056  53.086 -53.469  1.00  0.00     0.050 A 
HETATM   26  C   UNL     1     -41.028  53.195 -52.071  1.00  0.00     0.058 A 
HETATM   27  C   UNL     1     -40.177  52.365 -51.317  1.00  0.00     0.019 A 
HETATM   28  C   UNL     1     -39.341  51.445 -51.949  1.00  0.00     0.001 A 
HETATM   29  C   UNL     1     -39.318  51.376 -53.337  1.00  0.00     0.002 A 
HETATM   30  C   UNL     1     -40.159  52.199 -54.090  1.00  0.00     0.030 A 
BRANCH  26  31
HETATM   31  C   UNL     1     -41.662  54.292 -51.302  1.00  0.00     0.254 C 
HETATM   32  N   UNL     1     -40.976  55.486 -51.361  1.00  0.00    -0.352 N 
HETATM   33  H   UNL     1     -39.972  55.409 -51.521  1.00  0.00     0.163 HD
HETATM   34  O   UNL     1     -42.757  54.115 -50.774  1.00  0.00    -0.268 OA
BRANCH  32  35
HETATM   35  C   UNL     1     -41.466  56.720 -50.842  1.00  0.00     0.084 A 
HETATM   36  C   UNL     1     -40.635  57.969 -50.780  1.00  0.00     0.027 A 
HETATM   37  C   UNL     1     -41.748  57.865 -51.779  1.00  0.00     0.027 A 
ENDBRANCH  32  35
ENDBRANCH  26  31
ENDBRANCH  22  25
ENDBRANCH  20  21
ENDBRANCH   1  20
TORSDOF 9
ENDMDL
MODEL 6
REMARK VINA RESULT:      -7.2      1.545      3.237
REMARK  9 active torsions:
REMARK  status: ('A' for Active; 'I' for Inactive)
REMARK    1  A    between atoms: C_4  and  N_5 
REMARK    2  A    between atoms: C_6  and  S_7 
REMARK    3  A    between atoms: S_7  and  C_8 
REMARK    4  A    between atoms: C_8  and  C_9 
REMARK       I    between atoms: C_9  and  N_10 
REMARK    5  A    between atoms: N_10  and  C_11 
REMARK    6  A    between atoms: C_12  and  C_13 
REMARK       I    between atoms: C_13  and  N_14 
REMARK    7  A    between atoms: N_14  and  C_15 
REMARK    8  A    between atoms: C_26  and  C_27 
REMARK    9  A    between atoms: C_27  and  N_28 
ROOT
HETATM    1  S   UNL     1     -43.407  58.871 -53.650  1.00  0.00    -0.080 SA
ENDROOT
BRANCH   1   2
HETATM    2  C   UNL     1     -43.815  57.668 -52.478  1.00  0.00     0.196 C 
HETATM    3  N   UNL     1     -43.352  56.362 -52.447  1.00  0.00    -0.274 N 
HETATM    4  C   UNL     1     -43.822  55.890 -51.229  1.00  0.00     0.161 C 
HETATM    5  N   UNL     1     -44.699  56.731 -50.726  1.00  0.00    -0.132 NA
HETATM    6  N   UNL     1     -44.699  57.837 -51.520  1.00  0.00    -0.122 NA
BRANCH   3   7
HETATM    7  C   UNL     1     -42.607  55.611 -53.393  1.00  0.00     0.043 A 
HETATM    8  C   UNL     1     -43.163  54.525 -54.073  1.00  0.00     0.030 A 
HETATM    9  C   UNL     1     -42.385  53.802 -54.982  1.00  0.00     0.002 A 
HETATM   10  C   UNL     1     -41.054  54.153 -55.207  1.00  0.00     0.000 A 
HETATM   11  C   UNL     1     -40.493  55.230 -54.527  1.00  0.00     0.002 A 
HETATM   12  C   UNL     1     -41.265  55.961 -53.624  1.00  0.00     0.030 A 
ENDBRANCH   3   7
BRANCH   4  13
HETATM   13  C   UNL     1     -43.260  54.736 -50.484  1.00  0.00     0.315 C 
BRANCH  13  14
HETATM   14  N   UNL     1     -41.748  54.799 -50.446  1.00  0.00    -0.064 N 
HETATM   15  H   UNL     1     -41.495  55.571 -51.084  1.00  0.00     0.280 HD
HETATM   16  C   UNL     1     -41.044  53.570 -51.007  1.00  0.00     0.235 C 
HETATM   17  C   UNL     1     -40.301  52.999 -49.814  1.00  0.00     0.029 C 
HETATM   18  C   UNL     1     -39.923  54.231 -49.017  1.00  0.00     0.029 C 
HETATM   19  C   UNL     1     -41.179  55.075 -49.078  1.00  0.00     0.235 C 
ENDBRANCH  13  14
ENDBRANCH   4  13
ENDBRANCH   1   2
BRANCH   1  20
HETATM   20  C   UNL     1     -43.988  58.116 -55.189  1.00  0.00     0.185 C 
BRANCH  20  21
HETATM   21  C   UNL     1     -43.823  59.040 -56.390  1.00  0.00     0.231 C 
HETATM   22  N   UNL     1     -42.735  58.718 -57.183  1.00  0.00    -0.326 N 
HETATM   23  H   UNL     1     -42.062  58.076 -56.781  1.00  0.00     0.169 HD
HETATM   24  O   UNL     1     -44.544  60.022 -56.551  1.00  0.00    -0.272 OA
BRANCH  22  25
HETATM   25  C   UNL     1     -42.301  59.421 -58.326  1.00  0.00     0.050 A 
HETATM   26  C   UNL     1     -42.405  58.994 -59.658  1.00  0.00     0.058 A 
HETATM   27  C   UNL     1     -42.000  59.844 -60.704  1.00  0.00     0.019 A 
HETATM   28  C   UNL     1     -41.472  61.105 -60.430  1.00  0.00     0.001 A 
HETATM   29  C   UNL     1     -41.307  61.509 -59.110  1.00  0.00     0.002 A 
HETATM   30  C   UNL     1     -41.706  60.669 -58.068  1.00  0.00     0.030 A 
BRANCH  26  31
HETATM   31  C   UNL     1     -42.699  57.601 -60.071  1.00  0.00     0.254 C 
HETATM   32  N   UNL     1     -44.044  57.318 -60.163  1.00  0.00    -0.352 N 
HETATM   33  H   UNL     1     -44.654  57.874 -59.564  1.00  0.00     0.163 HD
HETATM   34  O   UNL     1     -41.780  56.853 -60.395  1.00  0.00    -0.268 OA
BRANCH  32  35
HETATM   35  C   UNL     1     -44.575  56.105 -60.694  1.00  0.00     0.084 A 
HETATM   36  C   UNL     1     -44.704  54.846 -59.887  1.00  0.00     0.027 A 
HETATM   37  C   UNL     1     -45.932  55.626 -60.251  1.00  0.00     0.027 A 
ENDBRANCH  32  35
ENDBRANCH  26  31
ENDBRANCH  22  25
ENDBRANCH  20  21
ENDBRANCH   1  20
TORSDOF 9
ENDMDL
MODEL 7
REMARK VINA RESULT:      -7.2      2.069      3.074
REMARK  9 active torsions:
REMARK  status: ('A' for Active; 'I' for Inactive)
REMARK    1  A    between atoms: C_4  and  N_5 
REMARK    2  A    between atoms: C_6  and  S_7 
REMARK    3  A    between atoms: S_7  and  C_8 
REMARK    4  A    between atoms: C_8  and  C_9 
REMARK       I    between atoms: C_9  and  N_10 
REMARK    5  A    between atoms: N_10  and  C_11 
REMARK    6  A    between atoms: C_12  and  C_13 
REMARK       I    between atoms: C_13  and  N_14 
REMARK    7  A    between atoms: N_14  and  C_15 
REMARK    8  A    between atoms: C_26  and  C_27 
REMARK    9  A    between atoms: C_27  and  N_28 
ROOT
HETATM    1  S   UNL     1     -44.709  57.247 -53.232  1.00  0.00    -0.080 SA
ENDROOT
BRANCH   1   2
HETATM    2  C   UNL     1     -43.491  56.146 -53.771  1.00  0.00     0.196 C 
HETATM    3  N   UNL     1     -42.154  56.160 -53.409  1.00  0.00    -0.274 N 
HETATM    4  C   UNL     1     -41.666  54.982 -53.958  1.00  0.00     0.161 C 
HETATM    5  N   UNL     1     -42.549  54.470 -54.788  1.00  0.00    -0.132 NA
HETATM    6  N   UNL     1     -43.685  55.211 -54.675  1.00  0.00    -0.122 NA
BRANCH   3   7
HETATM    7  C   UNL     1     -41.389  57.114 -52.688  1.00  0.00     0.043 A 
HETATM    8  C   UNL     1     -41.394  57.158 -51.292  1.00  0.00     0.030 A 
HETATM    9  C   UNL     1     -40.639  58.129 -50.626  1.00  0.00     0.002 A 
HETATM   10  C   UNL     1     -39.889  59.058 -51.346  1.00  0.00     0.000 A 
HETATM   11  C   UNL     1     -39.885  59.021 -52.737  1.00  0.00     0.002 A 
HETATM   12  C   UNL     1     -40.630  58.052 -53.410  1.00  0.00     0.030 A 
ENDBRANCH   3   7
BRANCH   4  13
HETATM   13  C   UNL     1     -40.441  54.272 -53.511  1.00  0.00     0.315 C 
BRANCH  13  14
HETATM   14  N   UNL     1     -40.745  52.829 -53.167  1.00  0.00    -0.064 N 
HETATM   15  H   UNL     1     -41.776  52.765 -53.162  1.00  0.00     0.280 HD
HETATM   16  C   UNL     1     -40.312  52.403 -51.770  1.00  0.00     0.235 C 
HETATM   17  C   UNL     1     -39.264  51.336 -52.024  1.00  0.00     0.029 C 
HETATM   18  C   UNL     1     -39.749  50.664 -53.291  1.00  0.00     0.029 C 
HETATM   19  C   UNL     1     -40.187  51.833 -54.150  1.00  0.00     0.235 C 
ENDBRANCH  13  14
ENDBRANCH   4  13
ENDBRANCH   1   2
BRANCH   1  20
HETATM   20  C   UNL     1     -44.423  58.683 -54.297  1.00  0.00     0.185 C 
BRANCH  20  21
HETATM   21  C   UNL     1     -44.444  58.323 -55.778  1.00  0.00     0.231 C 
HETATM   22  N   UNL     1     -43.187  58.051 -56.293  1.00  0.00    -0.326 N 
HETATM   23  H   UNL     1     -42.399  58.327 -55.719  1.00  0.00     0.169 HD
HETATM   24  O   UNL     1     -45.478  58.374 -56.439  1.00  0.00    -0.272 OA
BRANCH  22  25
HETATM   25  C   UNL     1     -42.887  57.741 -57.636  1.00  0.00     0.050 A 
HETATM   26  C   UNL     1     -42.386  58.625 -58.602  1.00  0.00     0.058 A 
HETATM   27  C   UNL     1     -42.056  58.150 -59.886  1.00  0.00     0.019 A 
HETATM   28  C   UNL     1     -42.244  56.809 -60.217  1.00  0.00     0.001 A 
HETATM   29  C   UNL     1     -42.799  55.942 -59.283  1.00  0.00     0.002 A 
HETATM   30  C   UNL     1     -43.130  56.408 -58.009  1.00  0.00     0.030 A 
BRANCH  26  31
HETATM   31  C   UNL     1     -42.382  60.101 -58.469  1.00  0.00     0.254 C 
HETATM   32  N   UNL     1     -41.270  60.708 -59.010  1.00  0.00    -0.352 N 
HETATM   33  H   UNL     1     -40.426  60.138 -59.037  1.00  0.00     0.163 HD
HETATM   34  O   UNL     1     -43.365  60.675 -58.008  1.00  0.00    -0.268 OA
BRANCH  32  35
HETATM   35  C   UNL     1     -41.114  62.119 -59.150  1.00  0.00     0.084 A 
HETATM   36  C   UNL     1     -39.775  62.800 -59.131  1.00  0.00     0.027 A 
HETATM   37  C   UNL     1     -40.534  62.684 -60.419  1.00  0.00     0.027 A 
ENDBRANCH  32  35
ENDBRANCH  26  31
ENDBRANCH  22  25
ENDBRANCH  20  21
ENDBRANCH   1  20
TORSDOF 9
ENDMDL
MODEL 8
REMARK VINA RESULT:      -7.2      3.587      7.637
REMARK  9 active torsions:
REMARK  status: ('A' for Active; 'I' for Inactive)
REMARK    1  A    between atoms: C_4  and  N_5 
REMARK    2  A    between atoms: C_6  and  S_7 
REMARK    3  A    between atoms: S_7  and  C_8 
REMARK    4  A    between atoms: C_8  and  C_9 
REMARK       I    between atoms: C_9  and  N_10 
REMARK    5  A    between atoms: N_10  and  C_11 
REMARK    6  A    between atoms: C_12  and  C_13 
REMARK       I    between atoms: C_13  and  N_14 
REMARK    7  A    between atoms: N_14  and  C_15 
REMARK    8  A    between atoms: C_26  and  C_27 
REMARK    9  A    between atoms: C_27  and  N_28 
ROOT
HETATM    1  S   UNL     1     -40.049  58.393 -51.887  1.00  0.00    -0.080 SA
ENDROOT
BRANCH   1   2
HETATM    2  C   UNL     1     -40.877  58.544 -53.397  1.00  0.00     0.196 C 
HETATM    3  N   UNL     1     -41.453  57.514 -54.124  1.00  0.00    -0.274 N 
HETATM    4  C   UNL     1     -42.133  58.182 -55.133  1.00  0.00     0.161 C 
HETATM    5  N   UNL     1     -41.769  59.446 -55.163  1.00  0.00    -0.132 NA
HETATM    6  N   UNL     1     -40.973  59.663 -54.080  1.00  0.00    -0.122 NA
BRANCH   3   7
HETATM    7  C   UNL     1     -41.388  56.106 -53.964  1.00  0.00     0.043 A 
HETATM    8  C   UNL     1     -42.182  55.433 -53.033  1.00  0.00     0.030 A 
HETATM    9  C   UNL     1     -42.070  54.045 -52.897  1.00  0.00     0.002 A 
HETATM   10  C   UNL     1     -41.163  53.331 -53.680  1.00  0.00     0.000 A 
HETATM   11  C   UNL     1     -40.366  53.998 -54.605  1.00  0.00     0.002 A 
HETATM   12  C   UNL     1     -40.476  55.381 -54.752  1.00  0.00     0.030 A 
ENDBRANCH   3   7
BRANCH   4  13
HETATM   13  C   UNL     1     -43.269  57.629 -55.912  1.00  0.00     0.315 C 
BRANCH  13  14
HETATM   14  N   UNL     1     -42.810  57.138 -57.268  1.00  0.00    -0.064 N 
HETATM   15  H   UNL     1     -41.796  57.337 -57.297  1.00  0.00     0.280 HD
HETATM   16  C   UNL     1     -43.398  57.894 -58.452  1.00  0.00     0.235 C 
HETATM   17  C   UNL     1     -44.214  56.845 -59.184  1.00  0.00     0.029 C 
HETATM   18  C   UNL     1     -43.427  55.571 -58.958  1.00  0.00     0.029 C 
HETATM   19  C   UNL     1     -43.037  55.666 -57.497  1.00  0.00     0.235 C 
ENDBRANCH  13  14
ENDBRANCH   4  13
ENDBRANCH   1   2
BRANCH   1  20
HETATM   20  C   UNL     1     -41.419  58.372 -50.703  1.00  0.00     0.185 C 
BRANCH  20  21
HETATM   21  C   UNL     1     -42.401  59.516 -50.928  1.00  0.00     0.231 C 
HETATM   22  N   UNL     1     -43.597  59.107 -51.495  1.00  0.00    -0.326 N 
HETATM   23  H   UNL     1     -43.609  58.174 -51.891  1.00  0.00     0.169 HD
HETATM   24  O   UNL     1     -42.091  60.684 -50.708  1.00  0.00    -0.272 OA
BRANCH  22  25
HETATM   25  C   UNL     1     -44.671  59.942 -51.866  1.00  0.00     0.050 A 
HETATM   26  C   UNL     1     -45.566  60.584 -50.998  1.00  0.00     0.058 A 
HETATM   27  C   UNL     1     -46.542  61.457 -51.514  1.00  0.00     0.019 A 
HETATM   28  C   UNL     1     -46.645  61.676 -52.887  1.00  0.00     0.001 A 
HETATM   29  C   UNL     1     -45.801  60.995 -53.757  1.00  0.00     0.002 A 
HETATM   30  C   UNL     1     -44.832  60.126 -53.250  1.00  0.00     0.030 A 
BRANCH  26  31
HETATM   31  C   UNL     1     -45.734  60.245 -49.565  1.00  0.00     0.254 C 
HETATM   32  N   UNL     1     -45.651  61.331 -48.720  1.00  0.00    -0.352 N 
HETATM   33  H   UNL     1     -45.087  62.109 -49.058  1.00  0.00     0.163 HD
HETATM   34  O   UNL     1     -46.030  59.098 -49.239  1.00  0.00    -0.268 OA
BRANCH  32  35
HETATM   35  C   UNL     1     -45.940  61.286 -47.325  1.00  0.00     0.084 A 
HETATM   36  C   UNL     1     -45.376  62.270 -46.340  1.00  0.00     0.027 A 
HETATM   37  C   UNL     1     -46.827  62.336 -46.711  1.00  0.00     0.027 A 
ENDBRANCH  32  35
ENDBRANCH  26  31
ENDBRANCH  22  25
ENDBRANCH  20  21
ENDBRANCH   1  20
TORSDOF 9
ENDMDL
MODEL 9
REMARK VINA RESULT:      -7.2      2.698      4.903
REMARK  9 active torsions:
REMARK  status: ('A' for Active; 'I' for Inactive)
REMARK    1  A    between atoms: C_4  and  N_5 
REMARK    2  A    between atoms: C_6  and  S_7 
REMARK    3  A    between atoms: S_7  and  C_8 
REMARK    4  A    between atoms: C_8  and  C_9 
REMARK       I    between atoms: C_9  and  N_10 
REMARK    5  A    between atoms: N_10  and  C_11 
REMARK    6  A    between atoms: C_12  and  C_13 
REMARK       I    between atoms: C_13  and  N_14 
REMARK    7  A    between atoms: N_14  and  C_15 
REMARK    8  A    between atoms: C_26  and  C_27 
REMARK    9  A    between atoms: C_27  and  N_28 
ROOT
HETATM    1  S   UNL     1     -41.951  56.984 -50.772  1.00  0.00    -0.080 SA
ENDROOT
BRANCH   1   2
HETATM    2  C   UNL     1     -41.231  55.417 -50.669  1.00  0.00     0.196 C 
HETATM    3  N   UNL     1     -40.989  54.553 -51.725  1.00  0.00    -0.274 N 
HETATM    4  C   UNL     1     -40.243  53.539 -51.139  1.00  0.00     0.161 C 
HETATM    5  N   UNL     1     -40.280  53.651 -49.829  1.00  0.00    -0.132 NA
HETATM    6  N   UNL     1     -40.911  54.822 -49.541  1.00  0.00    -0.122 NA
BRANCH   3   7
HETATM    7  C   UNL     1     -41.392  54.602 -53.085  1.00  0.00     0.043 A 
HETATM    8  C   UNL     1     -40.567  55.132 -54.079  1.00  0.00     0.030 A 
HETATM    9  C   UNL     1     -41.014  55.176 -55.403  1.00  0.00     0.002 A 
HETATM   10  C   UNL     1     -42.283  54.702 -55.736  1.00  0.00     0.000 A 
HETATM   11  C   UNL     1     -43.111  54.177 -54.747  1.00  0.00     0.002 A 
HETATM   12  C   UNL     1     -42.670  54.123 -53.425  1.00  0.00     0.030 A 
ENDBRANCH   3   7
BRANCH   4  13
HETATM   13  C   UNL     1     -39.345  52.607 -51.866  1.00  0.00     0.315 C 
BRANCH  13  14
HETATM   14  N   UNL     1     -40.128  51.465 -52.477  1.00  0.00    -0.064 N 
HETATM   15  H   UNL     1     -41.098  51.597 -52.146  1.00  0.00     0.280 HD
HETATM   16  C   UNL     1     -39.724  50.081 -51.985  1.00  0.00     0.235 C 
HETATM   17  C   UNL     1     -39.196  49.393 -53.230  1.00  0.00     0.029 C 
HETATM   18  C   UNL     1     -40.048  49.974 -54.339  1.00  0.00     0.029 C 
HETATM   19  C   UNL     1     -40.111  51.446 -53.983  1.00  0.00     0.235 C 
ENDBRANCH  13  14
ENDBRANCH   4  13
ENDBRANCH   1   2
BRANCH   1  20
HETATM   20  C   UNL     1     -40.558  58.009 -51.308  1.00  0.00     0.185 C 
BRANCH  20  21
HETATM   21  C   UNL     1     -40.960  59.032 -52.364  1.00  0.00     0.231 C 
HETATM   22  N   UNL     1     -42.263  59.480 -52.223  1.00  0.00    -0.326 N 
HETATM   23  H   UNL     1     -42.858  58.941 -51.605  1.00  0.00     0.169 HD
HETATM   24  O   UNL     1     -40.210  59.332 -53.289  1.00  0.00    -0.272 OA
BRANCH  22  25
HETATM   25  C   UNL     1     -42.929  60.384 -53.078  1.00  0.00     0.050 A 
HETATM   26  C   UNL     1     -43.549  60.075 -54.297  1.00  0.00     0.058 A 
HETATM   27  C   UNL     1     -44.248  61.071 -55.003  1.00  0.00     0.019 A 
HETATM   28  C   UNL     1     -44.314  62.375 -54.513  1.00  0.00     0.001 A 
HETATM   29  C   UNL     1     -43.649  62.702 -53.337  1.00  0.00     0.002 A 
HETATM   30  C   UNL     1     -42.952  61.717 -52.633  1.00  0.00     0.030 A 
BRANCH  26  31
HETATM   31  C   UNL     1     -43.340  58.815 -55.049  1.00  0.00     0.254 C 
HETATM   32  N   UNL     1     -43.029  59.003 -56.379  1.00  0.00    -0.352 N 
HETATM   33  H   UNL     1     -43.382  59.863 -56.796  1.00  0.00     0.163 HD
HETATM   34  O   UNL     1     -43.348  57.740 -54.455  1.00  0.00    -0.268 OA
BRANCH  32  35
HETATM   35  C   UNL     1     -42.626  57.960 -57.264  1.00  0.00     0.084 A 
HETATM   36  C   UNL     1     -43.290  57.709 -58.588  1.00  0.00     0.027 A 
HETATM   37  C   UNL     1     -41.913  58.302 -58.545  1.00  0.00     0.027 A 
ENDBRANCH  32  35
ENDBRANCH  26  31
ENDBRANCH  22  25
ENDBRANCH  20  21
ENDBRANCH   1  20
TORSDOF 9
ENDMDL
MODEL 10
REMARK VINA RESULT:      -6.9      2.588      4.244
REMARK  9 active torsions:
REMARK  status: ('A' for Active; 'I' for Inactive)
REMARK    1  A    between atoms: C_4  and  N_5 
REMARK    2  A    between atoms: C_6  and  S_7 
REMARK    3  A    between atoms: S_7  and  C_8 
REMARK    4  A    between atoms: C_8  and  C_9 
REMARK       I    between atoms: C_9  and  N_10 
REMARK    5  A    between atoms: N_10  and  C_11 
REMARK    6  A    between atoms: C_12  and  C_13 
REMARK       I    between atoms: C_13  and  N_14 
REMARK    7  A    between atoms: N_14  and  C_15 
REMARK    8  A    between atoms: C_26  and  C_27 
REMARK    9  A    between atoms: C_27  and  N_28 
ROOT
HETATM    1  S   UNL     1     -43.119  56.387 -57.842  1.00  0.00    -0.080 SA
ENDROOT
BRANCH   1   2
HETATM    2  C   UNL     1     -43.559  56.770 -56.215  1.00  0.00     0.196 C 
HETATM    3  N   UNL     1     -42.994  56.241 -55.065  1.00  0.00    -0.274 N 
HETATM    4  C   UNL     1     -43.564  57.004 -54.055  1.00  0.00     0.161 C 
HETATM    5  N   UNL     1     -44.562  57.714 -54.532  1.00  0.00    -0.132 NA
HETATM    6  N   UNL     1     -44.561  57.554 -55.884  1.00  0.00    -0.122 NA
BRANCH   3   7
HETATM    7  C   UNL     1     -42.082  55.170 -54.878  1.00  0.00     0.043 A 
HETATM    8  C   UNL     1     -40.709  55.329 -55.077  1.00  0.00     0.030 A 
HETATM    9  C   UNL     1     -39.850  54.240 -54.899  1.00  0.00     0.002 A 
HETATM   10  C   UNL     1     -40.357  52.993 -54.533  1.00  0.00     0.000 A 
HETATM   11  C   UNL     1     -41.726  52.829 -54.339  1.00  0.00     0.002 A 
HETATM   12  C   UNL     1     -42.589  53.912 -54.508  1.00  0.00     0.030 A 
ENDBRANCH   3   7
BRANCH   4  13
HETATM   13  C   UNL     1     -42.998  57.181 -52.694  1.00  0.00     0.315 C 
BRANCH  13  14
HETATM   14  N   UNL     1     -42.343  58.538 -52.550  1.00  0.00    -0.064 N 
HETATM   15  H   UNL     1     -42.802  59.134 -53.259  1.00  0.00     0.280 HD
HETATM   16  C   UNL     1     -40.861  58.571 -52.900  1.00  0.00     0.235 C 
HETATM   17  C   UNL     1     -40.187  58.942 -51.592  1.00  0.00     0.029 C 
HETATM   18  C   UNL     1     -41.194  59.859 -50.929  1.00  0.00     0.029 C 
HETATM   19  C   UNL     1     -42.513  59.161 -51.189  1.00  0.00     0.235 C 
ENDBRANCH  13  14
ENDBRANCH   4  13
ENDBRANCH   1   2
BRANCH   1  20
HETATM   20  C   UNL     1     -44.351  57.308 -58.796  1.00  0.00     0.185 C 
BRANCH  20  21
HETATM   21  C   UNL     1     -43.988  58.781 -58.947  1.00  0.00     0.231 C 
HETATM   22  N   UNL     1     -42.623  59.003 -59.028  1.00  0.00    -0.326 N 
HETATM   23  H   UNL     1     -42.027  58.228 -58.763  1.00  0.00     0.169 HD
HETATM   24  O   UNL     1     -44.842  59.663 -58.899  1.00  0.00    -0.272 OA
BRANCH  22  25
HETATM   25  C   UNL     1     -41.988  60.259 -59.118  1.00  0.00     0.050 A 
HETATM   26  C   UNL     1     -41.585  61.068 -58.046  1.00  0.00     0.058 A 
HETATM   27  C   UNL     1     -40.886  62.265 -58.292  1.00  0.00     0.019 A 
HETATM   28  C   UNL     1     -40.607  62.670 -59.597  1.00  0.00     0.001 A 
HETATM   29  C   UNL     1     -41.059  61.904 -60.665  1.00  0.00     0.002 A 
HETATM   30  C   UNL     1     -41.755  60.716 -60.427  1.00  0.00     0.030 A 
BRANCH  26  31
HETATM   31  C   UNL     1     -42.037  60.892 -56.646  1.00  0.00     0.254 C 
HETATM   32  N   UNL     1     -42.845  61.909 -56.187  1.00  0.00    -0.352 N 
HETATM   33  H   UNL     1     -42.706  62.816 -56.630  1.00  0.00     0.163 HD
HETATM   34  O   UNL     1     -41.769  59.856 -56.043  1.00  0.00    -0.268 OA
BRANCH  32  35
HETATM   35  C   UNL     1     -43.533  61.887 -54.938  1.00  0.00     0.084 A 
HETATM   36  C   UNL     1     -42.831  62.015 -53.616  1.00  0.00     0.027 A 
HETATM   37  C   UNL     1     -43.660  63.153 -54.132  1.00  0.00     0.027 A 
ENDBRANCH  32  35
ENDBRANCH  26  31
ENDBRANCH  22  25
ENDBRANCH  20  21
ENDBRANCH   1  20
TORSDOF 9
ENDMDL
