MODEL 1
REMARK VINA RESULT:      -7.7      0.000      0.000
REMARK  8 active torsions:
REMARK  status: ('A' for Active; 'I' for Inactive)
REMARK       I    between atoms: N_2  and  C_3 
REMARK       I    between atoms: C_3  and  N_4 
REMARK       I    between atoms: N_4  and  C_5 
REMARK    1  A    between atoms: C_5  and  C_6 
REMARK    2  A    between atoms: C_6  and  N_7 
REMARK    3  A    between atoms: N_7  and  C_8 
REMARK    4  A    between atoms: C_9  and  C_10 
REMARK       I    between atoms: C_10  and  N_11 
REMARK    5  A    between atoms: N_11  and  C_12 
REMARK    6  A    between atoms: C_12  and  C_13 
REMARK    7  A    between atoms: C_13  and  C_14 
REMARK    8  A    between atoms: C_17  and  O_18 
ROOT
HETATM    1  C   UNL     1     -40.606  52.390 -53.223  1.00  0.00     0.024 A 
HETATM    2  C   UNL     1     -40.087  51.760 -52.070  1.00  0.00     0.053 A 
HETATM    3  C   UNL     1     -39.502  50.484 -52.163  1.00  0.00     0.019 A 
HETATM    4  C   UNL     1     -39.434  49.827 -53.391  1.00  0.00     0.001 A 
HETATM    5  C   UNL     1     -39.952  50.434 -54.529  1.00  0.00     0.002 A 
HETATM    6  C   UNL     1     -40.538  51.699 -54.445  1.00  0.00     0.024 A 
ENDROOT
BRANCH   2   7
HETATM    7  C   UNL     1     -40.130  52.403 -50.728  1.00  0.00     0.253 C 
HETATM    8  N   UNL     1     -39.713  53.721 -50.679  1.00  0.00    -0.357 N 
HETATM    9  H   UNL     1     -39.656  54.240 -51.547  1.00  0.00     0.162 HD
HETATM   10  O   UNL     1     -40.499  51.785 -49.737  1.00  0.00    -0.268 OA
BRANCH   8  11
HETATM   11  C   UNL     1     -39.810  54.469 -49.437  1.00  0.00     0.127 C 
BRANCH  11  12
HETATM   12  C   UNL     1     -41.168  55.153 -49.255  1.00  0.00     0.058 C 
BRANCH  12  13
HETATM   13  C   UNL     1     -41.791  55.830 -50.457  1.00  0.00    -0.057 A 
HETATM   14  C   UNL     1     -43.074  55.536 -50.930  1.00  0.00     0.010 A 
HETATM   15  C   UNL     1     -43.616  56.249 -52.005  1.00  0.00     0.037 A 
HETATM   16  C   UNL     1     -42.899  57.280 -52.614  1.00  0.00     0.068 A 
HETATM   17  C   UNL     1     -41.620  57.579 -52.155  1.00  0.00     0.037 A 
HETATM   18  C   UNL     1     -41.074  56.861 -51.084  1.00  0.00     0.010 A 
BRANCH  16  19
HETATM   19  O   UNL     1     -43.552  57.911 -53.638  1.00  0.00    -0.356 OA
HETATM   20  C   UNL     1     -44.763  57.313 -54.084  1.00  0.00     0.210 C 
ENDBRANCH  16  19
ENDBRANCH  12  13
ENDBRANCH  11  12
ENDBRANCH   8  11
ENDBRANCH   2   7
BRANCH   1  21
HETATM   21  N   UNL     1     -41.220  53.663 -53.208  1.00  0.00    -0.283 NA
HETATM   22  H   UNL     1     -41.090  54.110 -52.300  1.00  0.00     0.128 HD
BRANCH  21  23
HETATM   23  C   UNL     1     -40.714  54.579 -54.270  1.00  0.00     0.195 C 
BRANCH  23  24
HETATM   24  C   UNL     1     -41.847  54.939 -55.241  1.00  0.00     0.238 C 
HETATM   25  N   UNL     1     -41.687  56.200 -55.797  1.00  0.00    -0.278 N 
HETATM   26  C   UNL     1     -42.397  56.834 -56.779  1.00  0.00     0.322 C 
HETATM   27  H   UNL     1     -40.899  56.723 -55.430  1.00  0.00     0.173 HD
HETATM   28  N   UNL     1     -43.451  56.137 -57.291  1.00  0.00    -0.347 N 
HETATM   29  O   UNL     1     -42.059  57.948 -57.174  1.00  0.00    -0.247 OA
HETATM   30  C   UNL     1     -44.342  56.721 -58.255  1.00  0.00     0.151 C 
HETATM   31  H   UNL     1     -43.757  55.330 -56.752  1.00  0.00     0.163 HD
HETATM   32  O   UNL     1     -42.791  54.186 -55.474  1.00  0.00    -0.272 OA
ENDBRANCH  23  24
ENDBRANCH  21  23
ENDBRANCH   1  21
TORSDOF 8
ENDMDL
MODEL 2
REMARK VINA RESULT:      -7.5      2.121      5.372
REMARK  8 active torsions:
REMARK  status: ('A' for Active; 'I' for Inactive)
REMARK       I    between atoms: N_2  and  C_3 
REMARK       I    between atoms: C_3  and  N_4 
REMARK       I    between atoms: N_4  and  C_5 
REMARK    1  A    between atoms: C_5  and  C_6 
REMARK    2  A    between atoms: C_6  and  N_7 
REMARK    3  A    between atoms: N_7  and  C_8 
REMARK    4  A    between atoms: C_9  and  C_10 
REMARK       I    between atoms: C_10  and  N_11 
REMARK    5  A    between atoms: N_11  and  C_12 
REMARK    6  A    between atoms: C_12  and  C_13 
REMARK    7  A    between atoms: C_13  and  C_14 
REMARK    8  A    between atoms: C_17  and  O_18 
ROOT
HETATM    1  C   UNL     1     -39.877  52.173 -52.217  1.00  0.00     0.024 A 
HETATM    2  C   UNL     1     -40.219  52.200 -53.588  1.00  0.00     0.053 A 
HETATM    3  C   UNL     1     -40.222  51.011 -54.340  1.00  0.00     0.019 A 
HETATM    4  C   UNL     1     -39.884  49.797 -53.744  1.00  0.00     0.001 A 
HETATM    5  C   UNL     1     -39.535  49.763 -52.397  1.00  0.00     0.002 A 
HETATM    6  C   UNL     1     -39.526  50.939 -51.644  1.00  0.00     0.024 A 
ENDROOT
BRANCH   2   7
HETATM    7  C   UNL     1     -40.587  53.461 -54.289  1.00  0.00     0.253 C 
HETATM    8  N   UNL     1     -41.792  54.028 -53.913  1.00  0.00    -0.357 N 
HETATM    9  H   UNL     1     -42.215  53.726 -53.044  1.00  0.00     0.162 HD
HETATM   10  O   UNL     1     -39.865  53.944 -55.152  1.00  0.00    -0.268 OA
BRANCH   8  11
HETATM   11  C   UNL     1     -42.196  55.310 -54.465  1.00  0.00     0.127 C 
BRANCH  11  12
HETATM   12  C   UNL     1     -43.190  55.177 -55.621  1.00  0.00     0.058 C 
BRANCH  12  13
HETATM   13  C   UNL     1     -42.953  56.009 -56.863  1.00  0.00    -0.057 A 
HETATM   14  C   UNL     1     -42.484  57.327 -56.833  1.00  0.00     0.010 A 
HETATM   15  C   UNL     1     -42.222  58.015 -58.022  1.00  0.00     0.037 A 
HETATM   16  C   UNL     1     -42.400  57.398 -59.261  1.00  0.00     0.068 A 
HETATM   17  C   UNL     1     -42.870  56.089 -59.304  1.00  0.00     0.037 A 
HETATM   18  C   UNL     1     -43.140  55.402 -58.115  1.00  0.00     0.010 A 
BRANCH  16  19
HETATM   19  O   UNL     1     -42.085  58.174 -60.343  1.00  0.00    -0.356 OA
HETATM   20  C   UNL     1     -42.046  59.579 -60.128  1.00  0.00     0.210 C 
ENDBRANCH  16  19
ENDBRANCH  12  13
ENDBRANCH  11  12
ENDBRANCH   8  11
ENDBRANCH   2   7
BRANCH   1  21
HETATM   21  N   UNL     1     -39.838  53.325 -51.400  1.00  0.00    -0.283 NA
HETATM   22  H   UNL     1     -39.894  54.169 -51.971  1.00  0.00     0.128 HD
BRANCH  21  23
HETATM   23  C   UNL     1     -40.923  53.365 -50.378  1.00  0.00     0.195 C 
BRANCH  23  24
HETATM   24  C   UNL     1     -41.813  54.595 -50.600  1.00  0.00     0.238 C 
HETATM   25  N   UNL     1     -41.116  55.786 -50.459  1.00  0.00    -0.278 N 
HETATM   26  C   UNL     1     -41.506  57.076 -50.691  1.00  0.00     0.322 C 
HETATM   27  H   UNL     1     -40.153  55.675 -50.161  1.00  0.00     0.173 HD
HETATM   28  N   UNL     1     -42.795  57.239 -51.106  1.00  0.00    -0.347 N 
HETATM   29  O   UNL     1     -40.711  58.004 -50.555  1.00  0.00    -0.247 OA
HETATM   30  C   UNL     1     -43.367  58.545 -51.290  1.00  0.00     0.151 C 
HETATM   31  H   UNL     1     -43.408  56.437 -50.983  1.00  0.00     0.163 HD
HETATM   32  O   UNL     1     -43.013  54.513 -50.857  1.00  0.00    -0.272 OA
ENDBRANCH  23  24
ENDBRANCH  21  23
ENDBRANCH   1  21
TORSDOF 8
ENDMDL
MODEL 3
REMARK VINA RESULT:      -7.3      2.321      5.640
REMARK  8 active torsions:
REMARK  status: ('A' for Active; 'I' for Inactive)
REMARK       I    between atoms: N_2  and  C_3 
REMARK       I    between atoms: C_3  and  N_4 
REMARK       I    between atoms: N_4  and  C_5 
REMARK    1  A    between atoms: C_5  and  C_6 
REMARK    2  A    between atoms: C_6  and  N_7 
REMARK    3  A    between atoms: N_7  and  C_8 
REMARK    4  A    between atoms: C_9  and  C_10 
REMARK       I    between atoms: C_10  and  N_11 
REMARK    5  A    between atoms: N_11  and  C_12 
REMARK    6  A    between atoms: C_12  and  C_13 
REMARK    7  A    between atoms: C_13  and  C_14 
REMARK    8  A    between atoms: C_17  and  O_18 
ROOT
HETATM    1  C   UNL     1     -40.068  52.576 -52.280  1.00  0.00     0.024 A 
HETATM    2  C   UNL     1     -40.303  52.499 -53.671  1.00  0.00     0.053 A 
HETATM    3  C   UNL     1     -40.190  51.268 -54.341  1.00  0.00     0.019 A 
HETATM    4  C   UNL     1     -39.840  50.113 -53.643  1.00  0.00     0.001 A 
HETATM    5  C   UNL     1     -39.596  50.180 -52.276  1.00  0.00     0.002 A 
HETATM    6  C   UNL     1     -39.702  51.400 -51.603  1.00  0.00     0.024 A 
ENDROOT
BRANCH   2   7
HETATM    7  C   UNL     1     -40.677  53.693 -54.479  1.00  0.00     0.253 C 
HETATM    8  N   UNL     1     -42.007  54.068 -54.417  1.00  0.00    -0.357 N 
HETATM    9  H   UNL     1     -42.575  53.701 -53.663  1.00  0.00     0.162 HD
HETATM   10  O   UNL     1     -39.850  54.284 -55.162  1.00  0.00    -0.268 OA
BRANCH   8  11
HETATM   11  C   UNL     1     -42.454  55.276 -55.089  1.00  0.00     0.127 C 
BRANCH  11  12
HETATM   12  C   UNL     1     -43.035  55.008 -56.480  1.00  0.00     0.058 C 
BRANCH  12  13
HETATM   13  C   UNL     1     -42.819  56.051 -57.555  1.00  0.00    -0.057 A 
HETATM   14  C   UNL     1     -42.370  57.349 -57.293  1.00  0.00     0.010 A 
HETATM   15  C   UNL     1     -42.125  58.242 -58.342  1.00  0.00     0.037 A 
HETATM   16  C   UNL     1     -42.303  57.852 -59.670  1.00  0.00     0.068 A 
HETATM   17  C   UNL     1     -42.754  56.564 -59.943  1.00  0.00     0.037 A 
HETATM   18  C   UNL     1     -43.005  55.672 -58.894  1.00  0.00     0.010 A 
BRANCH  16  19
HETATM   19  O   UNL     1     -42.008  58.813 -60.598  1.00  0.00    -0.356 OA
HETATM   20  C   UNL     1     -43.044  59.733 -60.913  1.00  0.00     0.210 C 
ENDBRANCH  16  19
ENDBRANCH  12  13
ENDBRANCH  11  12
ENDBRANCH   8  11
ENDBRANCH   2   7
BRANCH   1  21
HETATM   21  N   UNL     1     -40.148  53.777 -51.540  1.00  0.00    -0.283 NA
HETATM   22  H   UNL     1     -39.896  54.574 -52.125  1.00  0.00     0.128 HD
BRANCH  21  23
HETATM   23  C   UNL     1     -41.496  54.022 -50.951  1.00  0.00     0.195 C 
BRANCH  23  24
HETATM   24  C   UNL     1     -41.913  55.481 -51.176  1.00  0.00     0.238 C 
HETATM   25  N   UNL     1     -43.259  55.694 -50.915  1.00  0.00    -0.278 N 
HETATM   26  C   UNL     1     -43.985  56.852 -50.878  1.00  0.00     0.322 C 
HETATM   27  H   UNL     1     -43.780  54.853 -50.689  1.00  0.00     0.173 HD
HETATM   28  N   UNL     1     -43.294  57.993 -51.165  1.00  0.00    -0.347 N 
HETATM   29  O   UNL     1     -45.174  56.835 -50.570  1.00  0.00    -0.247 OA
HETATM   30  C   UNL     1     -43.952  59.267 -51.262  1.00  0.00     0.151 C 
HETATM   31  H   UNL     1     -42.384  57.865 -51.602  1.00  0.00     0.163 HD
HETATM   32  O   UNL     1     -41.130  56.348 -51.562  1.00  0.00    -0.272 OA
ENDBRANCH  23  24
ENDBRANCH  21  23
ENDBRANCH   1  21
TORSDOF 8
ENDMDL
MODEL 4
REMARK VINA RESULT:      -7.2      1.777      2.423
REMARK  8 active torsions:
REMARK  status: ('A' for Active; 'I' for Inactive)
REMARK       I    between atoms: N_2  and  C_3 
REMARK       I    between atoms: C_3  and  N_4 
REMARK       I    between atoms: N_4  and  C_5 
REMARK    1  A    between atoms: C_5  and  C_6 
REMARK    2  A    between atoms: C_6  and  N_7 
REMARK    3  A    between atoms: N_7  and  C_8 
REMARK    4  A    between atoms: C_9  and  C_10 
REMARK       I    between atoms: C_10  and  N_11 
REMARK    5  A    between atoms: N_11  and  C_12 
REMARK    6  A    between atoms: C_12  and  C_13 
REMARK    7  A    between atoms: C_13  and  C_14 
REMARK    8  A    between atoms: C_17  and  O_18 
ROOT
HETATM    1  C   UNL     1     -41.393  53.337 -53.269  1.00  0.00     0.024 A 
HETATM    2  C   UNL     1     -40.711  53.221 -52.038  1.00  0.00     0.053 A 
HETATM    3  C   UNL     1     -39.741  52.218 -51.858  1.00  0.00     0.019 A 
HETATM    4  C   UNL     1     -39.448  51.326 -52.888  1.00  0.00     0.001 A 
HETATM    5  C   UNL     1     -40.123  51.425 -54.100  1.00  0.00     0.002 A 
HETATM    6  C   UNL     1     -41.090  52.416 -54.286  1.00  0.00     0.024 A 
ENDROOT
BRANCH   2   7
HETATM    7  C   UNL     1     -40.976  54.137 -50.894  1.00  0.00     0.253 C 
HETATM    8  N   UNL     1     -40.939  55.489 -51.185  1.00  0.00    -0.357 N 
HETATM    9  H   UNL     1     -40.996  55.773 -52.156  1.00  0.00     0.162 HD
HETATM   10  O   UNL     1     -41.196  53.705 -49.769  1.00  0.00    -0.268 OA
BRANCH   8  11
HETATM   11  C   UNL     1     -41.282  56.463 -50.164  1.00  0.00     0.127 C 
BRANCH  11  12
HETATM   12  C   UNL     1     -41.096  57.910 -50.630  1.00  0.00     0.058 C 
BRANCH  12  13
HETATM   13  C   UNL     1     -41.691  58.310 -51.963  1.00  0.00    -0.057 A 
HETATM   14  C   UNL     1     -40.959  58.933 -52.979  1.00  0.00     0.010 A 
HETATM   15  C   UNL     1     -41.555  59.213 -54.214  1.00  0.00     0.037 A 
HETATM   16  C   UNL     1     -42.881  58.859 -54.466  1.00  0.00     0.068 A 
HETATM   17  C   UNL     1     -43.620  58.242 -53.461  1.00  0.00     0.037 A 
HETATM   18  C   UNL     1     -43.027  57.968 -52.224  1.00  0.00     0.010 A 
BRANCH  16  19
HETATM   19  O   UNL     1     -43.332  59.169 -55.720  1.00  0.00    -0.356 OA
HETATM   20  C   UNL     1     -44.212  60.281 -55.822  1.00  0.00     0.210 C 
ENDBRANCH  16  19
ENDBRANCH  12  13
ENDBRANCH  11  12
ENDBRANCH   8  11
ENDBRANCH   2   7
BRANCH   1  21
HETATM   21  N   UNL     1     -42.388  54.308 -53.521  1.00  0.00    -0.283 NA
HETATM   22  H   UNL     1     -42.003  55.248 -53.419  1.00  0.00     0.128 HD
BRANCH  21  23
HETATM   23  C   UNL     1     -43.007  54.188 -54.872  1.00  0.00     0.195 C 
BRANCH  23  24
HETATM   24  C   UNL     1     -42.475  55.291 -55.797  1.00  0.00     0.238 C 
HETATM   25  N   UNL     1     -43.246  55.441 -56.941  1.00  0.00    -0.278 N 
HETATM   26  C   UNL     1     -43.184  56.374 -57.938  1.00  0.00     0.322 C 
HETATM   27  H   UNL     1     -43.992  54.761 -57.035  1.00  0.00     0.173 HD
HETATM   28  N   UNL     1     -42.194  57.305 -57.817  1.00  0.00    -0.347 N 
HETATM   29  O   UNL     1     -44.004  56.367 -58.854  1.00  0.00    -0.247 OA
HETATM   30  C   UNL     1     -41.949  58.282 -58.842  1.00  0.00     0.151 C 
HETATM   31  H   UNL     1     -41.460  57.091 -57.145  1.00  0.00     0.163 HD
HETATM   32  O   UNL     1     -41.466  55.948 -55.542  1.00  0.00    -0.272 OA
ENDBRANCH  23  24
ENDBRANCH  21  23
ENDBRANCH   1  21
TORSDOF 8
ENDMDL
MODEL 5
REMARK VINA RESULT:      -7.2      2.626      6.153
REMARK  8 active torsions:
REMARK  status: ('A' for Active; 'I' for Inactive)
REMARK       I    between atoms: N_2  and  C_3 
REMARK       I    between atoms: C_3  and  N_4 
REMARK       I    between atoms: N_4  and  C_5 
REMARK    1  A    between atoms: C_5  and  C_6 
REMARK    2  A    between atoms: C_6  and  N_7 
REMARK    3  A    between atoms: N_7  and  C_8 
REMARK    4  A    between atoms: C_9  and  C_10 
REMARK       I    between atoms: C_10  and  N_11 
REMARK    5  A    between atoms: N_11  and  C_12 
REMARK    6  A    between atoms: C_12  and  C_13 
REMARK    7  A    between atoms: C_13  and  C_14 
REMARK    8  A    between atoms: C_17  and  O_18 
ROOT
HETATM    1  C   UNL     1     -40.475  53.305 -52.307  1.00  0.00     0.024 A 
HETATM    2  C   UNL     1     -40.703  53.460 -53.693  1.00  0.00     0.053 A 
HETATM    3  C   UNL     1     -40.376  52.422 -54.584  1.00  0.00     0.019 A 
HETATM    4  C   UNL     1     -39.819  51.235 -54.112  1.00  0.00     0.001 A 
HETATM    5  C   UNL     1     -39.581  51.077 -52.751  1.00  0.00     0.002 A 
HETATM    6  C   UNL     1     -39.900  52.103 -51.859  1.00  0.00     0.024 A 
ENDROOT
BRANCH   2   7
HETATM    7  C   UNL     1     -41.291  54.702 -54.266  1.00  0.00     0.253 C 
HETATM    8  N   UNL     1     -42.332  54.518 -55.158  1.00  0.00    -0.357 N 
HETATM    9  H   UNL     1     -42.796  53.618 -55.176  1.00  0.00     0.162 HD
HETATM   10  O   UNL     1     -40.859  55.808 -53.967  1.00  0.00    -0.268 OA
BRANCH   8  11
HETATM   11  C   UNL     1     -43.040  55.667 -55.697  1.00  0.00     0.127 C 
BRANCH  11  12
HETATM   12  C   UNL     1     -42.588  56.038 -57.112  1.00  0.00     0.058 C 
BRANCH  12  13
HETATM   13  C   UNL     1     -43.605  55.954 -58.230  1.00  0.00    -0.057 A 
HETATM   14  C   UNL     1     -44.225  57.073 -58.795  1.00  0.00     0.010 A 
HETATM   15  C   UNL     1     -45.106  56.928 -59.874  1.00  0.00     0.037 A 
HETATM   16  C   UNL     1     -45.367  55.671 -60.420  1.00  0.00     0.068 A 
HETATM   17  C   UNL     1     -44.759  54.550 -59.863  1.00  0.00     0.037 A 
HETATM   18  C   UNL     1     -43.884  54.693 -58.781  1.00  0.00     0.010 A 
BRANCH  16  19
HETATM   19  O   UNL     1     -46.227  55.672 -61.484  1.00  0.00    -0.356 OA
HETATM   20  C   UNL     1     -47.421  56.432 -61.337  1.00  0.00     0.210 C 
ENDBRANCH  16  19
ENDBRANCH  12  13
ENDBRANCH  11  12
ENDBRANCH   8  11
ENDBRANCH   2   7
BRANCH   1  21
HETATM   21  N   UNL     1     -40.765  54.305 -51.352  1.00  0.00    -0.283 NA
HETATM   22  H   UNL     1     -40.446  55.216 -51.682  1.00  0.00     0.128 HD
BRANCH  21  23
HETATM   23  C   UNL     1     -42.213  54.398 -51.010  1.00  0.00     0.195 C 
BRANCH  23  24
HETATM   24  C   UNL     1     -42.629  55.869 -50.871  1.00  0.00     0.238 C 
HETATM   25  N   UNL     1     -41.545  56.733 -50.917  1.00  0.00    -0.278 N 
HETATM   26  C   UNL     1     -41.499  58.099 -50.949  1.00  0.00     0.322 C 
HETATM   27  H   UNL     1     -40.643  56.271 -50.960  1.00  0.00     0.173 HD
HETATM   28  N   UNL     1     -42.705  58.733 -50.907  1.00  0.00    -0.347 N 
HETATM   29  O   UNL     1     -40.423  58.686 -51.044  1.00  0.00    -0.247 OA
HETATM   30  C   UNL     1     -42.801  60.166 -50.833  1.00  0.00     0.151 C 
HETATM   31  H   UNL     1     -43.499  58.164 -50.623  1.00  0.00     0.163 HD
HETATM   32  O   UNL     1     -43.798  56.221 -50.719  1.00  0.00    -0.272 OA
ENDBRANCH  23  24
ENDBRANCH  21  23
ENDBRANCH   1  21
TORSDOF 8
ENDMDL
MODEL 6
REMARK VINA RESULT:      -7.1      2.734      6.285
REMARK  8 active torsions:
REMARK  status: ('A' for Active; 'I' for Inactive)
REMARK       I    between atoms: N_2  and  C_3 
REMARK       I    between atoms: C_3  and  N_4 
REMARK       I    between atoms: N_4  and  C_5 
REMARK    1  A    between atoms: C_5  and  C_6 
REMARK    2  A    between atoms: C_6  and  N_7 
REMARK    3  A    between atoms: N_7  and  C_8 
REMARK    4  A    between atoms: C_9  and  C_10 
REMARK       I    between atoms: C_10  and  N_11 
REMARK    5  A    between atoms: N_11  and  C_12 
REMARK    6  A    between atoms: C_12  and  C_13 
REMARK    7  A    between atoms: C_13  and  C_14 
REMARK    8  A    between atoms: C_17  and  O_18 
ROOT
HETATM    1  C   UNL     1     -41.770  53.974 -52.111  1.00  0.00     0.024 A 
HETATM    2  C   UNL     1     -41.865  53.939 -53.520  1.00  0.00     0.053 A 
HETATM    3  C   UNL     1     -41.039  53.077 -54.263  1.00  0.00     0.019 A 
HETATM    4  C   UNL     1     -40.115  52.255 -53.620  1.00  0.00     0.001 A 
HETATM    5  C   UNL     1     -40.006  52.291 -52.234  1.00  0.00     0.002 A 
HETATM    6  C   UNL     1     -40.821  53.146 -51.488  1.00  0.00     0.024 A 
ENDROOT
BRANCH   2   7
HETATM    7  C   UNL     1     -42.827  54.791 -54.272  1.00  0.00     0.253 C 
HETATM    8  N   UNL     1     -42.279  55.873 -54.937  1.00  0.00    -0.357 N 
HETATM    9  H   UNL     1     -41.278  55.884 -55.094  1.00  0.00     0.162 HD
HETATM   10  O   UNL     1     -44.027  54.544 -54.280  1.00  0.00    -0.268 OA
BRANCH   8  11
HETATM   11  C   UNL     1     -43.115  56.709 -55.780  1.00  0.00     0.127 C 
BRANCH  11  12
HETATM   12  C   UNL     1     -42.680  56.703 -57.248  1.00  0.00     0.058 C 
BRANCH  12  13
HETATM   13  C   UNL     1     -43.729  56.415 -58.301  1.00  0.00    -0.057 A 
HETATM   14  C   UNL     1     -44.798  57.271 -58.581  1.00  0.00     0.010 A 
HETATM   15  C   UNL     1     -45.693  56.976 -59.615  1.00  0.00     0.037 A 
HETATM   16  C   UNL     1     -45.527  55.835 -60.402  1.00  0.00     0.068 A 
HETATM   17  C   UNL     1     -44.468  54.973 -60.131  1.00  0.00     0.037 A 
HETATM   18  C   UNL     1     -43.577  55.264 -59.092  1.00  0.00     0.010 A 
BRANCH  16  19
HETATM   19  O   UNL     1     -46.457  55.677 -61.393  1.00  0.00    -0.356 OA
HETATM   20  C   UNL     1     -47.569  56.562 -61.368  1.00  0.00     0.210 C 
ENDBRANCH  16  19
ENDBRANCH  12  13
ENDBRANCH  11  12
ENDBRANCH   8  11
ENDBRANCH   2   7
BRANCH   1  21
HETATM   21  N   UNL     1     -42.556  54.821 -51.297  1.00  0.00    -0.283 NA
HETATM   22  H   UNL     1     -42.756  54.371 -50.403  1.00  0.00     0.128 HD
BRANCH  21  23
HETATM   23  C   UNL     1     -41.924  56.146 -51.035  1.00  0.00     0.195 C 
BRANCH  23  24
HETATM   24  C   UNL     1     -42.783  57.268 -51.635  1.00  0.00     0.238 C 
HETATM   25  N   UNL     1     -44.014  57.387 -51.006  1.00  0.00    -0.278 N 
HETATM   26  C   UNL     1     -45.002  58.321 -51.155  1.00  0.00     0.322 C 
HETATM   27  H   UNL     1     -44.196  56.678 -50.303  1.00  0.00     0.173 HD
HETATM   28  N   UNL     1     -44.766  59.288 -52.087  1.00  0.00    -0.347 N 
HETATM   29  O   UNL     1     -46.011  58.280 -50.455  1.00  0.00    -0.247 OA
HETATM   30  C   UNL     1     -45.759  60.273 -52.418  1.00  0.00     0.151 C 
HETATM   31  H   UNL     1     -44.007  59.104 -52.739  1.00  0.00     0.163 HD
HETATM   32  O   UNL     1     -42.410  57.963 -52.579  1.00  0.00    -0.272 OA
ENDBRANCH  23  24
ENDBRANCH  21  23
ENDBRANCH   1  21
TORSDOF 8
ENDMDL
MODEL 7
REMARK VINA RESULT:      -7.1      2.995      7.301
REMARK  8 active torsions:
REMARK  status: ('A' for Active; 'I' for Inactive)
REMARK       I    between atoms: N_2  and  C_3 
REMARK       I    between atoms: C_3  and  N_4 
REMARK       I    between atoms: N_4  and  C_5 
REMARK    1  A    between atoms: C_5  and  C_6 
REMARK    2  A    between atoms: C_6  and  N_7 
REMARK    3  A    between atoms: N_7  and  C_8 
REMARK    4  A    between atoms: C_9  and  C_10 
REMARK       I    between atoms: C_10  and  N_11 
REMARK    5  A    between atoms: N_11  and  C_12 
REMARK    6  A    between atoms: C_12  and  C_13 
REMARK    7  A    between atoms: C_13  and  C_14 
REMARK    8  A    between atoms: C_17  and  O_18 
ROOT
HETATM    1  C   UNL     1     -42.422  57.051 -59.333  1.00  0.00     0.024 A 
HETATM    2  C   UNL     1     -42.606  57.534 -58.018  1.00  0.00     0.053 A 
HETATM    3  C   UNL     1     -42.562  58.916 -57.759  1.00  0.00     0.019 A 
HETATM    4  C   UNL     1     -42.332  59.821 -58.793  1.00  0.00     0.001 A 
HETATM    5  C   UNL     1     -42.139  59.355 -60.089  1.00  0.00     0.002 A 
HETATM    6  C   UNL     1     -42.178  57.985 -60.355  1.00  0.00     0.024 A 
ENDROOT
BRANCH   2   7
HETATM    7  C   UNL     1     -42.852  56.623 -56.866  1.00  0.00     0.253 C 
HETATM    8  N   UNL     1     -41.960  55.576 -56.726  1.00  0.00    -0.357 N 
HETATM    9  H   UNL     1     -41.078  55.626 -57.222  1.00  0.00     0.162 HD
HETATM   10  O   UNL     1     -43.799  56.796 -56.108  1.00  0.00    -0.268 OA
BRANCH   8  11
HETATM   11  C   UNL     1     -42.053  54.689 -55.579  1.00  0.00     0.127 C 
BRANCH  11  12
HETATM   12  C   UNL     1     -40.971  54.955 -54.528  1.00  0.00     0.058 C 
BRANCH  12  13
HETATM   13  C   UNL     1     -40.466  53.782 -53.714  1.00  0.00    -0.057 A 
HETATM   14  C   UNL     1     -40.389  53.787 -52.318  1.00  0.00     0.010 A 
HETATM   15  C   UNL     1     -39.977  52.643 -51.625  1.00  0.00     0.037 A 
HETATM   16  C   UNL     1     -39.656  51.470 -52.308  1.00  0.00     0.068 A 
HETATM   17  C   UNL     1     -39.725  51.454 -53.698  1.00  0.00     0.037 A 
HETATM   18  C   UNL     1     -40.130  52.599 -54.392  1.00  0.00     0.010 A 
BRANCH  16  19
HETATM   19  O   UNL     1     -39.291  50.420 -51.511  1.00  0.00    -0.356 OA
HETATM   20  C   UNL     1     -40.092  50.186 -50.359  1.00  0.00     0.210 C 
ENDBRANCH  16  19
ENDBRANCH  12  13
ENDBRANCH  11  12
ENDBRANCH   8  11
ENDBRANCH   2   7
BRANCH   1  21
HETATM   21  N   UNL     1     -42.439  55.679 -59.671  1.00  0.00    -0.283 NA
HETATM   22  H   UNL     1     -41.639  55.201 -59.256  1.00  0.00     0.128 HD
BRANCH  21  23
HETATM   23  C   UNL     1     -43.687  54.980 -59.250  1.00  0.00     0.195 C 
BRANCH  23  24
HETATM   24  C   UNL     1     -44.822  55.286 -60.236  1.00  0.00     0.238 C 
HETATM   25  N   UNL     1     -45.820  56.066 -59.669  1.00  0.00    -0.278 N 
HETATM   26  C   UNL     1     -46.921  56.647 -60.234  1.00  0.00     0.322 C 
HETATM   27  H   UNL     1     -45.694  56.255 -58.681  1.00  0.00     0.173 HD
HETATM   28  N   UNL     1     -47.096  56.414 -61.566  1.00  0.00    -0.347 N 
HETATM   29  O   UNL     1     -47.668  57.356 -59.562  1.00  0.00    -0.247 OA
HETATM   30  C   UNL     1     -48.263  56.879 -62.265  1.00  0.00     0.151 C 
HETATM   31  H   UNL     1     -46.544  55.658 -61.963  1.00  0.00     0.163 HD
HETATM   32  O   UNL     1     -44.836  54.864 -61.391  1.00  0.00    -0.272 OA
ENDBRANCH  23  24
ENDBRANCH  21  23
ENDBRANCH   1  21
TORSDOF 8
ENDMDL
MODEL 8
REMARK VINA RESULT:      -6.9      2.624      6.956
REMARK  8 active torsions:
REMARK  status: ('A' for Active; 'I' for Inactive)
REMARK       I    between atoms: N_2  and  C_3 
REMARK       I    between atoms: C_3  and  N_4 
REMARK       I    between atoms: N_4  and  C_5 
REMARK    1  A    between atoms: C_5  and  C_6 
REMARK    2  A    between atoms: C_6  and  N_7 
REMARK    3  A    between atoms: N_7  and  C_8 
REMARK    4  A    between atoms: C_9  and  C_10 
REMARK       I    between atoms: C_10  and  N_11 
REMARK    5  A    between atoms: N_11  and  C_12 
REMARK    6  A    between atoms: C_12  and  C_13 
REMARK    7  A    between atoms: C_13  and  C_14 
REMARK    8  A    between atoms: C_17  and  O_18 
ROOT
HETATM    1  C   UNL     1     -42.103  58.823 -57.898  1.00  0.00     0.024 A 
HETATM    2  C   UNL     1     -42.505  57.504 -57.589  1.00  0.00     0.053 A 
HETATM    3  C   UNL     1     -42.844  56.608 -58.620  1.00  0.00     0.019 A 
HETATM    4  C   UNL     1     -42.792  57.013 -59.952  1.00  0.00     0.001 A 
HETATM    5  C   UNL     1     -42.408  58.312 -60.265  1.00  0.00     0.002 A 
HETATM    6  C   UNL     1     -42.073  59.209 -59.248  1.00  0.00     0.024 A 
ENDROOT
BRANCH   2   7
HETATM    7  C   UNL     1     -42.586  57.007 -56.188  1.00  0.00     0.253 C 
HETATM    8  N   UNL     1     -43.856  56.699 -55.732  1.00  0.00    -0.357 N 
HETATM    9  H   UNL     1     -44.595  56.578 -56.414  1.00  0.00     0.162 HD
HETATM   10  O   UNL     1     -41.585  56.896 -55.492  1.00  0.00    -0.268 OA
BRANCH   8  11
HETATM   11  C   UNL     1     -44.033  56.112 -54.415  1.00  0.00     0.127 C 
BRANCH  11  12
HETATM   12  C   UNL     1     -43.837  54.594 -54.405  1.00  0.00     0.058 C 
BRANCH  12  13
HETATM   13  C   UNL     1     -42.640  54.035 -53.665  1.00  0.00    -0.057 A 
HETATM   14  C   UNL     1     -42.469  54.141 -52.281  1.00  0.00     0.010 A 
HETATM   15  C   UNL     1     -41.372  53.541 -51.653  1.00  0.00     0.037 A 
HETATM   16  C   UNL     1     -40.438  52.809 -52.387  1.00  0.00     0.068 A 
HETATM   17  C   UNL     1     -40.596  52.700 -53.766  1.00  0.00     0.037 A 
HETATM   18  C   UNL     1     -41.689  53.305 -54.396  1.00  0.00     0.010 A 
BRANCH  16  19
HETATM   19  O   UNL     1     -39.428  52.256 -51.649  1.00  0.00    -0.356 OA
HETATM   20  C   UNL     1     -39.454  50.843 -51.493  1.00  0.00     0.210 C 
ENDBRANCH  16  19
ENDBRANCH  12  13
ENDBRANCH  11  12
ENDBRANCH   8  11
ENDBRANCH   2   7
BRANCH   1  21
HETATM   21  N   UNL     1     -41.760  59.783 -56.919  1.00  0.00    -0.283 NA
HETATM   22  H   UNL     1     -41.131  60.484 -57.313  1.00  0.00     0.128 HD
BRANCH  21  23
HETATM   23  C   UNL     1     -42.941  60.476 -56.329  1.00  0.00     0.195 C 
BRANCH  23  24
HETATM   24  C   UNL     1     -42.892  60.391 -54.797  1.00  0.00     0.238 C 
HETATM   25  N   UNL     1     -41.729  59.790 -54.337  1.00  0.00    -0.278 N 
HETATM   26  C   UNL     1     -41.253  59.634 -53.064  1.00  0.00     0.322 C 
HETATM   27  H   UNL     1     -41.125  59.432 -55.068  1.00  0.00     0.173 HD
HETATM   28  N   UNL     1     -42.049  60.123 -52.071  1.00  0.00    -0.347 N 
HETATM   29  O   UNL     1     -40.158  59.112 -52.866  1.00  0.00    -0.247 OA
HETATM   30  C   UNL     1     -41.721  59.939 -50.684  1.00  0.00     0.151 C 
HETATM   31  H   UNL     1     -43.008  60.341 -52.333  1.00  0.00     0.163 HD
HETATM   32  O   UNL     1     -43.800  60.800 -54.076  1.00  0.00    -0.272 OA
ENDBRANCH  23  24
ENDBRANCH  21  23
ENDBRANCH   1  21
TORSDOF 8
ENDMDL
MODEL 9
REMARK VINA RESULT:      -6.7      2.351      4.632
REMARK  8 active torsions:
REMARK  status: ('A' for Active; 'I' for Inactive)
REMARK       I    between atoms: N_2  and  C_3 
REMARK       I    between atoms: C_3  and  N_4 
REMARK       I    between atoms: N_4  and  C_5 
REMARK    1  A    between atoms: C_5  and  C_6 
REMARK    2  A    between atoms: C_6  and  N_7 
REMARK    3  A    between atoms: N_7  and  C_8 
REMARK    4  A    between atoms: C_9  and  C_10 
REMARK       I    between atoms: C_10  and  N_11 
REMARK    5  A    between atoms: N_11  and  C_12 
REMARK    6  A    between atoms: C_12  and  C_13 
REMARK    7  A    between atoms: C_13  and  C_14 
REMARK    8  A    between atoms: C_17  and  O_18 
ROOT
HETATM    1  C   UNL     1     -40.305  52.870 -52.234  1.00  0.00     0.024 A 
HETATM    2  C   UNL     1     -40.395  52.506 -53.595  1.00  0.00     0.053 A 
HETATM    3  C   UNL     1     -40.075  51.198 -54.001  1.00  0.00     0.019 A 
HETATM    4  C   UNL     1     -39.660  50.250 -53.067  1.00  0.00     0.001 A 
HETATM    5  C   UNL     1     -39.558  50.602 -51.725  1.00  0.00     0.002 A 
HETATM    6  C   UNL     1     -39.871  51.900 -51.314  1.00  0.00     0.024 A 
ENDROOT
BRANCH   2   7
HETATM    7  C   UNL     1     -40.828  53.468 -54.647  1.00  0.00     0.253 C 
HETATM    8  N   UNL     1     -42.152  53.864 -54.592  1.00  0.00    -0.357 N 
HETATM    9  H   UNL     1     -42.667  53.701 -53.734  1.00  0.00     0.162 HD
HETATM   10  O   UNL     1     -40.051  53.862 -55.507  1.00  0.00    -0.268 OA
BRANCH   8  11
HETATM   11  C   UNL     1     -42.648  54.874 -55.510  1.00  0.00     0.127 C 
BRANCH  11  12
HETATM   12  C   UNL     1     -41.951  56.227 -55.345  1.00  0.00     0.058 C 
BRANCH  12  13
HETATM   13  C   UNL     1     -42.721  57.349 -54.683  1.00  0.00    -0.057 A 
HETATM   14  C   UNL     1     -42.353  58.696 -54.769  1.00  0.00     0.010 A 
HETATM   15  C   UNL     1     -43.150  59.689 -54.190  1.00  0.00     0.037 A 
HETATM   16  C   UNL     1     -44.338  59.363 -53.534  1.00  0.00     0.068 A 
HETATM   17  C   UNL     1     -44.713  58.026 -53.438  1.00  0.00     0.037 A 
HETATM   18  C   UNL     1     -43.913  57.030 -54.011  1.00  0.00     0.010 A 
BRANCH  16  19
HETATM   19  O   UNL     1     -45.033  60.429 -53.034  1.00  0.00    -0.356 OA
HETATM   20  C   UNL     1     -46.066  60.134 -52.102  1.00  0.00     0.210 C 
ENDBRANCH  16  19
ENDBRANCH  12  13
ENDBRANCH  11  12
ENDBRANCH   8  11
ENDBRANCH   2   7
BRANCH   1  21
HETATM   21  N   UNL     1     -40.597  54.166 -51.751  1.00  0.00    -0.283 NA
HETATM   22  H   UNL     1     -40.546  54.848 -52.508  1.00  0.00     0.128 HD
BRANCH  21  23
HETATM   23  C   UNL     1     -41.934  54.270 -51.101  1.00  0.00     0.195 C 
BRANCH  23  24
HETATM   24  C   UNL     1     -42.291  55.743 -50.860  1.00  0.00     0.238 C 
HETATM   25  N   UNL     1     -41.178  56.571 -50.896  1.00  0.00    -0.278 N 
HETATM   26  C   UNL     1     -41.083  57.934 -50.849  1.00  0.00     0.322 C 
HETATM   27  H   UNL     1     -40.296  56.082 -50.999  1.00  0.00     0.173 HD
HETATM   28  N   UNL     1     -42.263  58.606 -50.725  1.00  0.00    -0.347 N 
HETATM   29  O   UNL     1     -39.990  58.488 -50.950  1.00  0.00    -0.247 OA
HETATM   30  C   UNL     1     -42.303  60.033 -50.564  1.00  0.00     0.151 C 
HETATM   31  H   UNL     1     -43.067  58.048 -50.445  1.00  0.00     0.163 HD
HETATM   32  O   UNL     1     -43.440  56.126 -50.644  1.00  0.00    -0.272 OA
ENDBRANCH  23  24
ENDBRANCH  21  23
ENDBRANCH   1  21
TORSDOF 8
ENDMDL
MODEL 10
REMARK VINA RESULT:      -6.7      2.207      5.912
REMARK  8 active torsions:
REMARK  status: ('A' for Active; 'I' for Inactive)
REMARK       I    between atoms: N_2  and  C_3 
REMARK       I    between atoms: C_3  and  N_4 
REMARK       I    between atoms: N_4  and  C_5 
REMARK    1  A    between atoms: C_5  and  C_6 
REMARK    2  A    between atoms: C_6  and  N_7 
REMARK    3  A    between atoms: N_7  and  C_8 
REMARK    4  A    between atoms: C_9  and  C_10 
REMARK       I    between atoms: C_10  and  N_11 
REMARK    5  A    between atoms: N_11  and  C_12 
REMARK    6  A    between atoms: C_12  and  C_13 
REMARK    7  A    between atoms: C_13  and  C_14 
REMARK    8  A    between atoms: C_17  and  O_18 
ROOT
HETATM    1  C   UNL     1     -42.937  58.676 -53.419  1.00  0.00     0.024 A 
HETATM    2  C   UNL     1     -42.792  58.439 -52.034  1.00  0.00     0.053 A 
HETATM    3  C   UNL     1     -42.694  59.519 -51.137  1.00  0.00     0.019 A 
HETATM    4  C   UNL     1     -42.732  60.831 -51.606  1.00  0.00     0.001 A 
HETATM    5  C   UNL     1     -42.863  61.075 -52.969  1.00  0.00     0.002 A 
HETATM    6  C   UNL     1     -42.958  60.008 -53.866  1.00  0.00     0.024 A 
ENDROOT
BRANCH   2   7
HETATM    7  C   UNL     1     -42.741  57.064 -51.465  1.00  0.00     0.253 C 
HETATM    8  N   UNL     1     -41.773  56.848 -50.500  1.00  0.00    -0.357 N 
HETATM    9  H   UNL     1     -41.347  57.654 -50.058  1.00  0.00     0.162 HD
HETATM   10  O   UNL     1     -43.505  56.187 -51.849  1.00  0.00    -0.268 OA
BRANCH   8  11
HETATM   11  C   UNL     1     -41.704  55.571 -49.812  1.00  0.00     0.127 C 
BRANCH  11  12
HETATM   12  C   UNL     1     -40.412  54.803 -50.102  1.00  0.00     0.058 C 
BRANCH  12  13
HETATM   13  C   UNL     1     -40.399  53.851 -51.278  1.00  0.00    -0.057 A 
HETATM   14  C   UNL     1     -40.740  54.227 -52.581  1.00  0.00     0.010 A 
HETATM   15  C   UNL     1     -40.639  53.311 -53.635  1.00  0.00     0.037 A 
HETATM   16  C   UNL     1     -40.177  52.014 -53.414  1.00  0.00     0.068 A 
HETATM   17  C   UNL     1     -39.837  51.626 -52.121  1.00  0.00     0.037 A 
HETATM   18  C   UNL     1     -39.944  52.539 -51.065  1.00  0.00     0.010 A 
BRANCH  16  19
HETATM   19  O   UNL     1     -40.105  51.228 -54.531  1.00  0.00    -0.356 OA
HETATM   20  C   UNL     1     -39.547  49.931 -54.363  1.00  0.00     0.210 C 
ENDBRANCH  16  19
ENDBRANCH  12  13
ENDBRANCH  11  12
ENDBRANCH   8  11
ENDBRANCH   2   7
BRANCH   1  21
HETATM   21  N   UNL     1     -43.029  57.646 -54.382  1.00  0.00    -0.283 NA
HETATM   22  H   UNL     1     -43.991  57.313 -54.457  1.00  0.00     0.128 HD
BRANCH  21  23
HETATM   23  C   UNL     1     -42.555  58.054 -55.735  1.00  0.00     0.195 C 
BRANCH  23  24
HETATM   24  C   UNL     1     -43.517  57.531 -56.811  1.00  0.00     0.238 C 
HETATM   25  N   UNL     1     -42.851  56.934 -57.871  1.00  0.00    -0.278 N 
HETATM   26  C   UNL     1     -43.335  56.249 -58.952  1.00  0.00     0.322 C 
HETATM   27  H   UNL     1     -41.840  56.995 -57.819  1.00  0.00     0.173 HD
HETATM   28  N   UNL     1     -44.693  56.147 -59.027  1.00  0.00    -0.347 N 
HETATM   29  O   UNL     1     -42.566  55.743 -59.766  1.00  0.00    -0.247 OA
HETATM   30  C   UNL     1     -45.340  55.542 -60.159  1.00  0.00     0.151 C 
HETATM   31  H   UNL     1     -45.222  56.772 -58.423  1.00  0.00     0.163 HD
HETATM   32  O   UNL     1     -44.738  57.653 -56.731  1.00  0.00    -0.272 OA
ENDBRANCH  23  24
ENDBRANCH  21  23
ENDBRANCH   1  21
TORSDOF 8
ENDMDL
