MODEL 1
REMARK VINA RESULT:      -8.0      0.000      0.000
REMARK  3 active torsions:
REMARK  status: ('A' for Active; 'I' for Inactive)
REMARK    1  A    between atoms: N_7  and  C_9 
REMARK    2  A    between atoms: C_9  and  C_10 
REMARK    3  A    between atoms: C_13  and  C_14 
ROOT
HETATM    1  C   UNL     1     -45.567  58.837 -56.742  1.00  0.00     0.269 C 
HETATM    2  N   UNL     1     -44.933  57.592 -56.169  1.00  0.00    -0.074 N 
HETATM    3  H   UNL     1     -45.511  56.846 -56.588  1.00  0.00     0.279 HD
HETATM    4  C   UNL     1     -45.068  57.386 -54.682  1.00  0.00     0.245 C 
HETATM    5  C   UNL     1     -44.002  58.125 -53.809  1.00  0.00     0.008 C 
HETATM    6  C   UNL     1     -44.123  57.522 -52.371  1.00  0.00     0.246 C 
HETATM    7  N   UNL     1     -43.411  58.298 -51.286  1.00  0.00    -0.063 N 
HETATM    8  H   UNL     1     -43.816  57.938 -50.403  1.00  0.00     0.280 HD
HETATM    9  C   UNL     1     -43.736  59.765 -51.268  1.00  0.00     0.235 C 
HETATM   10  C   UNL     1     -43.499  60.369 -52.639  1.00  0.00     0.029 C 
HETATM   11  C   UNL     1     -44.296  59.644 -53.728  1.00  0.00     0.014 C 
HETATM   12  C   UNL     1     -42.603  57.856 -54.420  1.00  0.00     0.014 C 
HETATM   13  C   UNL     1     -42.521  58.117 -55.926  1.00  0.00     0.029 C 
HETATM   14  C   UNL     1     -43.552  57.318 -56.703  1.00  0.00     0.234 C 
ENDROOT
BRANCH   7  15
HETATM   15  C   UNL     1     -41.924  57.980 -51.054  1.00  0.00     0.323 C 
BRANCH  15  16
HETATM   16  C   UNL     1     -41.665  56.520 -50.988  1.00  0.00     0.199 A 
HETATM   17  O   UNL     1     -41.801  55.917 -49.780  1.00  0.00    -0.194 OA
HETATM   18  N   UNL     1     -41.351  54.614 -49.947  1.00  0.00    -0.106 NA
HETATM   19  C   UNL     1     -41.021  54.538 -51.248  1.00  0.00     0.189 A 
HETATM   20  N   UNL     1     -41.141  55.748 -51.911  1.00  0.00    -0.202 NA
BRANCH  19  21
HETATM   21  C   UNL     1     -40.538  53.331 -51.906  1.00  0.00     0.016 A 
HETATM   22  C   UNL     1     -40.117  52.222 -51.158  1.00  0.00     0.039 A 
HETATM   23  C   UNL     1     -39.654  51.076 -51.805  1.00  0.00     0.035 A 
HETATM   24 CL   UNL     1     -39.121  49.732 -50.874  1.00  0.00    -0.084 Cl
HETATM   25  C   UNL     1     -39.615  51.013 -53.197  1.00  0.00     0.024 A 
HETATM   26  C   UNL     1     -40.037  52.107 -53.950  1.00  0.00     0.003 A 
HETATM   27  C   UNL     1     -40.492  53.263 -53.308  1.00  0.00     0.015 A 
ENDBRANCH  19  21
ENDBRANCH  15  16
ENDBRANCH   7  15
TORSDOF 3
ENDMDL
MODEL 2
REMARK VINA RESULT:      -7.9      3.379      5.114
REMARK  3 active torsions:
REMARK  status: ('A' for Active; 'I' for Inactive)
REMARK    1  A    between atoms: N_7  and  C_9 
REMARK    2  A    between atoms: C_9  and  C_10 
REMARK    3  A    between atoms: C_13  and  C_14 
ROOT
HETATM    1  C   UNL     1     -43.903  61.218 -61.427  1.00  0.00     0.269 C 
HETATM    2  N   UNL     1     -43.504  61.267 -59.972  1.00  0.00    -0.074 N 
HETATM    3  H   UNL     1     -42.958  62.143 -59.930  1.00  0.00     0.279 HD
HETATM    4  C   UNL     1     -42.551  60.201 -59.495  1.00  0.00     0.245 C 
HETATM    5  C   UNL     1     -43.217  58.846 -59.091  1.00  0.00     0.008 C 
HETATM    6  C   UNL     1     -42.118  58.029 -58.335  1.00  0.00     0.246 C 
HETATM    7  N   UNL     1     -42.434  56.566 -58.126  1.00  0.00    -0.063 N 
HETATM    8  H   UNL     1     -41.523  56.136 -57.882  1.00  0.00     0.280 HD
HETATM    9  C   UNL     1     -42.856  55.845 -59.375  1.00  0.00     0.235 C 
HETATM   10  C   UNL     1     -44.006  56.580 -60.038  1.00  0.00     0.029 C 
HETATM   11  C   UNL     1     -43.653  58.040 -60.340  1.00  0.00     0.014 C 
HETATM   12  C   UNL     1     -44.426  59.154 -58.171  1.00  0.00     0.014 C 
HETATM   13  C   UNL     1     -45.376  60.218 -58.727  1.00  0.00     0.029 C 
HETATM   14  C   UNL     1     -44.659  61.520 -59.039  1.00  0.00     0.234 C 
ENDROOT
BRANCH   7  15
HETATM   15  C   UNL     1     -43.253  56.194 -56.878  1.00  0.00     0.323 C 
BRANCH  15  16
HETATM   16  C   UNL     1     -42.396  55.713 -55.766  1.00  0.00     0.199 A 
HETATM   17  O   UNL     1     -41.641  56.636 -55.117  1.00  0.00    -0.194 OA
HETATM   18  N   UNL     1     -40.822  55.925 -54.250  1.00  0.00    -0.106 NA
HETATM   19  C   UNL     1     -41.183  54.642 -54.426  1.00  0.00     0.189 A 
HETATM   20  N   UNL     1     -42.123  54.475 -55.430  1.00  0.00    -0.202 NA
BRANCH  19  21
HETATM   21  C   UNL     1     -40.624  53.520 -53.685  1.00  0.00     0.016 A 
HETATM   22  C   UNL     1     -40.295  52.320 -54.333  1.00  0.00     0.039 A 
HETATM   23  C   UNL     1     -39.763  51.254 -53.606  1.00  0.00     0.035 A 
HETATM   24 CL   UNL     1     -39.386  49.783 -54.411  1.00  0.00    -0.084 Cl
HETATM   25  C   UNL     1     -39.542  51.370 -52.236  1.00  0.00     0.024 A 
HETATM   26  C   UNL     1     -39.859  52.560 -51.583  1.00  0.00     0.003 A 
HETATM   27  C   UNL     1     -40.402  53.628 -52.303  1.00  0.00     0.015 A 
ENDBRANCH  19  21
ENDBRANCH  15  16
ENDBRANCH   7  15
TORSDOF 3
ENDMDL
MODEL 3
REMARK VINA RESULT:      -7.9      2.559      3.416
REMARK  3 active torsions:
REMARK  status: ('A' for Active; 'I' for Inactive)
REMARK    1  A    between atoms: N_7  and  C_9 
REMARK    2  A    between atoms: C_9  and  C_10 
REMARK    3  A    between atoms: C_13  and  C_14 
ROOT
HETATM    1  C   UNL     1     -44.516  58.669 -60.313  1.00  0.00     0.269 C 
HETATM    2  N   UNL     1     -43.394  57.741 -59.917  1.00  0.00    -0.074 N 
HETATM    3  H   UNL     1     -43.265  57.183 -60.776  1.00  0.00     0.279 HD
HETATM    4  C   UNL     1     -43.701  56.725 -58.847  1.00  0.00     0.245 C 
HETATM    5  C   UNL     1     -43.562  57.244 -57.378  1.00  0.00     0.008 C 
HETATM    6  C   UNL     1     -43.600  55.976 -56.463  1.00  0.00     0.246 C 
HETATM    7  N   UNL     1     -43.796  56.252 -54.990  1.00  0.00    -0.063 N 
HETATM    8  H   UNL     1     -44.074  55.337 -54.590  1.00  0.00     0.280 HD
HETATM    9  C   UNL     1     -44.960  57.153 -54.685  1.00  0.00     0.235 C 
HETATM   10  C   UNL     1     -44.851  58.435 -55.488  1.00  0.00     0.029 C 
HETATM   11  C   UNL     1     -44.749  58.161 -56.992  1.00  0.00     0.014 C 
HETATM   12  C   UNL     1     -42.210  57.992 -57.254  1.00  0.00     0.014 C 
HETATM   13  C   UNL     1     -41.973  59.035 -58.349  1.00  0.00     0.029 C 
HETATM   14  C   UNL     1     -42.070  58.437 -59.741  1.00  0.00     0.234 C 
ENDROOT
BRANCH   7  15
HETATM   15  C   UNL     1     -42.538  56.544 -54.155  1.00  0.00     0.323 C 
BRANCH  15  16
HETATM   16  C   UNL     1     -41.571  55.419 -54.182  1.00  0.00     0.199 A 
HETATM   17  O   UNL     1     -40.502  55.537 -55.009  1.00  0.00    -0.194 OA
HETATM   18  N   UNL     1     -39.852  54.310 -54.978  1.00  0.00    -0.106 NA
HETATM   19  C   UNL     1     -40.566  53.577 -54.107  1.00  0.00     0.189 A 
HETATM   20  N   UNL     1     -41.698  54.229 -53.646  1.00  0.00    -0.202 NA
BRANCH  19  21
HETATM   21  C   UNL     1     -40.231  52.216 -53.708  1.00  0.00     0.016 A 
HETATM   22  C   UNL     1     -40.137  51.864 -52.354  1.00  0.00     0.039 A 
HETATM   23  C   UNL     1     -39.813  50.556 -51.991  1.00  0.00     0.035 A 
HETATM   24 CL   UNL     1     -39.679  50.146 -50.327  1.00  0.00    -0.084 Cl
HETATM   25  C   UNL     1     -39.589  49.584 -52.963  1.00  0.00     0.024 A 
HETATM   26  C   UNL     1     -39.686  49.921 -54.313  1.00  0.00     0.003 A 
HETATM   27  C   UNL     1     -40.001  51.232 -54.684  1.00  0.00     0.015 A 
ENDBRANCH  19  21
ENDBRANCH  15  16
ENDBRANCH   7  15
TORSDOF 3
ENDMDL
MODEL 4
REMARK VINA RESULT:      -7.8      2.905      4.280
REMARK  3 active torsions:
REMARK  status: ('A' for Active; 'I' for Inactive)
REMARK    1  A    between atoms: N_7  and  C_9 
REMARK    2  A    between atoms: C_9  and  C_10 
REMARK    3  A    between atoms: C_13  and  C_14 
ROOT
HETATM    1  C   UNL     1     -44.757  60.610 -61.475  1.00  0.00     0.269 C 
HETATM    2  N   UNL     1     -43.753  59.497 -61.293  1.00  0.00    -0.074 N 
HETATM    3  H   UNL     1     -43.724  59.080 -62.238  1.00  0.00     0.279 HD
HETATM    4  C   UNL     1     -44.158  58.360 -60.389  1.00  0.00     0.245 C 
HETATM    5  C   UNL     1     -43.910  58.603 -58.865  1.00  0.00     0.008 C 
HETATM    6  C   UNL     1     -44.085  57.213 -58.169  1.00  0.00     0.246 C 
HETATM    7  N   UNL     1     -44.201  57.258 -56.662  1.00  0.00    -0.063 N 
HETATM    8  H   UNL     1     -44.583  56.330 -56.404  1.00  0.00     0.280 HD
HETATM    9  C   UNL     1     -45.228  58.231 -56.155  1.00  0.00     0.235 C 
HETATM   10  C   UNL     1     -44.977  59.607 -56.742  1.00  0.00     0.029 C 
HETATM   11  C   UNL     1     -44.956  59.580 -58.273  1.00  0.00     0.014 C 
HETATM   12  C   UNL     1     -42.469  59.147 -58.688  1.00  0.00     0.014 C 
HETATM   13  C   UNL     1     -42.131  60.323 -59.609  1.00  0.00     0.029 C 
HETATM   14  C   UNL     1     -42.345  59.984 -61.073  1.00  0.00     0.234 C 
ENDROOT
BRANCH   7  15
HETATM   15  C   UNL     1     -42.891  57.248 -55.855  1.00  0.00     0.323 C 
BRANCH  15  16
HETATM   16  C   UNL     1     -42.718  55.994 -55.081  1.00  0.00     0.199 A 
HETATM   17  O   UNL     1     -43.807  55.504 -54.437  1.00  0.00    -0.194 OA
HETATM   18  N   UNL     1     -43.355  54.442 -53.666  1.00  0.00    -0.106 NA
HETATM   19  C   UNL     1     -42.042  54.363 -53.943  1.00  0.00     0.189 A 
HETATM   20  N   UNL     1     -41.601  55.377 -54.778  1.00  0.00    -0.202 NA
BRANCH  19  21
HETATM   21  C   UNL     1     -41.144  53.353 -53.398  1.00  0.00     0.016 A 
HETATM   22  C   UNL     1     -40.774  52.233 -54.155  1.00  0.00     0.039 A 
HETATM   23  C   UNL     1     -39.916  51.274 -53.615  1.00  0.00     0.035 A 
HETATM   24 CL   UNL     1     -39.490  49.895 -54.549  1.00  0.00    -0.084 Cl
HETATM   25  C   UNL     1     -39.408  51.422 -52.327  1.00  0.00     0.024 A 
HETATM   26  C   UNL     1     -39.763  52.536 -51.568  1.00  0.00     0.003 A 
HETATM   27  C   UNL     1     -40.631  53.495 -52.098  1.00  0.00     0.015 A 
ENDBRANCH  19  21
ENDBRANCH  15  16
ENDBRANCH   7  15
TORSDOF 3
ENDMDL
MODEL 5
REMARK VINA RESULT:      -7.7      2.254      4.136
REMARK  3 active torsions:
REMARK  status: ('A' for Active; 'I' for Inactive)
REMARK    1  A    between atoms: N_7  and  C_9 
REMARK    2  A    between atoms: C_9  and  C_10 
REMARK    3  A    between atoms: C_13  and  C_14 
ROOT
HETATM    1  C   UNL     1     -45.881  61.595 -49.717  1.00  0.00     0.269 C 
HETATM    2  N   UNL     1     -44.941  62.094 -50.788  1.00  0.00    -0.074 N 
HETATM    3  H   UNL     1     -45.324  63.032 -50.987  1.00  0.00     0.279 HD
HETATM    4  C   UNL     1     -44.982  61.377 -52.113  1.00  0.00     0.245 C 
HETATM    5  C   UNL     1     -44.113  60.080 -52.194  1.00  0.00     0.008 C 
HETATM    6  C   UNL     1     -44.043  59.698 -53.709  1.00  0.00     0.246 C 
HETATM    7  N   UNL     1     -43.521  58.309 -53.999  1.00  0.00    -0.063 N 
HETATM    8  H   UNL     1     -43.800  58.127 -54.980  1.00  0.00     0.280 HD
HETATM    9  C   UNL     1     -44.202  57.222 -53.216  1.00  0.00     0.235 C 
HETATM   10  C   UNL     1     -44.160  57.542 -51.734  1.00  0.00     0.029 C 
HETATM   11  C   UNL     1     -44.777  58.910 -51.426  1.00  0.00     0.014 C 
HETATM   12  C   UNL     1     -42.708  60.400 -51.625  1.00  0.00     0.014 C 
HETATM   13  C   UNL     1     -42.733  61.095 -50.261  1.00  0.00     0.029 C 
HETATM   14  C   UNL     1     -43.549  62.375 -50.285  1.00  0.00     0.234 C 
ENDROOT
BRANCH   7  15
HETATM   15  C   UNL     1     -41.996  58.140 -54.113  1.00  0.00     0.323 C 
BRANCH  15  16
HETATM   16  C   UNL     1     -41.599  56.720 -54.286  1.00  0.00     0.199 A 
HETATM   17  O   UNL     1     -41.898  56.130 -55.471  1.00  0.00    -0.194 OA
HETATM   18  N   UNL     1     -41.581  54.786 -55.324  1.00  0.00    -0.106 NA
HETATM   19  C   UNL     1     -41.085  54.694 -54.078  1.00  0.00     0.189 A 
HETATM   20  N   UNL     1     -41.153  55.887 -53.376  1.00  0.00    -0.202 NA
BRANCH  19  21
HETATM   21  C   UNL     1     -40.567  53.468 -53.486  1.00  0.00     0.016 A 
HETATM   22  C   UNL     1     -40.319  52.335 -54.275  1.00  0.00     0.039 A 
HETATM   23  C   UNL     1     -39.826  51.169 -53.690  1.00  0.00     0.035 A 
HETATM   24 CL   UNL     1     -39.549  49.781 -54.667  1.00  0.00    -0.084 Cl
HETATM   25  C   UNL     1     -39.563  51.116 -52.323  1.00  0.00     0.024 A 
HETATM   26  C   UNL     1     -39.800  52.238 -51.531  1.00  0.00     0.003 A 
HETATM   27  C   UNL     1     -40.303  53.407 -52.108  1.00  0.00     0.015 A 
ENDBRANCH  19  21
ENDBRANCH  15  16
ENDBRANCH   7  15
TORSDOF 3
ENDMDL
MODEL 6
REMARK VINA RESULT:      -7.7      2.190      3.854
REMARK  3 active torsions:
REMARK  status: ('A' for Active; 'I' for Inactive)
REMARK    1  A    between atoms: N_7  and  C_9 
REMARK    2  A    between atoms: C_9  and  C_10 
REMARK    3  A    between atoms: C_13  and  C_14 
ROOT
HETATM    1  C   UNL     1     -44.405  61.817 -50.152  1.00  0.00     0.269 C 
HETATM    2  N   UNL     1     -44.197  60.322 -50.119  1.00  0.00    -0.074 N 
HETATM    3  H   UNL     1     -43.951  60.163 -49.129  1.00  0.00     0.279 HD
HETATM    4  C   UNL     1     -43.020  59.785 -50.893  1.00  0.00     0.245 C 
HETATM    5  C   UNL     1     -43.280  59.544 -52.416  1.00  0.00     0.008 C 
HETATM    6  C   UNL     1     -42.070  58.700 -52.935  1.00  0.00     0.246 C 
HETATM    7  N   UNL     1     -41.946  58.612 -54.439  1.00  0.00    -0.063 N 
HETATM    8  H   UNL     1     -40.978  58.277 -54.600  1.00  0.00     0.280 HD
HETATM    9  C   UNL     1     -41.994  59.942 -55.137  1.00  0.00     0.235 C 
HETATM   10  C   UNL     1     -43.236  60.705 -54.718  1.00  0.00     0.029 C 
HETATM   11  C   UNL     1     -43.315  60.880 -53.199  1.00  0.00     0.014 C 
HETATM   12  C   UNL     1     -44.615  58.771 -52.564  1.00  0.00     0.014 C 
HETATM   13  C   UNL     1     -45.780  59.386 -51.783  1.00  0.00     0.029 C 
HETATM   14  C   UNL     1     -45.465  59.532 -50.305  1.00  0.00     0.234 C 
ENDROOT
BRANCH   7  15
HETATM   15  C   UNL     1     -42.739  57.500 -55.147  1.00  0.00     0.323 C 
BRANCH  15  16
HETATM   16  C   UNL     1     -42.599  56.189 -54.468  1.00  0.00     0.199 A 
HETATM   17  O   UNL     1     -43.662  55.739 -53.755  1.00  0.00    -0.194 OA
HETATM   18  N   UNL     1     -43.229  54.597 -53.094  1.00  0.00    -0.106 NA
HETATM   19  C   UNL     1     -41.957  54.440 -53.497  1.00  0.00     0.189 A 
HETATM   20  N   UNL     1     -41.511  55.472 -54.308  1.00  0.00    -0.202 NA
BRANCH  19  21
HETATM   21  C   UNL     1     -41.097  53.333 -53.099  1.00  0.00     0.016 A 
HETATM   22  C   UNL     1     -40.783  52.305 -53.998  1.00  0.00     0.039 A 
HETATM   23  C   UNL     1     -39.961  51.251 -53.598  1.00  0.00     0.035 A 
HETATM   24 CL   UNL     1     -39.603  49.986 -54.707  1.00  0.00    -0.084 Cl
HETATM   25  C   UNL     1     -39.434  51.211 -52.309  1.00  0.00     0.024 A 
HETATM   26  C   UNL     1     -39.735  52.232 -51.409  1.00  0.00     0.003 A 
HETATM   27  C   UNL     1     -40.566  53.286 -51.799  1.00  0.00     0.015 A 
ENDBRANCH  19  21
ENDBRANCH  15  16
ENDBRANCH   7  15
TORSDOF 3
ENDMDL
MODEL 7
REMARK VINA RESULT:      -7.6      2.062      3.717
REMARK  3 active torsions:
REMARK  status: ('A' for Active; 'I' for Inactive)
REMARK    1  A    between atoms: N_7  and  C_9 
REMARK    2  A    between atoms: C_9  and  C_10 
REMARK    3  A    between atoms: C_13  and  C_14 
ROOT
HETATM    1  C   UNL     1     -46.964  62.649 -50.963  1.00  0.00     0.269 C 
HETATM    2  N   UNL     1     -45.486  62.870 -51.176  1.00  0.00    -0.074 N 
HETATM    3  H   UNL     1     -45.475  63.781 -51.663  1.00  0.00     0.279 HD
HETATM    4  C   UNL     1     -44.789  61.926 -52.123  1.00  0.00     0.245 C 
HETATM    5  C   UNL     1     -44.322  60.575 -51.490  1.00  0.00     0.008 C 
HETATM    6  C   UNL     1     -43.361  59.915 -52.533  1.00  0.00     0.246 C 
HETATM    7  N   UNL     1     -43.034  58.462 -52.277  1.00  0.00    -0.063 N 
HETATM    8  H   UNL     1     -42.641  58.123 -53.174  1.00  0.00     0.280 HD
HETATM    9  C   UNL     1     -44.239  57.593 -52.053  1.00  0.00     0.235 C 
HETATM   10  C   UNL     1     -45.106  58.177 -50.953  1.00  0.00     0.029 C 
HETATM   11  C   UNL     1     -45.520  59.620 -51.257  1.00  0.00     0.014 C 
HETATM   12  C   UNL     1     -43.587  60.889 -50.162  1.00  0.00     0.014 C 
HETATM   13  C   UNL     1     -44.362  61.824 -49.229  1.00  0.00     0.029 C 
HETATM   14  C   UNL     1     -44.726  63.134 -49.903  1.00  0.00     0.234 C 
ENDROOT
BRANCH   7  15
HETATM   15  C   UNL     1     -41.857  58.161 -51.333  1.00  0.00     0.323 C 
BRANCH  15  16
HETATM   16  C   UNL     1     -41.578  56.707 -51.227  1.00  0.00     0.199 A 
HETATM   17  O   UNL     1     -41.572  56.164 -49.984  1.00  0.00    -0.194 OA
HETATM   18  N   UNL     1     -41.131  54.856 -50.137  1.00  0.00    -0.106 NA
HETATM   19  C   UNL     1     -40.949  54.717 -51.461  1.00  0.00     0.189 A 
HETATM   20  N   UNL     1     -41.154  55.893 -52.165  1.00  0.00    -0.202 NA
BRANCH  19  21
HETATM   21  C   UNL     1     -40.532  53.481 -52.110  1.00  0.00     0.016 A 
HETATM   22  C   UNL     1     -40.138  52.368 -51.355  1.00  0.00     0.039 A 
HETATM   23  C   UNL     1     -39.739  51.194 -51.994  1.00  0.00     0.035 A 
HETATM   24 CL   UNL     1     -39.238  49.844 -51.053  1.00  0.00    -0.084 Cl
HETATM   25  C   UNL     1     -39.735  51.107 -53.384  1.00  0.00     0.024 A 
HETATM   26  C   UNL     1     -40.131  52.206 -54.145  1.00  0.00     0.003 A 
HETATM   27  C   UNL     1     -40.523  53.389 -53.512  1.00  0.00     0.015 A 
ENDBRANCH  19  21
ENDBRANCH  15  16
ENDBRANCH   7  15
TORSDOF 3
ENDMDL
MODEL 8
REMARK VINA RESULT:      -7.5      2.496      4.115
REMARK  3 active torsions:
REMARK  status: ('A' for Active; 'I' for Inactive)
REMARK    1  A    between atoms: N_7  and  C_9 
REMARK    2  A    between atoms: C_9  and  C_10 
REMARK    3  A    between atoms: C_13  and  C_14 
ROOT
HETATM    1  C   UNL     1     -43.602  62.771 -54.193  1.00  0.00     0.269 C 
HETATM    2  N   UNL     1     -43.493  61.434 -53.501  1.00  0.00    -0.074 N 
HETATM    3  H   UNL     1     -43.072  61.695 -52.595  1.00  0.00     0.279 HD
HETATM    4  C   UNL     1     -42.527  60.441 -54.096  1.00  0.00     0.245 C 
HETATM    5  C   UNL     1     -43.092  59.591 -55.281  1.00  0.00     0.008 C 
HETATM    6  C   UNL     1     -42.066  58.434 -55.515  1.00  0.00     0.246 C 
HETATM    7  N   UNL     1     -42.240  57.671 -56.808  1.00  0.00    -0.063 N 
HETATM    8  H   UNL     1     -41.347  57.161 -56.930  1.00  0.00     0.280 HD
HETATM    9  C   UNL     1     -42.332  58.545 -58.027  1.00  0.00     0.235 C 
HETATM   10  C   UNL     1     -43.415  59.591 -57.840  1.00  0.00     0.029 C 
HETATM   11  C   UNL     1     -43.187  60.431 -56.579  1.00  0.00     0.014 C 
HETATM   12  C   UNL     1     -44.480  59.041 -54.865  1.00  0.00     0.014 C 
HETATM   13  C   UNL     1     -45.427  60.104 -54.302  1.00  0.00     0.029 C 
HETATM   14  C   UNL     1     -44.824  60.842 -53.120  1.00  0.00     0.234 C 
ENDROOT
BRANCH   7  15
HETATM   15  C   UNL     1     -43.230  56.494 -56.803  1.00  0.00     0.323 C 
BRANCH  15  16
HETATM   16  C   UNL     1     -42.957  55.536 -55.703  1.00  0.00     0.199 A 
HETATM   17  O   UNL     1     -43.833  55.511 -54.666  1.00  0.00    -0.194 OA
HETATM   18  N   UNL     1     -43.277  54.671 -53.711  1.00  0.00    -0.106 NA
HETATM   19  C   UNL     1     -42.136  54.235 -54.272  1.00  0.00     0.189 A 
HETATM   20  N   UNL     1     -41.875  54.822 -55.499  1.00  0.00    -0.202 NA
BRANCH  19  21
HETATM   21  C   UNL     1     -41.227  53.279 -53.654  1.00  0.00     0.016 A 
HETATM   22  C   UNL     1     -40.822  52.123 -54.337  1.00  0.00     0.039 A 
HETATM   23  C   UNL     1     -39.953  51.218 -53.727  1.00  0.00     0.035 A 
HETATM   24 CL   UNL     1     -39.484  49.794 -54.569  1.00  0.00    -0.084 Cl
HETATM   25  C   UNL     1     -39.468  51.453 -52.443  1.00  0.00     0.024 A 
HETATM   26  C   UNL     1     -39.859  52.602 -51.757  1.00  0.00     0.003 A 
HETATM   27  C   UNL     1     -40.737  53.509 -52.358  1.00  0.00     0.015 A 
ENDBRANCH  19  21
ENDBRANCH  15  16
ENDBRANCH   7  15
TORSDOF 3
ENDMDL
MODEL 9
REMARK VINA RESULT:      -7.4      2.200      3.560
REMARK  3 active torsions:
REMARK  status: ('A' for Active; 'I' for Inactive)
REMARK    1  A    between atoms: N_7  and  C_9 
REMARK    2  A    between atoms: C_9  and  C_10 
REMARK    3  A    between atoms: C_13  and  C_14 
ROOT
HETATM    1  C   UNL     1     -45.505  62.208 -53.342  1.00  0.00     0.269 C 
HETATM    2  N   UNL     1     -44.003  62.138 -53.471  1.00  0.00    -0.074 N 
HETATM    3  H   UNL     1     -43.788  63.027 -53.952  1.00  0.00     0.279 HD
HETATM    4  C   UNL     1     -43.450  61.072 -54.382  1.00  0.00     0.245 C 
HETATM    5  C   UNL     1     -43.289  59.659 -53.731  1.00  0.00     0.008 C 
HETATM    6  C   UNL     1     -42.417  58.820 -54.721  1.00  0.00     0.246 C 
HETATM    7  N   UNL     1     -42.392  57.332 -54.454  1.00  0.00    -0.063 N 
HETATM    8  H   UNL     1     -42.023  56.919 -55.330  1.00  0.00     0.280 HD
HETATM    9  C   UNL     1     -43.753  56.714 -54.302  1.00  0.00     0.235 C 
HETATM   10  C   UNL     1     -44.551  57.462 -53.250  1.00  0.00     0.029 C 
HETATM   11  C   UNL     1     -44.660  58.956 -53.570  1.00  0.00     0.014 C 
HETATM   12  C   UNL     1     -42.583  59.834 -52.362  1.00  0.00     0.014 C 
HETATM   13  C   UNL     1     -43.213  60.906 -51.469  1.00  0.00     0.029 C 
HETATM   14  C   UNL     1     -43.278  62.258 -52.157  1.00  0.00     0.234 C 
ENDROOT
BRANCH   7  15
HETATM   15  C   UNL     1     -41.350  56.816 -53.448  1.00  0.00     0.323 C 
BRANCH  15  16
HETATM   16  C   UNL     1     -40.817  55.483 -53.825  1.00  0.00     0.199 A 
HETATM   17  O   UNL     1     -40.494  55.287 -55.128  1.00  0.00    -0.194 OA
HETATM   18  N   UNL     1     -40.185  53.939 -55.251  1.00  0.00    -0.106 NA
HETATM   19  C   UNL     1     -40.311  53.452 -54.005  1.00  0.00     0.189 A 
HETATM   20  N   UNL     1     -40.780  54.390 -53.099  1.00  0.00    -0.202 NA
BRANCH  19  21
HETATM   21  C   UNL     1     -40.037  52.072 -53.628  1.00  0.00     0.016 A 
HETATM   22  C   UNL     1     -39.961  51.695 -52.280  1.00  0.00     0.039 A 
HETATM   23  C   UNL     1     -39.694  50.369 -51.937  1.00  0.00     0.035 A 
HETATM   24 CL   UNL     1     -39.582  49.926 -50.280  1.00  0.00    -0.084 Cl
HETATM   25  C   UNL     1     -39.510  49.403 -52.925  1.00  0.00     0.024 A 
HETATM   26  C   UNL     1     -39.590  49.766 -54.268  1.00  0.00     0.003 A 
HETATM   27  C   UNL     1     -39.848  51.095 -54.619  1.00  0.00     0.015 A 
ENDBRANCH  19  21
ENDBRANCH  15  16
ENDBRANCH   7  15
TORSDOF 3
ENDMDL
MODEL 10
REMARK VINA RESULT:      -7.4     15.850     17.535
REMARK  3 active torsions:
REMARK  status: ('A' for Active; 'I' for Inactive)
REMARK    1  A    between atoms: N_7  and  C_9 
REMARK    2  A    between atoms: C_9  and  C_10 
REMARK    3  A    between atoms: C_13  and  C_14 
ROOT
HETATM    1  C   UNL     1     -36.564  39.272 -60.849  1.00  0.00     0.269 C 
HETATM    2  N   UNL     1     -37.747  39.849 -60.110  1.00  0.00    -0.074 N 
HETATM    3  H   UNL     1     -38.323  40.217 -60.884  1.00  0.00     0.279 HD
HETATM    4  C   UNL     1     -37.480  41.046 -59.233  1.00  0.00     0.245 C 
HETATM    5  C   UNL     1     -36.960  40.715 -57.796  1.00  0.00     0.008 C 
HETATM    6  C   UNL     1     -37.066  42.043 -56.978  1.00  0.00     0.246 C 
HETATM    7  N   UNL     1     -36.331  42.047 -55.658  1.00  0.00    -0.063 N 
HETATM    8  H   UNL     1     -36.269  43.048 -55.398  1.00  0.00     0.280 HD
HETATM    9  C   UNL     1     -34.898  41.604 -55.753  1.00  0.00     0.235 C 
HETATM   10  C   UNL     1     -34.814  40.254 -56.442  1.00  0.00     0.029 C 
HETATM   11  C   UNL     1     -35.475  40.275 -57.823  1.00  0.00     0.014 C 
HETATM   12  C   UNL     1     -37.863  39.607 -57.197  1.00  0.00     0.014 C 
HETATM   13  C   UNL     1     -38.067  38.403 -58.120  1.00  0.00     0.029 C 
HETATM   14  C   UNL     1     -38.627  38.806 -59.472  1.00  0.00     0.234 C 
ENDROOT
BRANCH   7  15
HETATM   15  C   UNL     1     -37.080  41.493 -54.433  1.00  0.00     0.323 C 
BRANCH  15  16
HETATM   16  C   UNL     1     -36.236  41.488 -53.213  1.00  0.00     0.199 A 
HETATM   17  O   UNL     1     -35.704  42.673 -52.819  1.00  0.00    -0.194 OA
HETATM   18  N   UNL     1     -34.839  42.379 -51.773  1.00  0.00    -0.106 NA
HETATM   19  C   UNL     1     -34.956  41.051 -51.606  1.00  0.00     0.189 A 
HETATM   20  N   UNL     1     -35.776  40.454 -52.550  1.00  0.00    -0.202 NA
BRANCH  19  21
HETATM   21  C   UNL     1     -34.265  40.286 -50.576  1.00  0.00     0.016 A 
HETATM   22  C   UNL     1     -34.925  39.274 -49.865  1.00  0.00     0.039 A 
HETATM   23  C   UNL     1     -34.248  38.554 -48.880  1.00  0.00     0.035 A 
HETATM   24 CL   UNL     1     -35.078  37.332 -48.001  1.00  0.00    -0.084 Cl
HETATM   25  C   UNL     1     -32.910  38.821 -48.598  1.00  0.00     0.024 A 
HETATM   26  C   UNL     1     -32.242  39.821 -49.304  1.00  0.00     0.003 A 
HETATM   27  C   UNL     1     -32.917  40.553 -50.286  1.00  0.00     0.015 A 
ENDBRANCH  19  21
ENDBRANCH  15  16
ENDBRANCH   7  15
TORSDOF 3
ENDMDL
