MODEL 1
REMARK VINA RESULT:      -7.8      0.000      0.000
REMARK  10 active torsions:
REMARK  status: ('A' for Active; 'I' for Inactive)
REMARK    1  A    between atoms: O_2  and  C_3 
REMARK    2  A    between atoms: C_3  and  C_4 
REMARK    3  A    between atoms: C_8  and  N_9 
REMARK       I    between atoms: N_9  and  C_10 
REMARK    4  A    between atoms: C_10  and  C_11 
REMARK    5  A    between atoms: C_12  and  C_13 
REMARK    6  A    between atoms: C_22  and  C_23 
REMARK    7  A    between atoms: C_23  and  N_24 
REMARK    8  A    between atoms: C_26  and  C_27 
REMARK    9  A    between atoms: C_27  and  C_28 
REMARK   10  A    between atoms: C_28  and  O_29 
ROOT
HETATM    1  C   UNL     1     -44.405  59.022 -54.319  1.00  0.00     0.110 C 
HETATM    2  S   UNL     1     -45.232  60.440 -53.838  1.00  0.00    -0.061 SA
HETATM    3  C   UNL     1     -44.364  60.538 -52.387  1.00  0.00     0.111 A 
HETATM    4  C   UNL     1     -43.442  59.511 -52.232  1.00  0.00     0.028 A 
HETATM    5  C   UNL     1     -43.540  58.566 -53.325  1.00  0.00     0.071 C 
HETATM    6  N   UNL     1     -44.595  61.564 -51.537  1.00  0.00    -0.243 NA
HETATM    7  C   UNL     1     -43.793  61.604 -50.453  1.00  0.00     0.061 A 
HETATM    8  C   UNL     1     -42.789  60.678 -50.205  1.00  0.00     0.030 A 
HETATM    9  C   UNL     1     -42.606  59.622 -51.097  1.00  0.00     0.019 A 
ENDROOT
BRANCH   5  10
HETATM   10  N   UNL     1     -42.855  57.354 -53.495  1.00  0.00    -0.321 N 
HETATM   11  C   UNL     1     -41.498  57.207 -53.675  1.00  0.00     0.245 C 
HETATM   12  O   UNL     1     -40.657  58.096 -53.636  1.00  0.00    -0.268 OA
HETATM   13  H   UNL     1     -43.387  56.513 -53.267  1.00  0.00     0.169 HD
BRANCH  11  14
HETATM   14  C   UNL     1     -41.113  55.783 -53.880  1.00  0.00     0.075 C 
HETATM   15  C   UNL     1     -41.032  54.958 -52.825  1.00  0.00     0.017 C 
BRANCH  15  16
HETATM   16  C   UNL     1     -40.586  53.566 -52.943  1.00  0.00    -0.036 A 
HETATM   17  C   UNL     1     -40.046  52.934 -51.813  1.00  0.00     0.014 A 
HETATM   18  C   UNL     1     -39.609  51.610 -51.889  1.00  0.00     0.043 A 
HETATM   19  C   UNL     1     -39.725  50.917 -53.087  1.00  0.00     0.116 A 
HETATM   20  F   UNL     1     -39.304  49.648 -53.159  1.00  0.00    -0.206 F 
HETATM   21  C   UNL     1     -40.276  51.521 -54.211  1.00  0.00     0.043 A 
HETATM   22  C   UNL     1     -40.710  52.847 -54.140  1.00  0.00     0.014 A 
ENDBRANCH  15  16
ENDBRANCH  11  14
ENDBRANCH   5  10
BRANCH   1  23
HETATM   23  C   UNL     1     -44.657  58.387 -55.605  1.00  0.00     0.302 C 
HETATM   24  O   UNL     1     -45.765  57.999 -55.963  1.00  0.00    -0.259 OA
BRANCH  23  25
HETATM   25  O   UNL     1     -43.520  58.253 -56.343  1.00  0.00    -0.322 OA
HETATM   26  C   UNL     1     -43.403  57.000 -57.024  1.00  0.00     0.213 C 
ENDBRANCH  23  25
ENDBRANCH   1  23
BRANCH   7  27
HETATM   27  C   UNL     1     -44.055  62.718 -49.458  1.00  0.00     0.294 C 
BRANCH  27  28
HETATM   28  N   UNL     1     -45.485  62.808 -48.905  1.00  0.00    -0.061 N 
HETATM   29  H   UNL     1     -45.959  61.964 -49.249  1.00  0.00     0.280 HD
HETATM   30  C   UNL     1     -45.608  62.772 -47.373  1.00  0.00     0.190 C 
HETATM   31  C   UNL     1     -47.111  62.792 -47.024  1.00  0.00     0.033 C 
HETATM   32  C   UNL     1     -47.857  63.961 -47.651  1.00  0.00     0.004 C 
HETATM   33  C   UNL     1     -47.671  63.967 -49.158  1.00  0.00     0.028 C 
HETATM   34  C   UNL     1     -46.197  64.001 -49.516  1.00  0.00     0.235 C 
BRANCH  30  35
HETATM   35  C   UNL     1     -44.991  61.487 -46.793  1.00  0.00     0.059 C 
BRANCH  35  36
HETATM   36  C   UNL     1     -45.912  60.273 -46.877  1.00  0.00     0.166 C 
BRANCH  36  37
HETATM   37  O   UNL     1     -45.851  59.786 -48.209  1.00  0.00    -0.401 OA
HETATM   38  H   UNL     1     -46.758  59.555 -48.483  1.00  0.00     0.209 HD
ENDBRANCH  36  37
ENDBRANCH  35  36
ENDBRANCH  30  35
ENDBRANCH  27  28
ENDBRANCH   7  27
TORSDOF 10
ENDMDL
MODEL 2
REMARK VINA RESULT:      -7.7      4.421      8.036
REMARK  10 active torsions:
REMARK  status: ('A' for Active; 'I' for Inactive)
REMARK    1  A    between atoms: O_2  and  C_3 
REMARK    2  A    between atoms: C_3  and  C_4 
REMARK    3  A    between atoms: C_8  and  N_9 
REMARK       I    between atoms: N_9  and  C_10 
REMARK    4  A    between atoms: C_10  and  C_11 
REMARK    5  A    between atoms: C_12  and  C_13 
REMARK    6  A    between atoms: C_22  and  C_23 
REMARK    7  A    between atoms: C_23  and  N_24 
REMARK    8  A    between atoms: C_26  and  C_27 
REMARK    9  A    between atoms: C_27  and  C_28 
REMARK   10  A    between atoms: C_28  and  O_29 
ROOT
HETATM    1  C   UNL     1     -42.080  58.665 -53.346  1.00  0.00     0.110 C 
HETATM    2  S   UNL     1     -42.118  60.313 -53.805  1.00  0.00    -0.061 SA
HETATM    3  C   UNL     1     -42.292  59.924 -55.445  1.00  0.00     0.111 A 
HETATM    4  C   UNL     1     -42.321  58.556 -55.681  1.00  0.00     0.028 A 
HETATM    5  C   UNL     1     -42.097  57.819 -54.454  1.00  0.00     0.071 C 
HETATM    6  N   UNL     1     -42.409  60.914 -56.358  1.00  0.00    -0.243 NA
HETATM    7  C   UNL     1     -42.632  60.504 -57.624  1.00  0.00     0.061 A 
HETATM    8  C   UNL     1     -42.747  59.171 -57.991  1.00  0.00     0.030 A 
HETATM    9  C   UNL     1     -42.592  58.185 -57.019  1.00  0.00     0.019 A 
ENDROOT
BRANCH   5  10
HETATM   10  N   UNL     1     -41.962  56.434 -54.280  1.00  0.00    -0.321 N 
HETATM   11  C   UNL     1     -42.990  55.520 -54.225  1.00  0.00     0.245 C 
HETATM   12  O   UNL     1     -44.180  55.749 -54.399  1.00  0.00    -0.268 OA
HETATM   13  H   UNL     1     -41.018  56.066 -54.405  1.00  0.00     0.169 HD
BRANCH  11  14
HETATM   14  C   UNL     1     -42.494  54.138 -53.974  1.00  0.00     0.075 C 
HETATM   15  C   UNL     1     -41.218  53.944 -53.611  1.00  0.00     0.017 C 
BRANCH  15  16
HETATM   16  C   UNL     1     -40.642  52.609 -53.423  1.00  0.00    -0.036 A 
HETATM   17  C   UNL     1     -40.065  52.293 -52.185  1.00  0.00     0.014 A 
HETATM   18  C   UNL     1     -39.505  51.032 -51.970  1.00  0.00     0.043 A 
HETATM   19  C   UNL     1     -39.535  50.086 -52.987  1.00  0.00     0.116 A 
HETATM   20  F   UNL     1     -38.997  48.878 -52.782  1.00  0.00    -0.206 F 
HETATM   21  C   UNL     1     -40.121  50.375 -54.215  1.00  0.00     0.043 A 
HETATM   22  C   UNL     1     -40.678  51.638 -54.433  1.00  0.00     0.014 A 
ENDBRANCH  15  16
ENDBRANCH  11  14
ENDBRANCH   5  10
BRANCH   1  23
HETATM   23  C   UNL     1     -41.991  58.260 -51.951  1.00  0.00     0.302 C 
HETATM   24  O   UNL     1     -42.689  58.739 -51.061  1.00  0.00    -0.259 OA
BRANCH  23  25
HETATM   25  O   UNL     1     -41.031  57.314 -51.749  1.00  0.00    -0.322 OA
HETATM   26  C   UNL     1     -41.310  56.412 -50.675  1.00  0.00     0.213 C 
ENDBRANCH  23  25
ENDBRANCH   1  23
BRANCH   7  27
HETATM   27  C   UNL     1     -42.725  61.589 -58.680  1.00  0.00     0.294 C 
BRANCH  27  28
HETATM   28  N   UNL     1     -41.424  61.918 -59.426  1.00  0.00    -0.061 N 
HETATM   29  H   UNL     1     -40.801  61.122 -59.245  1.00  0.00     0.280 HD
HETATM   30  C   UNL     1     -41.544  62.025 -60.956  1.00  0.00     0.190 C 
HETATM   31  C   UNL     1     -40.130  62.278 -61.520  1.00  0.00     0.033 C 
HETATM   32  C   UNL     1     -39.443  63.484 -60.895  1.00  0.00     0.004 C 
HETATM   33  C   UNL     1     -39.385  63.341 -59.383  1.00  0.00     0.028 C 
HETATM   34  C   UNL     1     -40.775  63.144 -58.810  1.00  0.00     0.235 C 
BRANCH  30  35
HETATM   35  C   UNL     1     -42.083  60.719 -61.566  1.00  0.00     0.059 C 
BRANCH  35  36
HETATM   36  C   UNL     1     -43.482  60.851 -62.160  1.00  0.00     0.166 C 
BRANCH  36  37
HETATM   37  O   UNL     1     -44.272  59.801 -61.623  1.00  0.00    -0.401 OA
HETATM   38  H   UNL     1     -44.572  60.078 -60.738  1.00  0.00     0.209 HD
ENDBRANCH  36  37
ENDBRANCH  35  36
ENDBRANCH  30  35
ENDBRANCH  27  28
ENDBRANCH   7  27
TORSDOF 10
ENDMDL
MODEL 3
REMARK VINA RESULT:      -7.6      3.720      7.750
REMARK  10 active torsions:
REMARK  status: ('A' for Active; 'I' for Inactive)
REMARK    1  A    between atoms: O_2  and  C_3 
REMARK    2  A    between atoms: C_3  and  C_4 
REMARK    3  A    between atoms: C_8  and  N_9 
REMARK       I    between atoms: N_9  and  C_10 
REMARK    4  A    between atoms: C_10  and  C_11 
REMARK    5  A    between atoms: C_12  and  C_13 
REMARK    6  A    between atoms: C_22  and  C_23 
REMARK    7  A    between atoms: C_23  and  N_24 
REMARK    8  A    between atoms: C_26  and  C_27 
REMARK    9  A    between atoms: C_27  and  C_28 
REMARK   10  A    between atoms: C_28  and  O_29 
ROOT
HETATM    1  C   UNL     1     -44.366  58.093 -53.001  1.00  0.00     0.110 C 
HETATM    2  S   UNL     1     -45.103  59.424 -53.781  1.00  0.00    -0.061 SA
HETATM    3  C   UNL     1     -44.732  58.818 -55.318  1.00  0.00     0.111 A 
HETATM    4  C   UNL     1     -44.047  57.611 -55.278  1.00  0.00     0.028 A 
HETATM    5  C   UNL     1     -43.747  57.237 -53.911  1.00  0.00     0.071 C 
HETATM    6  N   UNL     1     -45.126  59.498 -56.419  1.00  0.00    -0.243 NA
HETATM    7  C   UNL     1     -44.862  58.891 -57.594  1.00  0.00     0.061 A 
HETATM    8  C   UNL     1     -44.240  57.654 -57.699  1.00  0.00     0.030 A 
HETATM    9  C   UNL     1     -43.828  57.004 -56.537  1.00  0.00     0.019 A 
ENDROOT
BRANCH   5  10
HETATM   10  N   UNL     1     -42.997  56.146 -53.449  1.00  0.00    -0.321 N 
HETATM   11  C   UNL     1     -41.627  56.098 -53.322  1.00  0.00     0.245 C 
HETATM   12  O   UNL     1     -40.844  57.021 -53.510  1.00  0.00    -0.268 OA
HETATM   13  H   UNL     1     -43.533  55.409 -52.990  1.00  0.00     0.169 HD
BRANCH  11  14
HETATM   14  C   UNL     1     -41.157  54.764 -52.855  1.00  0.00     0.075 C 
HETATM   15  C   UNL     1     -40.740  53.855 -53.748  1.00  0.00     0.017 C 
BRANCH  15  16
HETATM   16  C   UNL     1     -40.337  52.498 -53.367  1.00  0.00    -0.036 A 
HETATM   17  C   UNL     1     -40.387  51.483 -54.333  1.00  0.00     0.014 A 
HETATM   18  C   UNL     1     -40.012  50.178 -54.005  1.00  0.00     0.043 A 
HETATM   19  C   UNL     1     -39.576  49.894 -52.717  1.00  0.00     0.116 A 
HETATM   20  F   UNL     1     -39.219  48.643 -52.402  1.00  0.00    -0.206 F 
HETATM   21  C   UNL     1     -39.501  50.892 -51.752  1.00  0.00     0.043 A 
HETATM   22  C   UNL     1     -39.879  52.196 -52.077  1.00  0.00     0.014 A 
ENDBRANCH  15  16
ENDBRANCH  11  14
ENDBRANCH   5  10
BRANCH   1  23
HETATM   23  C   UNL     1     -44.376  57.952 -51.552  1.00  0.00     0.302 C 
HETATM   24  O   UNL     1     -45.399  57.778 -50.896  1.00  0.00    -0.259 OA
BRANCH  23  25
HETATM   25  O   UNL     1     -43.129  58.060 -51.015  1.00  0.00    -0.322 OA
HETATM   26  C   UNL     1     -42.589  59.385 -51.041  1.00  0.00     0.213 C 
ENDBRANCH  23  25
ENDBRANCH   1  23
BRANCH   7  27
HETATM   27  C   UNL     1     -45.253  59.648 -58.850  1.00  0.00     0.294 C 
BRANCH  27  28
HETATM   28  N   UNL     1     -44.109  60.344 -59.602  1.00  0.00    -0.061 N 
HETATM   29  H   UNL     1     -43.295  60.270 -58.981  1.00  0.00     0.280 HD
HETATM   30  C   UNL     1     -43.693  59.690 -60.930  1.00  0.00     0.190 C 
HETATM   31  C   UNL     1     -42.491  60.482 -61.486  1.00  0.00     0.033 C 
HETATM   32  C   UNL     1     -42.766  61.972 -61.620  1.00  0.00     0.004 C 
HETATM   33  C   UNL     1     -43.207  62.557 -60.289  1.00  0.00     0.028 C 
HETATM   34  C   UNL     1     -44.421  61.821 -59.757  1.00  0.00     0.235 C 
BRANCH  30  35
HETATM   35  C   UNL     1     -43.258  58.229 -60.721  1.00  0.00     0.059 C 
BRANCH  35  36
HETATM   36  C   UNL     1     -41.794  58.077 -60.319  1.00  0.00     0.166 C 
BRANCH  36  37
HETATM   37  O   UNL     1     -41.480  56.693 -60.378  1.00  0.00    -0.401 OA
HETATM   38  H   UNL     1     -41.879  56.332 -61.191  1.00  0.00     0.209 HD
ENDBRANCH  36  37
ENDBRANCH  35  36
ENDBRANCH  30  35
ENDBRANCH  27  28
ENDBRANCH   7  27
TORSDOF 10
ENDMDL
MODEL 4
REMARK VINA RESULT:      -7.6      4.721      8.112
REMARK  10 active torsions:
REMARK  status: ('A' for Active; 'I' for Inactive)
REMARK    1  A    between atoms: O_2  and  C_3 
REMARK    2  A    between atoms: C_3  and  C_4 
REMARK    3  A    between atoms: C_8  and  N_9 
REMARK       I    between atoms: N_9  and  C_10 
REMARK    4  A    between atoms: C_10  and  C_11 
REMARK    5  A    between atoms: C_12  and  C_13 
REMARK    6  A    between atoms: C_22  and  C_23 
REMARK    7  A    between atoms: C_23  and  N_24 
REMARK    8  A    between atoms: C_26  and  C_27 
REMARK    9  A    between atoms: C_27  and  C_28 
REMARK   10  A    between atoms: C_28  and  O_29 
ROOT
HETATM    1  C   UNL     1     -41.965  58.437 -55.020  1.00  0.00     0.110 C 
HETATM    2  S   UNL     1     -42.257  59.595 -56.245  1.00  0.00    -0.061 SA
HETATM    3  C   UNL     1     -42.778  58.409 -57.338  1.00  0.00     0.111 A 
HETATM    4  C   UNL     1     -42.740  57.126 -56.809  1.00  0.00     0.028 A 
HETATM    5  C   UNL     1     -42.167  57.136 -55.479  1.00  0.00     0.071 C 
HETATM    6  N   UNL     1     -43.194  58.773 -58.571  1.00  0.00    -0.243 NA
HETATM    7  C   UNL     1     -43.673  57.770 -59.336  1.00  0.00     0.061 A 
HETATM    8  C   UNL     1     -43.752  56.451 -58.911  1.00  0.00     0.030 A 
HETATM    9  C   UNL     1     -43.285  56.119 -57.640  1.00  0.00     0.019 A 
ENDROOT
BRANCH   5  10
HETATM   10  N   UNL     1     -41.873  56.046 -54.647  1.00  0.00    -0.321 N 
HETATM   11  C   UNL     1     -42.788  55.194 -54.072  1.00  0.00     0.245 C 
HETATM   12  O   UNL     1     -43.999  55.192 -54.255  1.00  0.00    -0.268 OA
HETATM   13  H   UNL     1     -40.895  55.755 -54.635  1.00  0.00     0.169 HD
BRANCH  11  14
HETATM   14  C   UNL     1     -42.134  54.178 -53.200  1.00  0.00     0.075 C 
HETATM   15  C   UNL     1     -41.170  53.393 -53.702  1.00  0.00     0.017 C 
BRANCH  15  16
HETATM   16  C   UNL     1     -40.537  52.323 -52.925  1.00  0.00    -0.036 A 
HETATM   17  C   UNL     1     -40.447  52.464 -51.533  1.00  0.00     0.014 A 
HETATM   18  C   UNL     1     -39.849  51.466 -50.761  1.00  0.00     0.043 A 
HETATM   19  C   UNL     1     -39.353  50.325 -51.379  1.00  0.00     0.116 A 
HETATM   20  F   UNL     1     -38.777  49.370 -50.639  1.00  0.00    -0.206 F 
HETATM   21  C   UNL     1     -39.451  50.160 -52.756  1.00  0.00     0.043 A 
HETATM   22  C   UNL     1     -40.045  51.158 -53.531  1.00  0.00     0.014 A 
ENDBRANCH  15  16
ENDBRANCH  11  14
ENDBRANCH   5  10
BRANCH   1  23
HETATM   23  C   UNL     1     -41.513  58.825 -53.691  1.00  0.00     0.302 C 
HETATM   24  O   UNL     1     -40.460  59.422 -53.482  1.00  0.00    -0.259 OA
BRANCH  23  25
HETATM   25  O   UNL     1     -42.378  58.428 -52.717  1.00  0.00    -0.322 OA
HETATM   26  C   UNL     1     -41.748  58.006 -51.505  1.00  0.00     0.213 C 
ENDBRANCH  23  25
ENDBRANCH   1  23
BRANCH   7  27
HETATM   27  C   UNL     1     -44.109  58.138 -60.741  1.00  0.00     0.294 C 
BRANCH  27  28
HETATM   28  N   UNL     1     -45.433  58.906 -60.857  1.00  0.00    -0.061 N 
HETATM   29  H   UNL     1     -45.817  58.645 -61.774  1.00  0.00     0.280 HD
HETATM   30  C   UNL     1     -46.510  58.535 -59.824  1.00  0.00     0.190 C 
HETATM   31  C   UNL     1     -47.778  59.350 -60.154  1.00  0.00     0.033 C 
HETATM   32  C   UNL     1     -47.524  60.848 -60.233  1.00  0.00     0.004 C 
HETATM   33  C   UNL     1     -46.429  61.153 -61.241  1.00  0.00     0.028 C 
HETATM   34  C   UNL     1     -45.159  60.399 -60.897  1.00  0.00     0.235 C 
BRANCH  30  35
HETATM   35  C   UNL     1     -46.860  57.038 -59.896  1.00  0.00     0.059 C 
BRANCH  35  36
HETATM   36  C   UNL     1     -47.560  56.635 -61.190  1.00  0.00     0.166 C 
BRANCH  36  37
HETATM   37  O   UNL     1     -46.602  55.971 -62.001  1.00  0.00    -0.401 OA
HETATM   38  H   UNL     1     -46.136  55.324 -61.441  1.00  0.00     0.209 HD
ENDBRANCH  36  37
ENDBRANCH  35  36
ENDBRANCH  30  35
ENDBRANCH  27  28
ENDBRANCH   7  27
TORSDOF 10
ENDMDL
MODEL 5
REMARK VINA RESULT:      -7.6      2.133      3.666
REMARK  10 active torsions:
REMARK  status: ('A' for Active; 'I' for Inactive)
REMARK    1  A    between atoms: O_2  and  C_3 
REMARK    2  A    between atoms: C_3  and  C_4 
REMARK    3  A    between atoms: C_8  and  N_9 
REMARK       I    between atoms: N_9  and  C_10 
REMARK    4  A    between atoms: C_10  and  C_11 
REMARK    5  A    between atoms: C_12  and  C_13 
REMARK    6  A    between atoms: C_22  and  C_23 
REMARK    7  A    between atoms: C_23  and  N_24 
REMARK    8  A    between atoms: C_26  and  C_27 
REMARK    9  A    between atoms: C_27  and  C_28 
REMARK   10  A    between atoms: C_28  and  O_29 
ROOT
HETATM    1  C   UNL     1     -40.888  59.391 -51.438  1.00  0.00     0.110 C 
HETATM    2  S   UNL     1     -41.505  60.885 -50.878  1.00  0.00    -0.061 SA
HETATM    3  C   UNL     1     -43.095  60.301 -50.859  1.00  0.00     0.111 A 
HETATM    4  C   UNL     1     -43.196  58.979 -51.274  1.00  0.00     0.028 A 
HETATM    5  C   UNL     1     -41.908  58.479 -51.708  1.00  0.00     0.071 C 
HETATM    6  N   UNL     1     -44.098  61.105 -50.441  1.00  0.00    -0.243 NA
HETATM    7  C   UNL     1     -45.313  60.523 -50.377  1.00  0.00     0.061 A 
HETATM    8  C   UNL     1     -45.547  59.193 -50.701  1.00  0.00     0.030 A 
HETATM    9  C   UNL     1     -44.485  58.410 -51.153  1.00  0.00     0.019 A 
ENDROOT
BRANCH   5  10
HETATM   10  N   UNL     1     -41.603  57.235 -52.279  1.00  0.00    -0.321 N 
HETATM   11  C   UNL     1     -41.978  56.802 -53.530  1.00  0.00     0.245 C 
HETATM   12  O   UNL     1     -42.567  57.455 -54.382  1.00  0.00    -0.268 OA
HETATM   13  H   UNL     1     -40.880  56.698 -51.798  1.00  0.00     0.169 HD
BRANCH  11  14
HETATM   14  C   UNL     1     -41.532  55.406 -53.794  1.00  0.00     0.075 C 
HETATM   15  C   UNL     1     -41.179  54.615 -52.770  1.00  0.00     0.017 C 
BRANCH  15  16
HETATM   16  C   UNL     1     -40.658  53.258 -52.962  1.00  0.00    -0.036 A 
HETATM   17  C   UNL     1     -40.031  52.618 -51.883  1.00  0.00     0.014 A 
HETATM   18  C   UNL     1     -39.521  51.326 -52.029  1.00  0.00     0.043 A 
HETATM   19  C   UNL     1     -39.650  50.673 -53.248  1.00  0.00     0.116 A 
HETATM   20  F   UNL     1     -39.159  49.435 -53.389  1.00  0.00    -0.206 F 
HETATM   21  C   UNL     1     -40.286  51.284 -54.323  1.00  0.00     0.043 A 
HETATM   22  C   UNL     1     -40.793  52.577 -54.180  1.00  0.00     0.014 A 
ENDBRANCH  15  16
ENDBRANCH  11  14
ENDBRANCH   5  10
BRANCH   1  23
HETATM   23  C   UNL     1     -39.462  59.177 -51.636  1.00  0.00     0.302 C 
HETATM   24  O   UNL     1     -38.920  59.203 -52.737  1.00  0.00    -0.259 OA
BRANCH  23  25
HETATM   25  O   UNL     1     -38.813  58.921 -50.466  1.00  0.00    -0.322 OA
HETATM   26  C   UNL     1     -38.098  60.038 -49.932  1.00  0.00     0.213 C 
ENDBRANCH  23  25
ENDBRANCH   1  23
BRANCH   7  27
HETATM   27  C   UNL     1     -46.468  61.410 -49.953  1.00  0.00     0.294 C 
BRANCH  27  28
HETATM   28  N   UNL     1     -46.298  62.146 -48.616  1.00  0.00    -0.061 N 
HETATM   29  H   UNL     1     -45.578  62.857 -48.790  1.00  0.00     0.280 HD
HETATM   30  C   UNL     1     -47.537  62.908 -48.115  1.00  0.00     0.190 C 
HETATM   31  C   UNL     1     -47.143  63.638 -46.813  1.00  0.00     0.033 C 
HETATM   32  C   UNL     1     -46.552  62.710 -45.762  1.00  0.00     0.004 C 
HETATM   33  C   UNL     1     -45.356  61.959 -46.322  1.00  0.00     0.028 C 
HETATM   34  C   UNL     1     -45.743  61.193 -47.572  1.00  0.00     0.235 C 
BRANCH  30  35
HETATM   35  C   UNL     1     -47.998  63.958 -49.140  1.00  0.00     0.059 C 
BRANCH  35  36
HETATM   36  C   UNL     1     -49.451  63.793 -49.576  1.00  0.00     0.166 C 
BRANCH  36  37
HETATM   37  O   UNL     1     -50.260  63.940 -48.418  1.00  0.00    -0.401 OA
HETATM   38  H   UNL     1     -50.344  64.894 -48.234  1.00  0.00     0.209 HD
ENDBRANCH  36  37
ENDBRANCH  35  36
ENDBRANCH  30  35
ENDBRANCH  27  28
ENDBRANCH   7  27
TORSDOF 10
ENDMDL
MODEL 6
REMARK VINA RESULT:      -7.3      1.189      2.121
REMARK  10 active torsions:
REMARK  status: ('A' for Active; 'I' for Inactive)
REMARK    1  A    between atoms: O_2  and  C_3 
REMARK    2  A    between atoms: C_3  and  C_4 
REMARK    3  A    between atoms: C_8  and  N_9 
REMARK       I    between atoms: N_9  and  C_10 
REMARK    4  A    between atoms: C_10  and  C_11 
REMARK    5  A    between atoms: C_12  and  C_13 
REMARK    6  A    between atoms: C_22  and  C_23 
REMARK    7  A    between atoms: C_23  and  N_24 
REMARK    8  A    between atoms: C_26  and  C_27 
REMARK    9  A    between atoms: C_27  and  C_28 
REMARK   10  A    between atoms: C_28  and  O_29 
ROOT
HETATM    1  C   UNL     1     -44.444  59.098 -54.010  1.00  0.00     0.110 C 
HETATM    2  S   UNL     1     -45.379  60.442 -53.514  1.00  0.00    -0.061 SA
HETATM    3  C   UNL     1     -44.405  60.705 -52.153  1.00  0.00     0.111 A 
HETATM    4  C   UNL     1     -43.365  59.792 -52.041  1.00  0.00     0.028 A 
HETATM    5  C   UNL     1     -43.451  58.788 -53.081  1.00  0.00     0.071 C 
HETATM    6  N   UNL     1     -44.675  61.742 -51.328  1.00  0.00    -0.243 NA
HETATM    7  C   UNL     1     -43.792  61.922 -50.323  1.00  0.00     0.061 A 
HETATM    8  C   UNL     1     -42.674  61.122 -50.131  1.00  0.00     0.030 A 
HETATM    9  C   UNL     1     -42.452  60.049 -50.992  1.00  0.00     0.019 A 
ENDROOT
BRANCH   5  10
HETATM   10  N   UNL     1     -42.653  57.649 -53.264  1.00  0.00    -0.321 N 
HETATM   11  C   UNL     1     -41.332  57.638 -53.651  1.00  0.00     0.245 C 
HETATM   12  O   UNL     1     -40.613  58.615 -53.821  1.00  0.00    -0.268 OA
HETATM   13  H   UNL     1     -43.034  56.781 -52.886  1.00  0.00     0.169 HD
BRANCH  11  14
HETATM   14  C   UNL     1     -40.807  56.253 -53.802  1.00  0.00     0.075 C 
HETATM   15  C   UNL     1     -41.269  55.276 -53.008  1.00  0.00     0.017 C 
BRANCH  15  16
HETATM   16  C   UNL     1     -40.744  53.908 -53.048  1.00  0.00    -0.036 A 
HETATM   17  C   UNL     1     -40.732  53.226 -54.274  1.00  0.00     0.014 A 
HETATM   18  C   UNL     1     -40.241  51.921 -54.350  1.00  0.00     0.043 A 
HETATM   19  C   UNL     1     -39.751  51.306 -53.205  1.00  0.00     0.116 A 
HETATM   20  F   UNL     1     -39.283  50.054 -53.277  1.00  0.00    -0.206 F 
HETATM   21  C   UNL     1     -39.736  51.973 -51.985  1.00  0.00     0.043 A 
HETATM   22  C   UNL     1     -40.231  53.277 -51.906  1.00  0.00     0.014 A 
ENDBRANCH  15  16
ENDBRANCH  11  14
ENDBRANCH   5  10
BRANCH   1  23
HETATM   23  C   UNL     1     -44.733  58.377 -55.241  1.00  0.00     0.302 C 
HETATM   24  O   UNL     1     -45.797  57.802 -55.455  1.00  0.00    -0.259 OA
BRANCH  23  25
HETATM   25  O   UNL     1     -43.682  58.395 -56.107  1.00  0.00    -0.322 OA
HETATM   26  C   UNL     1     -43.568  57.224 -56.921  1.00  0.00     0.213 C 
ENDBRANCH  23  25
ENDBRANCH   1  23
BRANCH   7  27
HETATM   27  C   UNL     1     -44.089  63.050 -49.354  1.00  0.00     0.294 C 
BRANCH  27  28
HETATM   28  N   UNL     1     -44.992  62.696 -48.163  1.00  0.00    -0.061 N 
HETATM   29  H   UNL     1     -44.745  63.372 -47.429  1.00  0.00     0.280 HD
HETATM   30  C   UNL     1     -46.502  62.859 -48.402  1.00  0.00     0.190 C 
HETATM   31  C   UNL     1     -47.223  62.535 -47.077  1.00  0.00     0.033 C 
HETATM   32  C   UNL     1     -46.857  61.170 -46.513  1.00  0.00     0.004 C 
HETATM   33  C   UNL     1     -45.353  61.053 -46.331  1.00  0.00     0.028 C 
HETATM   34  C   UNL     1     -44.633  61.317 -47.640  1.00  0.00     0.235 C 
BRANCH  30  35
HETATM   35  C   UNL     1     -46.851  64.302 -48.805  1.00  0.00     0.059 C 
BRANCH  35  36
HETATM   36  C   UNL     1     -47.974  64.397 -49.834  1.00  0.00     0.166 C 
BRANCH  36  37
HETATM   37  O   UNL     1     -49.160  64.747 -49.135  1.00  0.00    -0.401 OA
HETATM   38  H   UNL     1     -49.552  65.519 -49.584  1.00  0.00     0.209 HD
ENDBRANCH  36  37
ENDBRANCH  35  36
ENDBRANCH  30  35
ENDBRANCH  27  28
ENDBRANCH   7  27
TORSDOF 10
ENDMDL
MODEL 7
REMARK VINA RESULT:      -7.3      3.769      7.282
REMARK  10 active torsions:
REMARK  status: ('A' for Active; 'I' for Inactive)
REMARK    1  A    between atoms: O_2  and  C_3 
REMARK    2  A    between atoms: C_3  and  C_4 
REMARK    3  A    between atoms: C_8  and  N_9 
REMARK       I    between atoms: N_9  and  C_10 
REMARK    4  A    between atoms: C_10  and  C_11 
REMARK    5  A    between atoms: C_12  and  C_13 
REMARK    6  A    between atoms: C_22  and  C_23 
REMARK    7  A    between atoms: C_23  and  N_24 
REMARK    8  A    between atoms: C_26  and  C_27 
REMARK    9  A    between atoms: C_27  and  C_28 
REMARK   10  A    between atoms: C_28  and  O_29 
ROOT
HETATM    1  C   UNL     1     -44.317  58.029 -53.165  1.00  0.00     0.110 C 
HETATM    2  S   UNL     1     -45.162  59.334 -53.879  1.00  0.00    -0.061 SA
HETATM    3  C   UNL     1     -44.659  58.899 -55.437  1.00  0.00     0.111 A 
HETATM    4  C   UNL     1     -43.848  57.772 -55.453  1.00  0.00     0.028 A 
HETATM    5  C   UNL     1     -43.568  57.322 -54.105  1.00  0.00     0.071 C 
HETATM    6  N   UNL     1     -45.077  59.621 -56.501  1.00  0.00    -0.243 NA
HETATM    7  C   UNL     1     -44.697  59.144 -57.704  1.00  0.00     0.061 A 
HETATM    8  C   UNL     1     -43.938  57.993 -57.870  1.00  0.00     0.030 A 
HETATM    9  C   UNL     1     -43.508  57.298 -56.742  1.00  0.00     0.019 A 
ENDROOT
BRANCH   5  10
HETATM   10  N   UNL     1     -42.724  56.282 -53.690  1.00  0.00    -0.321 N 
HETATM   11  C   UNL     1     -41.356  56.354 -53.551  1.00  0.00     0.245 C 
HETATM   12  O   UNL     1     -40.661  57.353 -53.686  1.00  0.00    -0.268 OA
HETATM   13  H   UNL     1     -43.192  55.477 -53.272  1.00  0.00     0.169 HD
BRANCH  11  14
HETATM   14  C   UNL     1     -40.767  55.048 -53.145  1.00  0.00     0.075 C 
HETATM   15  C   UNL     1     -40.999  53.954 -53.886  1.00  0.00     0.017 C 
BRANCH  15  16
HETATM   16  C   UNL     1     -40.515  52.624 -53.506  1.00  0.00    -0.036 A 
HETATM   17  C   UNL     1     -40.493  51.612 -54.476  1.00  0.00     0.014 A 
HETATM   18  C   UNL     1     -40.041  50.331 -54.149  1.00  0.00     0.043 A 
HETATM   19  C   UNL     1     -39.601  50.069 -52.858  1.00  0.00     0.116 A 
HETATM   20  F   UNL     1     -39.170  48.842 -52.544  1.00  0.00    -0.206 F 
HETATM   21  C   UNL     1     -39.598  51.065 -51.888  1.00  0.00     0.043 A 
HETATM   22  C   UNL     1     -40.053  52.345 -52.211  1.00  0.00     0.014 A 
ENDBRANCH  15  16
ENDBRANCH  11  14
ENDBRANCH   5  10
BRANCH   1  23
HETATM   23  C   UNL     1     -44.375  57.770 -51.734  1.00  0.00     0.302 C 
HETATM   24  O   UNL     1     -45.421  57.558 -51.126  1.00  0.00    -0.259 OA
BRANCH  23  25
HETATM   25  O   UNL     1     -43.144  57.815 -51.152  1.00  0.00    -0.322 OA
HETATM   26  C   UNL     1     -42.535  59.109 -51.161  1.00  0.00     0.213 C 
ENDBRANCH  23  25
ENDBRANCH   1  23
BRANCH   7  27
HETATM   27  C   UNL     1     -45.114  59.955 -58.916  1.00  0.00     0.294 C 
BRANCH  27  28
HETATM   28  N   UNL     1     -46.474  59.598 -59.532  1.00  0.00    -0.061 N 
HETATM   29  H   UNL     1     -46.997  59.133 -58.780  1.00  0.00     0.280 HD
HETATM   30  C   UNL     1     -47.337  60.791 -59.976  1.00  0.00     0.190 C 
HETATM   31  C   UNL     1     -48.681  60.232 -60.488  1.00  0.00     0.033 C 
HETATM   32  C   UNL     1     -48.518  59.183 -61.577  1.00  0.00     0.004 C 
HETATM   33  C   UNL     1     -47.629  58.048 -61.097  1.00  0.00     0.028 C 
HETATM   34  C   UNL     1     -46.284  58.578 -60.640  1.00  0.00     0.235 C 
BRANCH  30  35
HETATM   35  C   UNL     1     -47.622  61.741 -58.799  1.00  0.00     0.059 C 
BRANCH  35  36
HETATM   36  C   UNL     1     -48.662  61.208 -57.818  1.00  0.00     0.166 C 
BRANCH  36  37
HETATM   37  O   UNL     1     -48.063  60.135 -57.107  1.00  0.00    -0.401 OA
HETATM   38  H   UNL     1     -47.315  59.806 -57.639  1.00  0.00     0.209 HD
ENDBRANCH  36  37
ENDBRANCH  35  36
ENDBRANCH  30  35
ENDBRANCH  27  28
ENDBRANCH   7  27
TORSDOF 10
ENDMDL
MODEL 8
REMARK VINA RESULT:      -7.2      4.499      8.093
REMARK  10 active torsions:
REMARK  status: ('A' for Active; 'I' for Inactive)
REMARK    1  A    between atoms: O_2  and  C_3 
REMARK    2  A    between atoms: C_3  and  C_4 
REMARK    3  A    between atoms: C_8  and  N_9 
REMARK       I    between atoms: N_9  and  C_10 
REMARK    4  A    between atoms: C_10  and  C_11 
REMARK    5  A    between atoms: C_12  and  C_13 
REMARK    6  A    between atoms: C_22  and  C_23 
REMARK    7  A    between atoms: C_23  and  N_24 
REMARK    8  A    between atoms: C_26  and  C_27 
REMARK    9  A    between atoms: C_27  and  C_28 
REMARK   10  A    between atoms: C_28  and  O_29 
ROOT
HETATM    1  C   UNL     1     -43.336  58.515 -55.214  1.00  0.00     0.110 C 
HETATM    2  S   UNL     1     -43.483  59.957 -56.123  1.00  0.00    -0.061 SA
HETATM    3  C   UNL     1     -42.792  59.245 -57.495  1.00  0.00     0.111 A 
HETATM    4  C   UNL     1     -42.434  57.917 -57.300  1.00  0.00     0.028 A 
HETATM    5  C   UNL     1     -42.666  57.521 -55.926  1.00  0.00     0.071 C 
HETATM    6  N   UNL     1     -42.664  59.967 -58.631  1.00  0.00    -0.243 NA
HETATM    7  C   UNL     1     -42.185  59.288 -59.694  1.00  0.00     0.061 A 
HETATM    8  C   UNL     1     -41.847  57.942 -59.657  1.00  0.00     0.030 A 
HETATM    9  C   UNL     1     -41.971  57.246 -58.455  1.00  0.00     0.019 A 
ENDROOT
BRANCH   5  10
HETATM   10  N   UNL     1     -42.355  56.302 -55.305  1.00  0.00    -0.321 N 
HETATM   11  C   UNL     1     -42.700  55.050 -55.759  1.00  0.00     0.245 C 
HETATM   12  O   UNL     1     -43.260  54.785 -56.816  1.00  0.00    -0.268 OA
HETATM   13  H   UNL     1     -41.650  56.353 -54.569  1.00  0.00     0.169 HD
BRANCH  11  14
HETATM   14  C   UNL     1     -42.258  53.977 -54.825  1.00  0.00     0.075 C 
HETATM   15  C   UNL     1     -40.951  53.708 -54.692  1.00  0.00     0.017 C 
BRANCH  15  16
HETATM   16  C   UNL     1     -40.450  52.617 -53.850  1.00  0.00    -0.036 A 
HETATM   17  C   UNL     1     -40.225  52.865 -52.488  1.00  0.00     0.014 A 
HETATM   18  C   UNL     1     -39.746  51.851 -51.657  1.00  0.00     0.043 A 
HETATM   19  C   UNL     1     -39.505  50.589 -52.185  1.00  0.00     0.116 A 
HETATM   20  F   UNL     1     -39.043  49.617 -51.388  1.00  0.00    -0.206 F 
HETATM   21  C   UNL     1     -39.740  50.319 -53.528  1.00  0.00     0.043 A 
HETATM   22  C   UNL     1     -40.216  51.333 -54.362  1.00  0.00     0.014 A 
ENDBRANCH  15  16
ENDBRANCH  11  14
ENDBRANCH   5  10
BRANCH   1  23
HETATM   23  C   UNL     1     -43.829  58.416 -53.848  1.00  0.00     0.302 C 
HETATM   24  O   UNL     1     -45.008  58.572 -53.541  1.00  0.00    -0.259 OA
BRANCH  23  25
HETATM   25  O   UNL     1     -42.831  58.158 -52.958  1.00  0.00    -0.322 OA
HETATM   26  C   UNL     1     -43.272  57.567 -51.733  1.00  0.00     0.213 C 
ENDBRANCH  23  25
ENDBRANCH   1  23
BRANCH   7  27
HETATM   27  C   UNL     1     -41.989  60.080 -60.972  1.00  0.00     0.294 C 
BRANCH  27  28
HETATM   28  N   UNL     1     -42.483  61.534 -60.947  1.00  0.00    -0.061 N 
HETATM   29  H   UNL     1     -42.842  61.680 -59.996  1.00  0.00     0.280 HD
HETATM   30  C   UNL     1     -41.404  62.607 -61.165  1.00  0.00     0.190 C 
HETATM   31  C   UNL     1     -42.080  63.987 -61.027  1.00  0.00     0.033 C 
HETATM   32  C   UNL     1     -43.281  64.161 -61.945  1.00  0.00     0.004 C 
HETATM   33  C   UNL     1     -44.297  63.055 -61.711  1.00  0.00     0.028 C 
HETATM   34  C   UNL     1     -43.657  61.693 -61.897  1.00  0.00     0.235 C 
BRANCH  30  35
HETATM   35  C   UNL     1     -40.291  62.502 -60.107  1.00  0.00     0.059 C 
BRANCH  35  36
HETATM   36  C   UNL     1     -40.720  62.965 -58.719  1.00  0.00     0.166 C 
BRANCH  36  37
HETATM   37  O   UNL     1     -40.540  61.870 -57.832  1.00  0.00    -0.401 OA
HETATM   38  H   UNL     1     -41.308  61.278 -57.931  1.00  0.00     0.209 HD
ENDBRANCH  36  37
ENDBRANCH  35  36
ENDBRANCH  30  35
ENDBRANCH  27  28
ENDBRANCH   7  27
TORSDOF 10
ENDMDL
MODEL 9
REMARK VINA RESULT:      -7.2      4.266      9.887
REMARK  10 active torsions:
REMARK  status: ('A' for Active; 'I' for Inactive)
REMARK    1  A    between atoms: O_2  and  C_3 
REMARK    2  A    between atoms: C_3  and  C_4 
REMARK    3  A    between atoms: C_8  and  N_9 
REMARK       I    between atoms: N_9  and  C_10 
REMARK    4  A    between atoms: C_10  and  C_11 
REMARK    5  A    between atoms: C_12  and  C_13 
REMARK    6  A    between atoms: C_22  and  C_23 
REMARK    7  A    between atoms: C_23  and  N_24 
REMARK    8  A    between atoms: C_26  and  C_27 
REMARK    9  A    between atoms: C_27  and  C_28 
REMARK   10  A    between atoms: C_28  and  O_29 
ROOT
HETATM    1  C   UNL     1     -43.068  56.508 -52.320  1.00  0.00     0.110 C 
HETATM    2  S   UNL     1     -43.128  55.475 -53.682  1.00  0.00    -0.061 SA
HETATM    3  C   UNL     1     -43.032  56.777 -54.761  1.00  0.00     0.111 A 
HETATM    4  C   UNL     1     -42.957  58.009 -54.124  1.00  0.00     0.028 A 
HETATM    5  C   UNL     1     -43.078  57.852 -52.690  1.00  0.00     0.071 C 
HETATM    6  N   UNL     1     -43.012  56.542 -56.092  1.00  0.00    -0.243 NA
HETATM    7  C   UNL     1     -42.844  57.634 -56.866  1.00  0.00     0.061 A 
HETATM    8  C   UNL     1     -42.692  58.919 -56.360  1.00  0.00     0.030 A 
HETATM    9  C   UNL     1     -42.747  59.114 -54.981  1.00  0.00     0.019 A 
ENDROOT
BRANCH   5  10
HETATM   10  N   UNL     1     -43.142  58.849 -51.705  1.00  0.00    -0.321 N 
HETATM   11  C   UNL     1     -42.130  59.717 -51.363  1.00  0.00     0.245 C 
HETATM   12  O   UNL     1     -41.040  59.820 -51.913  1.00  0.00    -0.268 OA
HETATM   13  H   UNL     1     -44.078  59.067 -51.362  1.00  0.00     0.169 HD
BRANCH  11  14
HETATM   14  C   UNL     1     -42.519  60.611 -50.237  1.00  0.00     0.075 C 
HETATM   15  C   UNL     1     -43.808  60.935 -50.059  1.00  0.00     0.017 C 
BRANCH  15  16
HETATM   16  C   UNL     1     -44.253  61.869 -49.020  1.00  0.00    -0.036 A 
HETATM   17  C   UNL     1     -44.738  61.350 -47.811  1.00  0.00     0.014 A 
HETATM   18  C   UNL     1     -45.173  62.209 -46.800  1.00  0.00     0.043 A 
HETATM   19  C   UNL     1     -45.110  63.583 -46.993  1.00  0.00     0.116 A 
HETATM   20  F   UNL     1     -45.528  64.407 -46.025  1.00  0.00    -0.206 F 
HETATM   21  C   UNL     1     -44.613  64.116 -48.178  1.00  0.00     0.043 A 
HETATM   22  C   UNL     1     -44.182  63.259 -49.192  1.00  0.00     0.014 A 
ENDBRANCH  15  16
ENDBRANCH  11  14
ENDBRANCH   5  10
BRANCH   1  23
HETATM   23  C   UNL     1     -43.059  55.985 -50.961  1.00  0.00     0.302 C 
HETATM   24  O   UNL     1     -43.951  55.277 -50.502  1.00  0.00    -0.259 OA
BRANCH  23  25
HETATM   25  O   UNL     1     -41.965  56.392 -50.260  1.00  0.00    -0.322 OA
HETATM   26  C   UNL     1     -41.359  55.369 -49.465  1.00  0.00     0.213 C 
ENDBRANCH  23  25
ENDBRANCH   1  23
BRANCH   7  27
HETATM   27  C   UNL     1     -42.859  57.411 -58.366  1.00  0.00     0.294 C 
BRANCH  27  28
HETATM   28  N   UNL     1     -44.067  56.642 -58.921  1.00  0.00    -0.061 N 
HETATM   29  H   UNL     1     -44.478  56.164 -58.111  1.00  0.00     0.280 HD
HETATM   30  C   UNL     1     -45.189  57.508 -59.518  1.00  0.00     0.190 C 
HETATM   31  C   UNL     1     -46.333  56.565 -59.944  1.00  0.00     0.033 C 
HETATM   32  C   UNL     1     -45.878  55.457 -60.882  1.00  0.00     0.004 C 
HETATM   33  C   UNL     1     -44.747  54.658 -60.257  1.00  0.00     0.028 C 
HETATM   34  C   UNL     1     -43.593  55.567 -59.883  1.00  0.00     0.235 C 
BRANCH  30  35
HETATM   35  C   UNL     1     -45.739  58.502 -58.480  1.00  0.00     0.059 C 
BRANCH  35  36
HETATM   36  C   UNL     1     -46.990  58.007 -57.760  1.00  0.00     0.166 C 
BRANCH  36  37
HETATM   37  O   UNL     1     -46.608  57.658 -56.438  1.00  0.00    -0.401 OA
HETATM   38  H   UNL     1     -45.634  57.630 -56.407  1.00  0.00     0.209 HD
ENDBRANCH  36  37
ENDBRANCH  35  36
ENDBRANCH  30  35
ENDBRANCH  27  28
ENDBRANCH   7  27
TORSDOF 10
ENDMDL
MODEL 10
REMARK VINA RESULT:      -7.1      4.518      5.924
REMARK  10 active torsions:
REMARK  status: ('A' for Active; 'I' for Inactive)
REMARK    1  A    between atoms: O_2  and  C_3 
REMARK    2  A    between atoms: C_3  and  C_4 
REMARK    3  A    between atoms: C_8  and  N_9 
REMARK       I    between atoms: N_9  and  C_10 
REMARK    4  A    between atoms: C_10  and  C_11 
REMARK    5  A    between atoms: C_12  and  C_13 
REMARK    6  A    between atoms: C_22  and  C_23 
REMARK    7  A    between atoms: C_23  and  N_24 
REMARK    8  A    between atoms: C_26  and  C_27 
REMARK    9  A    between atoms: C_27  and  C_28 
REMARK   10  A    between atoms: C_28  and  O_29 
ROOT
HETATM    1  C   UNL     1     -44.186  57.213 -59.341  1.00  0.00     0.110 C 
HETATM    2  S   UNL     1     -45.242  58.365 -60.037  1.00  0.00    -0.061 SA
HETATM    3  C   UNL     1     -45.656  59.003 -58.523  1.00  0.00     0.111 A 
HETATM    4  C   UNL     1     -45.017  58.365 -57.468  1.00  0.00     0.028 A 
HETATM    5  C   UNL     1     -44.229  57.248 -57.948  1.00  0.00     0.071 C 
HETATM    6  N   UNL     1     -46.513  60.045 -58.448  1.00  0.00    -0.243 NA
HETATM    7  C   UNL     1     -46.712  60.539 -57.208  1.00  0.00     0.061 A 
HETATM    8  C   UNL     1     -46.089  60.038 -56.073  1.00  0.00     0.030 A 
HETATM    9  C   UNL     1     -45.234  58.945 -56.197  1.00  0.00     0.019 A 
ENDROOT
BRANCH   5  10
HETATM   10  N   UNL     1     -43.511  56.302 -57.201  1.00  0.00    -0.321 N 
HETATM   11  C   UNL     1     -42.428  56.561 -56.391  1.00  0.00     0.245 C 
HETATM   12  O   UNL     1     -41.964  57.662 -56.123  1.00  0.00    -0.268 OA
HETATM   13  H   UNL     1     -43.957  55.389 -57.104  1.00  0.00     0.169 HD
BRANCH  11  14
HETATM   14  C   UNL     1     -41.871  55.317 -55.791  1.00  0.00     0.075 C 
HETATM   15  C   UNL     1     -41.590  55.279 -54.480  1.00  0.00     0.017 C 
BRANCH  15  16
HETATM   16  C   UNL     1     -40.971  54.116 -53.837  1.00  0.00    -0.036 A 
HETATM   17  C   UNL     1     -40.811  54.122 -52.443  1.00  0.00     0.014 A 
HETATM   18  C   UNL     1     -40.223  53.033 -51.797  1.00  0.00     0.043 A 
HETATM   19  C   UNL     1     -39.808  51.936 -52.542  1.00  0.00     0.116 A 
HETATM   20  F   UNL     1     -39.242  50.893 -51.922  1.00  0.00    -0.206 F 
HETATM   21  C   UNL     1     -39.976  51.904 -53.922  1.00  0.00     0.043 A 
HETATM   22  C   UNL     1     -40.561  52.994 -54.571  1.00  0.00     0.014 A 
ENDBRANCH  15  16
ENDBRANCH  11  14
ENDBRANCH   5  10
BRANCH   1  23
HETATM   23  C   UNL     1     -43.400  56.301 -60.160  1.00  0.00     0.302 C 
HETATM   24  O   UNL     1     -42.176  56.230 -60.109  1.00  0.00    -0.259 OA
BRANCH  23  25
HETATM   25  O   UNL     1     -44.179  55.561 -60.998  1.00  0.00    -0.322 OA
HETATM   26  C   UNL     1     -44.945  54.544 -60.346  1.00  0.00     0.213 C 
ENDBRANCH  23  25
ENDBRANCH   1  23
BRANCH   7  27
HETATM   27  C   UNL     1     -47.701  61.682 -57.085  1.00  0.00     0.294 C 
BRANCH  27  28
HETATM   28  N   UNL     1     -49.028  61.353 -56.385  1.00  0.00    -0.061 N 
HETATM   29  H   UNL     1     -48.828  60.532 -55.801  1.00  0.00     0.280 HD
HETATM   30  C   UNL     1     -49.562  62.435 -55.430  1.00  0.00     0.190 C 
HETATM   31  C   UNL     1     -50.846  61.888 -54.774  1.00  0.00     0.033 C 
HETATM   32  C   UNL     1     -51.885  61.425 -55.784  1.00  0.00     0.004 C 
HETATM   33  C   UNL     1     -51.294  60.385 -56.721  1.00  0.00     0.028 C 
HETATM   34  C   UNL     1     -50.060  60.930 -57.414  1.00  0.00     0.235 C 
BRANCH  30  35
HETATM   35  C   UNL     1     -48.544  62.750 -54.320  1.00  0.00     0.059 C 
BRANCH  35  36
HETATM   36  C   UNL     1     -49.186  63.095 -52.980  1.00  0.00     0.166 C 
BRANCH  36  37
HETATM   37  O   UNL     1     -48.223  62.836 -51.969  1.00  0.00    -0.401 OA
HETATM   38  H   UNL     1     -48.703  62.596 -51.155  1.00  0.00     0.209 HD
ENDBRANCH  36  37
ENDBRANCH  35  36
ENDBRANCH  30  35
ENDBRANCH  27  28
ENDBRANCH   7  27
TORSDOF 10
ENDMDL
