MODEL 1
REMARK VINA RESULT:      -8.9      0.000      0.000
REMARK  5 active torsions:
REMARK  status: ('A' for Active; 'I' for Inactive)
REMARK    1  A    between atoms: C_6  and  N_7 
REMARK       I    between atoms: N_7  and  C_8 
REMARK       I    between atoms: C_8  and  N_9 
REMARK    2  A    between atoms: N_9  and  C_10 
REMARK    3  A    between atoms: C_10  and  C_11 
REMARK    4  A    between atoms: C_14  and  N_15 
REMARK       I    between atoms: N_15  and  C_16 
REMARK    5  A    between atoms: C_16  and  C_17 
ROOT
HETATM    1  C   UNL     1     -41.921  57.586 -51.982  1.00  0.00    -0.040 A 
HETATM    2  C   UNL     1     -43.255  57.239 -52.219  1.00  0.00     0.011 A 
HETATM    3  C   UNL     1     -43.742  57.117 -53.524  1.00  0.00     0.030 A 
HETATM    4  C   UNL     1     -42.902  57.326 -54.617  1.00  0.00     0.035 A 
HETATM    5  C   UNL     1     -41.568  57.678 -54.383  1.00  0.00     0.030 A 
HETATM    6  C   UNL     1     -41.079  57.807 -53.079  1.00  0.00     0.011 A 
ENDROOT
BRANCH   1   7
HETATM    7  C   UNL     1     -41.385  57.646 -50.577  1.00  0.00     0.162 C 
BRANCH   7   8
HETATM    8  N   UNL     1     -41.702  56.430 -49.861  1.00  0.00    -0.339 N 
HETATM    9  C   UNL     1     -41.559  55.134 -50.256  1.00  0.00     0.320 C 
HETATM   10  N   UNL     1     -40.757  54.926 -51.343  1.00  0.00    -0.309 N 
HETATM   11  O   UNL     1     -42.147  54.276 -49.607  1.00  0.00    -0.247 OA
HETATM   12  H   UNL     1     -40.188  55.705 -51.631  1.00  0.00     0.170 HD
HETATM   13  H   UNL     1     -42.340  56.508 -49.078  1.00  0.00     0.164 HD
BRANCH  10  14
HETATM   14  C   UNL     1     -40.477  53.697 -51.980  1.00  0.00     0.037 A 
HETATM   15  C   UNL     1     -40.134  52.527 -51.302  1.00  0.00     0.049 A 
HETATM   16  C   UNL     1     -39.864  51.348 -52.010  1.00  0.00     0.019 A 
HETATM   17  C   UNL     1     -39.932  51.316 -53.411  1.00  0.00    -0.044 A 
HETATM   18 BR   UNL     1     -39.406  49.804 -50.998  1.00  0.00    -0.051 Br
HETATM   19  C   UNL     1     -39.641  50.075 -54.206  1.00  0.00     0.049 C 
HETATM   20  C   UNL     1     -40.292  52.491 -54.083  1.00  0.00     0.010 A 
HETATM   21  C   UNL     1     -40.565  53.666 -53.376  1.00  0.00     0.030 A 
ENDBRANCH  10  14
ENDBRANCH   7   8
ENDBRANCH   1   7
BRANCH   4  22
HETATM   22  N   UNL     1     -43.302  57.175 -55.957  1.00  0.00    -0.321 N 
HETATM   23  C   UNL     1     -43.037  56.126 -56.821  1.00  0.00     0.279 C 
HETATM   24  O   UNL     1     -42.453  55.089 -56.526  1.00  0.00    -0.265 OA
HETATM   25  H   UNL     1     -43.830  57.937 -56.370  1.00  0.00     0.169 HD
BRANCH  23  26
HETATM   26  C   UNL     1     -43.533  56.374 -58.164  1.00  0.00     0.142 A 
HETATM   27  O   UNL     1     -44.467  57.360 -58.369  1.00  0.00    -0.317 OA
HETATM   28  C   UNL     1     -44.732  57.387 -59.701  1.00  0.00     0.143 A 
HETATM   29  C   UNL     1     -43.992  56.435 -60.362  1.00  0.00     0.027 A 
HETATM   30  C   UNL     1     -43.220  55.781 -59.373  1.00  0.00     0.045 A 
ENDBRANCH  23  26
ENDBRANCH   4  22
TORSDOF 5
ENDMDL
MODEL 2
REMARK VINA RESULT:      -8.7      1.334      1.692
REMARK  5 active torsions:
REMARK  status: ('A' for Active; 'I' for Inactive)
REMARK    1  A    between atoms: C_6  and  N_7 
REMARK       I    between atoms: N_7  and  C_8 
REMARK       I    between atoms: C_8  and  N_9 
REMARK    2  A    between atoms: N_9  and  C_10 
REMARK    3  A    between atoms: C_10  and  C_11 
REMARK    4  A    between atoms: C_14  and  N_15 
REMARK       I    between atoms: N_15  and  C_16 
REMARK    5  A    between atoms: C_16  and  C_17 
ROOT
HETATM    1  C   UNL     1     -42.490  57.635 -52.774  1.00  0.00    -0.040 A 
HETATM    2  C   UNL     1     -43.887  57.639 -52.845  1.00  0.00     0.011 A 
HETATM    3  C   UNL     1     -44.542  57.483 -54.071  1.00  0.00     0.030 A 
HETATM    4  C   UNL     1     -43.813  57.306 -55.246  1.00  0.00     0.035 A 
HETATM    5  C   UNL     1     -42.415  57.307 -55.179  1.00  0.00     0.030 A 
HETATM    6  C   UNL     1     -41.757  57.469 -53.955  1.00  0.00     0.011 A 
ENDROOT
BRANCH   1   7
HETATM    7  C   UNL     1     -41.792  57.732 -51.443  1.00  0.00     0.162 C 
BRANCH   7   8
HETATM    8  N   UNL     1     -42.090  56.574 -50.630  1.00  0.00    -0.339 N 
HETATM    9  C   UNL     1     -41.861  55.256 -50.888  1.00  0.00     0.320 C 
HETATM   10  N   UNL     1     -40.991  54.990 -51.908  1.00  0.00    -0.309 N 
HETATM   11  O   UNL     1     -42.443  54.433 -50.190  1.00  0.00    -0.247 OA
HETATM   12  H   UNL     1     -40.445  55.767 -52.240  1.00  0.00     0.170 HD
HETATM   13  H   UNL     1     -42.774  56.691 -49.891  1.00  0.00     0.164 HD
BRANCH  10  14
HETATM   14  C   UNL     1     -40.616  53.723 -52.407  1.00  0.00     0.037 A 
HETATM   15  C   UNL     1     -40.265  52.639 -51.600  1.00  0.00     0.049 A 
HETATM   16  C   UNL     1     -39.897  51.415 -52.176  1.00  0.00     0.019 A 
HETATM   17  C   UNL     1     -39.874  51.250 -53.569  1.00  0.00    -0.044 A 
HETATM   18 BR   UNL     1     -39.436  49.996 -50.996  1.00  0.00    -0.051 Br
HETATM   19  C   UNL     1     -39.477  49.957 -54.223  1.00  0.00     0.049 C 
HETATM   20  C   UNL     1     -40.242  52.338 -54.370  1.00  0.00     0.010 A 
HETATM   21  C   UNL     1     -40.612  53.558 -53.796  1.00  0.00     0.030 A 
ENDBRANCH  10  14
ENDBRANCH   7   8
ENDBRANCH   1   7
BRANCH   4  22
HETATM   22  N   UNL     1     -44.396  57.094 -56.509  1.00  0.00    -0.321 N 
HETATM   23  C   UNL     1     -44.922  58.031 -57.382  1.00  0.00     0.279 C 
HETATM   24  O   UNL     1     -44.897  59.247 -57.222  1.00  0.00    -0.265 OA
HETATM   25  H   UNL     1     -44.476  56.134 -56.826  1.00  0.00     0.169 HD
BRANCH  23  26
HETATM   26  C   UNL     1     -45.530  57.421 -58.552  1.00  0.00     0.142 A 
HETATM   27  O   UNL     1     -44.762  56.653 -59.391  1.00  0.00    -0.317 OA
HETATM   28  C   UNL     1     -45.579  56.197 -60.375  1.00  0.00     0.143 A 
HETATM   29  C   UNL     1     -46.861  56.659 -60.193  1.00  0.00     0.027 A 
HETATM   30  C   UNL     1     -46.831  57.449 -59.019  1.00  0.00     0.045 A 
ENDBRANCH  23  26
ENDBRANCH   4  22
TORSDOF 5
ENDMDL
MODEL 3
REMARK VINA RESULT:      -8.5      5.602      9.267
REMARK  5 active torsions:
REMARK  status: ('A' for Active; 'I' for Inactive)
REMARK    1  A    between atoms: C_6  and  N_7 
REMARK       I    between atoms: N_7  and  C_8 
REMARK       I    between atoms: C_8  and  N_9 
REMARK    2  A    between atoms: N_9  and  C_10 
REMARK    3  A    between atoms: C_10  and  C_11 
REMARK    4  A    between atoms: C_14  and  N_15 
REMARK       I    between atoms: N_15  and  C_16 
REMARK    5  A    between atoms: C_16  and  C_17 
ROOT
HETATM    1  C   UNL     1     -42.437  57.523 -51.594  1.00  0.00    -0.040 A 
HETATM    2  C   UNL     1     -41.605  57.398 -52.712  1.00  0.00     0.011 A 
HETATM    3  C   UNL     1     -41.136  56.144 -53.118  1.00  0.00     0.030 A 
HETATM    4  C   UNL     1     -41.503  54.991 -52.424  1.00  0.00     0.035 A 
HETATM    5  C   UNL     1     -42.331  55.115 -51.302  1.00  0.00     0.030 A 
HETATM    6  C   UNL     1     -42.796  56.368 -50.890  1.00  0.00     0.011 A 
ENDROOT
BRANCH   1   7
HETATM    7  C   UNL     1     -42.995  58.866 -51.205  1.00  0.00     0.162 C 
BRANCH   7   8
HETATM    8  N   UNL     1     -44.435  58.802 -51.086  1.00  0.00    -0.339 N 
HETATM    9  C   UNL     1     -45.260  59.454 -50.220  1.00  0.00     0.320 C 
HETATM   10  N   UNL     1     -44.711  60.518 -49.560  1.00  0.00    -0.309 N 
HETATM   11  O   UNL     1     -46.409  59.041 -50.112  1.00  0.00    -0.247 OA
HETATM   12  H   UNL     1     -43.829  60.852 -49.911  1.00  0.00     0.170 HD
HETATM   13  H   UNL     1     -44.898  58.004 -51.505  1.00  0.00     0.164 HD
BRANCH  10  14
HETATM   14  C   UNL     1     -45.327  61.331 -48.583  1.00  0.00     0.037 A 
HETATM   15  C   UNL     1     -46.377  62.211 -48.850  1.00  0.00     0.049 A 
HETATM   16  C   UNL     1     -46.929  62.990 -47.823  1.00  0.00     0.019 A 
HETATM   17  C   UNL     1     -46.443  62.904 -46.510  1.00  0.00    -0.044 A 
HETATM   18 BR   UNL     1     -48.358  64.159 -48.283  1.00  0.00    -0.051 Br
HETATM   19  C   UNL     1     -47.002  63.729 -45.386  1.00  0.00     0.049 C 
HETATM   20  C   UNL     1     -45.398  62.008 -46.249  1.00  0.00     0.010 A 
HETATM   21  C   UNL     1     -44.850  61.229 -47.272  1.00  0.00     0.030 A 
ENDBRANCH  10  14
ENDBRANCH   7   8
ENDBRANCH   1   7
BRANCH   4  22
HETATM   22  N   UNL     1     -41.115  53.692 -52.797  1.00  0.00    -0.321 N 
HETATM   23  C   UNL     1     -40.222  52.845 -52.162  1.00  0.00     0.279 C 
HETATM   24  O   UNL     1     -39.662  53.070 -51.095  1.00  0.00    -0.265 OA
HETATM   25  H   UNL     1     -41.507  53.320 -53.655  1.00  0.00     0.169 HD
BRANCH  23  26
HETATM   26  C   UNL     1     -39.999  51.615 -52.903  1.00  0.00     0.142 A 
HETATM   27  O   UNL     1     -39.532  50.504 -52.245  1.00  0.00    -0.317 OA
HETATM   28  C   UNL     1     -39.437  49.507 -53.163  1.00  0.00     0.143 A 
HETATM   29  C   UNL     1     -39.829  49.952 -54.403  1.00  0.00     0.027 A 
HETATM   30  C   UNL     1     -40.190  51.310 -54.237  1.00  0.00     0.045 A 
ENDBRANCH  23  26
ENDBRANCH   4  22
TORSDOF 5
ENDMDL
MODEL 4
REMARK VINA RESULT:      -8.3      3.706      6.757
REMARK  5 active torsions:
REMARK  status: ('A' for Active; 'I' for Inactive)
REMARK    1  A    between atoms: C_6  and  N_7 
REMARK       I    between atoms: N_7  and  C_8 
REMARK       I    between atoms: C_8  and  N_9 
REMARK    2  A    between atoms: N_9  and  C_10 
REMARK    3  A    between atoms: C_10  and  C_11 
REMARK    4  A    between atoms: C_14  and  N_15 
REMARK       I    between atoms: N_15  and  C_16 
REMARK    5  A    between atoms: C_16  and  C_17 
ROOT
HETATM    1  C   UNL     1     -42.459  58.136 -53.563  1.00  0.00    -0.040 A 
HETATM    2  C   UNL     1     -41.725  59.127 -52.902  1.00  0.00     0.011 A 
HETATM    3  C   UNL     1     -42.225  59.736 -51.746  1.00  0.00     0.030 A 
HETATM    4  C   UNL     1     -43.460  59.357 -51.222  1.00  0.00     0.035 A 
HETATM    5  C   UNL     1     -44.198  58.369 -51.885  1.00  0.00     0.030 A 
HETATM    6  C   UNL     1     -43.704  57.763 -53.044  1.00  0.00     0.011 A 
ENDROOT
BRANCH   1   7
HETATM    7  C   UNL     1     -41.885  57.434 -54.765  1.00  0.00     0.162 C 
BRANCH   7   8
HETATM    8  N   UNL     1     -42.599  56.203 -55.022  1.00  0.00    -0.339 N 
HETATM    9  C   UNL     1     -42.295  54.932 -54.637  1.00  0.00     0.320 C 
HETATM   10  N   UNL     1     -41.359  54.816 -53.648  1.00  0.00    -0.309 N 
HETATM   11  O   UNL     1     -42.883  54.014 -55.199  1.00  0.00    -0.247 OA
HETATM   12  H   UNL     1     -41.128  55.662 -53.154  1.00  0.00     0.170 HD
HETATM   13  H   UNL     1     -43.267  56.207 -55.784  1.00  0.00     0.164 HD
BRANCH  10  14
HETATM   14  C   UNL     1     -40.834  53.625 -53.100  1.00  0.00     0.037 A 
HETATM   15  C   UNL     1     -40.471  52.511 -53.857  1.00  0.00     0.049 A 
HETATM   16  C   UNL     1     -39.963  51.363 -53.234  1.00  0.00     0.019 A 
HETATM   17  C   UNL     1     -39.808  51.306 -51.841  1.00  0.00    -0.044 A 
HETATM   18 BR   UNL     1     -39.495  49.895 -54.350  1.00  0.00    -0.051 Br
HETATM   19  C   UNL     1     -39.276  50.091 -51.136  1.00  0.00     0.049 C 
HETATM   20  C   UNL     1     -40.161  52.434 -51.089  1.00  0.00     0.010 A 
HETATM   21  C   UNL     1     -40.664  53.581 -51.712  1.00  0.00     0.030 A 
ENDBRANCH  10  14
ENDBRANCH   7   8
ENDBRANCH   1   7
BRANCH   4  22
HETATM   22  N   UNL     1     -44.008  59.886 -50.039  1.00  0.00    -0.321 N 
HETATM   23  C   UNL     1     -45.285  60.378 -49.828  1.00  0.00     0.279 C 
HETATM   24  O   UNL     1     -46.199  60.364 -50.646  1.00  0.00    -0.265 OA
HETATM   25  H   UNL     1     -43.395  59.949 -49.234  1.00  0.00     0.169 HD
BRANCH  23  26
HETATM   26  C   UNL     1     -45.453  60.935 -48.497  1.00  0.00     0.142 A 
HETATM   27  O   UNL     1     -46.075  60.189 -47.525  1.00  0.00    -0.317 OA
HETATM   28  C   UNL     1     -46.076  60.935 -46.390  1.00  0.00     0.143 A 
HETATM   29  C   UNL     1     -45.472  62.151 -46.609  1.00  0.00     0.027 A 
HETATM   30  C   UNL     1     -45.072  62.152 -47.966  1.00  0.00     0.045 A 
ENDBRANCH  23  26
ENDBRANCH   4  22
TORSDOF 5
ENDMDL
MODEL 5
REMARK VINA RESULT:      -8.1      2.617      3.966
REMARK  5 active torsions:
REMARK  status: ('A' for Active; 'I' for Inactive)
REMARK    1  A    between atoms: C_6  and  N_7 
REMARK       I    between atoms: N_7  and  C_8 
REMARK       I    between atoms: C_8  and  N_9 
REMARK    2  A    between atoms: N_9  and  C_10 
REMARK    3  A    between atoms: C_10  and  C_11 
REMARK    4  A    between atoms: C_14  and  N_15 
REMARK       I    between atoms: N_15  and  C_16 
REMARK    5  A    between atoms: C_16  and  C_17 
ROOT
HETATM    1  C   UNL     1     -43.004  57.355 -56.245  1.00  0.00    -0.040 A 
HETATM    2  C   UNL     1     -44.248  57.914 -55.929  1.00  0.00     0.011 A 
HETATM    3  C   UNL     1     -45.234  58.065 -56.909  1.00  0.00     0.030 A 
HETATM    4  C   UNL     1     -45.002  57.647 -58.219  1.00  0.00     0.035 A 
HETATM    5  C   UNL     1     -43.757  57.092 -58.538  1.00  0.00     0.030 A 
HETATM    6  C   UNL     1     -42.767  56.946 -57.562  1.00  0.00     0.011 A 
ENDROOT
BRANCH   1   7
HETATM    7  C   UNL     1     -41.974  57.129 -55.171  1.00  0.00     0.162 C 
BRANCH   7   8
HETATM    8  N   UNL     1     -42.599  56.637 -53.963  1.00  0.00    -0.339 N 
HETATM    9  C   UNL     1     -42.348  55.494 -53.266  1.00  0.00     0.320 C 
HETATM   10  N   UNL     1     -41.174  54.859 -53.563  1.00  0.00    -0.309 N 
HETATM   11  O   UNL     1     -43.180  55.141 -52.437  1.00  0.00    -0.247 OA
HETATM   12  H   UNL     1     -40.512  55.383 -54.110  1.00  0.00     0.170 HD
HETATM   13  H   UNL     1     -43.502  57.026 -53.718  1.00  0.00     0.164 HD
BRANCH  10  14
HETATM   14  C   UNL     1     -40.696  53.644 -53.024  1.00  0.00     0.037 A 
HETATM   15  C   UNL     1     -40.400  52.515 -53.788  1.00  0.00     0.049 A 
HETATM   16  C   UNL     1     -39.935  51.344 -53.174  1.00  0.00     0.019 A 
HETATM   17  C   UNL     1     -39.756  51.279 -51.784  1.00  0.00    -0.044 A 
HETATM   18 BR   UNL     1     -39.556  49.856 -54.298  1.00  0.00    -0.051 Br
HETATM   19  C   UNL     1     -39.269  50.040 -51.089  1.00  0.00     0.049 C 
HETATM   20  C   UNL     1     -40.042  52.422 -51.026  1.00  0.00     0.010 A 
HETATM   21  C   UNL     1     -40.503  53.591 -51.640  1.00  0.00     0.030 A 
ENDBRANCH  10  14
ENDBRANCH   7   8
ENDBRANCH   1   7
BRANCH   4  22
HETATM   22  N   UNL     1     -45.957  57.720 -59.249  1.00  0.00    -0.321 N 
HETATM   23  C   UNL     1     -46.393  56.711 -60.091  1.00  0.00     0.279 C 
HETATM   24  O   UNL     1     -46.058  55.533 -60.025  1.00  0.00    -0.265 OA
HETATM   25  H   UNL     1     -46.371  58.627 -59.432  1.00  0.00     0.169 HD
BRANCH  23  26
HETATM   26  C   UNL     1     -47.319  57.191 -61.102  1.00  0.00     0.142 A 
HETATM   27  O   UNL     1     -47.860  56.304 -62.000  1.00  0.00    -0.317 OA
HETATM   28  C   UNL     1     -48.696  57.010 -62.805  1.00  0.00     0.143 A 
HETATM   29  C   UNL     1     -48.703  58.338 -62.449  1.00  0.00     0.027 A 
HETATM   30  C   UNL     1     -47.815  58.456 -61.353  1.00  0.00     0.045 A 
ENDBRANCH  23  26
ENDBRANCH   4  22
TORSDOF 5
ENDMDL
MODEL 6
REMARK VINA RESULT:      -8.1     14.908     16.824
REMARK  5 active torsions:
REMARK  status: ('A' for Active; 'I' for Inactive)
REMARK    1  A    between atoms: C_6  and  N_7 
REMARK       I    between atoms: N_7  and  C_8 
REMARK       I    between atoms: C_8  and  N_9 
REMARK    2  A    between atoms: N_9  and  C_10 
REMARK    3  A    between atoms: C_10  and  C_11 
REMARK    4  A    between atoms: C_14  and  N_15 
REMARK       I    between atoms: N_15  and  C_16 
REMARK    5  A    between atoms: C_16  and  C_17 
ROOT
HETATM    1  C   UNL     1     -36.149  41.362 -56.967  1.00  0.00    -0.040 A 
HETATM    2  C   UNL     1     -36.709  40.141 -56.574  1.00  0.00     0.011 A 
HETATM    3  C   UNL     1     -37.632  39.482 -57.392  1.00  0.00     0.030 A 
HETATM    4  C   UNL     1     -38.001  40.022 -58.623  1.00  0.00     0.035 A 
HETATM    5  C   UNL     1     -37.446  41.245 -59.016  1.00  0.00     0.030 A 
HETATM    6  C   UNL     1     -36.528  41.910 -58.198  1.00  0.00     0.011 A 
ENDROOT
BRANCH   1   7
HETATM    7  C   UNL     1     -35.103  42.031 -56.115  1.00  0.00     0.162 C 
BRANCH   7   8
HETATM    8  N   UNL     1     -35.688  42.525 -54.889  1.00  0.00    -0.339 N 
HETATM    9  C   UNL     1     -35.486  42.109 -53.607  1.00  0.00     0.320 C 
HETATM   10  N   UNL     1     -34.389  41.320 -53.402  1.00  0.00    -0.309 N 
HETATM   11  O   UNL     1     -36.290  42.478 -52.758  1.00  0.00    -0.247 OA
HETATM   12  H   UNL     1     -33.723  41.281 -54.155  1.00  0.00     0.170 HD
HETATM   13  H   UNL     1     -36.539  43.069 -54.968  1.00  0.00     0.164 HD
BRANCH  10  14
HETATM   14  C   UNL     1     -33.977  40.723 -52.191  1.00  0.00     0.037 A 
HETATM   15  C   UNL     1     -34.836  40.049 -51.320  1.00  0.00     0.049 A 
HETATM   16  C   UNL     1     -34.347  39.489 -50.132  1.00  0.00     0.019 A 
HETATM   17  C   UNL     1     -32.991  39.591 -49.790  1.00  0.00    -0.044 A 
HETATM   18 BR   UNL     1     -35.594  38.590 -49.011  1.00  0.00    -0.051 Br
HETATM   19  C   UNL     1     -32.432  39.012 -48.522  1.00  0.00     0.049 C 
HETATM   20  C   UNL     1     -32.133  40.256 -50.676  1.00  0.00     0.010 A 
HETATM   21  C   UNL     1     -32.620  40.811 -51.863  1.00  0.00     0.030 A 
ENDBRANCH  10  14
ENDBRANCH   7   8
ENDBRANCH   1   7
BRANCH   4  22
HETATM   22  N   UNL     1     -38.884  39.397 -59.523  1.00  0.00    -0.321 N 
HETATM   23  C   UNL     1     -38.587  38.506 -60.540  1.00  0.00     0.279 C 
HETATM   24  O   UNL     1     -37.477  38.044 -60.783  1.00  0.00    -0.265 OA
HETATM   25  H   UNL     1     -39.866  39.640 -59.452  1.00  0.00     0.169 HD
BRANCH  23  26
HETATM   26  C   UNL     1     -39.756  38.151 -61.328  1.00  0.00     0.142 A 
HETATM   27  O   UNL     1     -40.994  38.140 -60.733  1.00  0.00    -0.317 OA
HETATM   28  C   UNL     1     -41.894  37.800 -61.692  1.00  0.00     0.143 A 
HETATM   29  C   UNL     1     -41.262  37.586 -62.895  1.00  0.00     0.027 A 
HETATM   30  C   UNL     1     -39.885  37.811 -62.661  1.00  0.00     0.045 A 
ENDBRANCH  23  26
ENDBRANCH   4  22
TORSDOF 5
ENDMDL
MODEL 7
REMARK VINA RESULT:      -8.0      4.299      5.501
REMARK  5 active torsions:
REMARK  status: ('A' for Active; 'I' for Inactive)
REMARK    1  A    between atoms: C_6  and  N_7 
REMARK       I    between atoms: N_7  and  C_8 
REMARK       I    between atoms: C_8  and  N_9 
REMARK    2  A    between atoms: N_9  and  C_10 
REMARK    3  A    between atoms: C_10  and  C_11 
REMARK    4  A    between atoms: C_14  and  N_15 
REMARK       I    between atoms: N_15  and  C_16 
REMARK    5  A    between atoms: C_16  and  C_17 
ROOT
HETATM    1  C   UNL     1     -42.582  58.619 -51.098  1.00  0.00    -0.040 A 
HETATM    2  C   UNL     1     -42.523  60.009 -50.944  1.00  0.00     0.011 A 
HETATM    3  C   UNL     1     -43.669  60.795 -51.103  1.00  0.00     0.030 A 
HETATM    4  C   UNL     1     -44.896  60.207 -51.404  1.00  0.00     0.035 A 
HETATM    5  C   UNL     1     -44.957  58.818 -51.563  1.00  0.00     0.030 A 
HETATM    6  C   UNL     1     -43.812  58.029 -51.411  1.00  0.00     0.011 A 
ENDROOT
BRANCH   1   7
HETATM    7  C   UNL     1     -41.361  57.772 -50.856  1.00  0.00     0.162 C 
BRANCH   7   8
HETATM    8  N   UNL     1     -41.713  56.571 -50.130  1.00  0.00    -0.339 N 
HETATM    9  C   UNL     1     -41.588  55.268 -50.505  1.00  0.00     0.320 C 
HETATM   10  N   UNL     1     -40.772  55.031 -51.576  1.00  0.00    -0.309 N 
HETATM   11  O   UNL     1     -42.203  54.429 -49.855  1.00  0.00    -0.247 OA
HETATM   12  H   UNL     1     -40.183  55.795 -51.864  1.00  0.00     0.170 HD
HETATM   13  H   UNL     1     -42.363  56.671 -49.359  1.00  0.00     0.164 HD
BRANCH  10  14
HETATM   14  C   UNL     1     -40.504  53.789 -52.192  1.00  0.00     0.037 A 
HETATM   15  C   UNL     1     -40.163  52.629 -51.494  1.00  0.00     0.049 A 
HETATM   16  C   UNL     1     -39.905  51.436 -52.183  1.00  0.00     0.019 A 
HETATM   17  C   UNL     1     -39.984  51.377 -53.582  1.00  0.00    -0.044 A 
HETATM   18 BR   UNL     1     -39.449  49.907 -51.145  1.00  0.00    -0.051 Br
HETATM   19  C   UNL     1     -39.706  50.120 -54.355  1.00  0.00     0.049 C 
HETATM   20  C   UNL     1     -40.340  52.542 -54.273  1.00  0.00     0.010 A 
HETATM   21  C   UNL     1     -40.601  53.732 -53.586  1.00  0.00     0.030 A 
ENDBRANCH  10  14
ENDBRANCH   7   8
ENDBRANCH   1   7
BRANCH   4  22
HETATM   22  N   UNL     1     -46.101  60.923 -51.531  1.00  0.00    -0.321 N 
HETATM   23  C   UNL     1     -46.670  61.452 -52.676  1.00  0.00     0.279 C 
HETATM   24  O   UNL     1     -46.239  61.316 -53.816  1.00  0.00    -0.265 OA
HETATM   25  H   UNL     1     -46.620  61.109 -50.679  1.00  0.00     0.169 HD
BRANCH  23  26
HETATM   26  C   UNL     1     -47.874  62.216 -52.397  1.00  0.00     0.142 A 
HETATM   27  O   UNL     1     -47.879  63.113 -51.356  1.00  0.00    -0.317 OA
HETATM   28  C   UNL     1     -49.107  63.694 -51.337  1.00  0.00     0.143 A 
HETATM   29  C   UNL     1     -49.899  63.188 -52.341  1.00  0.00     0.027 A 
HETATM   30  C   UNL     1     -49.105  62.235 -53.023  1.00  0.00     0.045 A 
ENDBRANCH  23  26
ENDBRANCH   4  22
TORSDOF 5
ENDMDL
MODEL 8
REMARK VINA RESULT:      -8.0      4.223      7.119
REMARK  5 active torsions:
REMARK  status: ('A' for Active; 'I' for Inactive)
REMARK    1  A    between atoms: C_6  and  N_7 
REMARK       I    between atoms: N_7  and  C_8 
REMARK       I    between atoms: C_8  and  N_9 
REMARK    2  A    between atoms: N_9  and  C_10 
REMARK    3  A    between atoms: C_10  and  C_11 
REMARK    4  A    between atoms: C_14  and  N_15 
REMARK       I    between atoms: N_15  and  C_16 
REMARK    5  A    between atoms: C_16  and  C_17 
ROOT
HETATM    1  C   UNL     1     -41.941  59.284 -52.507  1.00  0.00    -0.040 A 
HETATM    2  C   UNL     1     -41.253  59.650 -51.344  1.00  0.00     0.011 A 
HETATM    3  C   UNL     1     -41.929  60.230 -50.265  1.00  0.00     0.030 A 
HETATM    4  C   UNL     1     -43.306  60.441 -50.322  1.00  0.00     0.035 A 
HETATM    5  C   UNL     1     -43.996  60.081 -51.486  1.00  0.00     0.030 A 
HETATM    6  C   UNL     1     -43.322  59.507 -52.569  1.00  0.00     0.011 A 
ENDROOT
BRANCH   1   7
HETATM    7  C   UNL     1     -41.221  58.596 -53.635  1.00  0.00     0.162 C 
BRANCH   7   8
HETATM    8  N   UNL     1     -42.095  57.648 -54.290  1.00  0.00    -0.339 N 
HETATM    9  C   UNL     1     -41.967  56.296 -54.410  1.00  0.00     0.320 C 
HETATM   10  N   UNL     1     -41.059  55.706 -53.576  1.00  0.00    -0.309 N 
HETATM   11  O   UNL     1     -42.673  55.732 -55.239  1.00  0.00    -0.247 OA
HETATM   12  H   UNL     1     -40.717  56.274 -52.819  1.00  0.00     0.170 HD
HETATM   13  H   UNL     1     -42.753  58.016 -54.966  1.00  0.00     0.164 HD
BRANCH  10  14
HETATM   14  C   UNL     1     -40.702  54.341 -53.524  1.00  0.00     0.037 A 
HETATM   15  C   UNL     1     -40.583  53.609 -52.342  1.00  0.00     0.049 A 
HETATM   16  C   UNL     1     -40.217  52.257 -52.377  1.00  0.00     0.019 A 
HETATM   17  C   UNL     1     -39.963  51.609 -53.595  1.00  0.00    -0.044 A 
HETATM   18 BR   UNL     1     -40.083  51.343 -50.714  1.00  0.00    -0.051 Br
HETATM   19  C   UNL     1     -39.560  50.164 -53.673  1.00  0.00     0.049 C 
HETATM   20  C   UNL     1     -40.099  52.347 -54.778  1.00  0.00     0.010 A 
HETATM   21  C   UNL     1     -40.468  53.695 -54.743  1.00  0.00     0.030 A 
ENDBRANCH  10  14
ENDBRANCH   7   8
ENDBRANCH   1   7
BRANCH   4  22
HETATM   22  N   UNL     1     -44.065  60.973 -49.263  1.00  0.00    -0.321 N 
HETATM   23  C   UNL     1     -45.298  60.554 -48.793  1.00  0.00     0.279 C 
HETATM   24  O   UNL     1     -45.916  59.572 -49.190  1.00  0.00    -0.265 OA
HETATM   25  H   UNL     1     -43.689  61.787 -48.789  1.00  0.00     0.169 HD
BRANCH  23  26
HETATM   26  C   UNL     1     -45.816  61.416 -47.745  1.00  0.00     0.142 A 
HETATM   27  O   UNL     1     -47.079  61.941 -47.865  1.00  0.00    -0.317 OA
HETATM   28  C   UNL     1     -47.311  62.681 -46.749  1.00  0.00     0.143 A 
HETATM   29  C   UNL     1     -46.220  62.650 -45.912  1.00  0.00     0.027 A 
HETATM   30  C   UNL     1     -45.256  61.836 -46.554  1.00  0.00     0.045 A 
ENDBRANCH  23  26
ENDBRANCH   4  22
TORSDOF 5
ENDMDL
MODEL 9
REMARK VINA RESULT:      -7.7      3.102      7.623
REMARK  5 active torsions:
REMARK  status: ('A' for Active; 'I' for Inactive)
REMARK    1  A    between atoms: C_6  and  N_7 
REMARK       I    between atoms: N_7  and  C_8 
REMARK       I    between atoms: C_8  and  N_9 
REMARK    2  A    between atoms: N_9  and  C_10 
REMARK    3  A    between atoms: C_10  and  C_11 
REMARK    4  A    between atoms: C_14  and  N_15 
REMARK       I    between atoms: N_15  and  C_16 
REMARK    5  A    between atoms: C_16  and  C_17 
ROOT
HETATM    1  C   UNL     1     -43.033  57.822 -52.875  1.00  0.00    -0.040 A 
HETATM    2  C   UNL     1     -41.640  57.747 -52.982  1.00  0.00     0.011 A 
HETATM    3  C   UNL     1     -40.986  56.510 -52.961  1.00  0.00     0.030 A 
HETATM    4  C   UNL     1     -41.714  55.326 -52.848  1.00  0.00     0.035 A 
HETATM    5  C   UNL     1     -43.107  55.399 -52.737  1.00  0.00     0.030 A 
HETATM    6  C   UNL     1     -43.762  56.634 -52.751  1.00  0.00     0.011 A 
ENDROOT
BRANCH   1   7
HETATM    7  C   UNL     1     -43.735  59.150 -52.969  1.00  0.00     0.162 C 
BRANCH   7   8
HETATM    8  N   UNL     1     -43.349  59.843 -54.179  1.00  0.00    -0.339 N 
HETATM    9  C   UNL     1     -43.643  59.546 -55.475  1.00  0.00     0.320 C 
HETATM   10  N   UNL     1     -44.660  58.653 -55.667  1.00  0.00    -0.309 N 
HETATM   11  O   UNL     1     -42.985  60.103 -56.347  1.00  0.00    -0.247 OA
HETATM   12  H   UNL     1     -45.230  58.450 -54.863  1.00  0.00     0.170 HD
HETATM   13  H   UNL     1     -42.561  60.477 -54.116  1.00  0.00     0.164 HD
BRANCH  10  14
HETATM   14  C   UNL     1     -45.134  58.144 -56.896  1.00  0.00     0.037 A 
HETATM   15  C   UNL     1     -44.351  57.414 -57.792  1.00  0.00     0.049 A 
HETATM   16  C   UNL     1     -44.896  56.949 -58.996  1.00  0.00     0.019 A 
HETATM   17  C   UNL     1     -46.235  57.204 -59.329  1.00  0.00    -0.044 A 
HETATM   18 BR   UNL     1     -43.752  55.961 -60.152  1.00  0.00    -0.051 Br
HETATM   19  C   UNL     1     -46.852  56.731 -60.614  1.00  0.00     0.049 C 
HETATM   20  C   UNL     1     -47.017  57.926 -58.418  1.00  0.00     0.010 A 
HETATM   21  C   UNL     1     -46.474  58.386 -57.215  1.00  0.00     0.030 A 
ENDBRANCH  10  14
ENDBRANCH   7   8
ENDBRANCH   1   7
BRANCH   4  22
HETATM   22  N   UNL     1     -41.136  54.043 -52.869  1.00  0.00    -0.321 N 
HETATM   23  C   UNL     1     -40.654  53.334 -53.957  1.00  0.00     0.279 C 
HETATM   24  O   UNL     1     -40.583  53.754 -55.107  1.00  0.00    -0.265 OA
HETATM   25  H   UNL     1     -41.083  53.545 -51.987  1.00  0.00     0.169 HD
BRANCH  23  26
HETATM   26  C   UNL     1     -40.222  51.994 -53.600  1.00  0.00     0.142 A 
HETATM   27  O   UNL     1     -39.812  51.736 -52.315  1.00  0.00    -0.317 OA
HETATM   28  C   UNL     1     -39.489  50.417 -52.256  1.00  0.00     0.143 A 
HETATM   29  C   UNL     1     -39.678  49.818 -53.480  1.00  0.00     0.027 A 
HETATM   30  C   UNL     1     -40.149  50.833 -54.346  1.00  0.00     0.045 A 
ENDBRANCH  23  26
ENDBRANCH   4  22
TORSDOF 5
ENDMDL
MODEL 10
REMARK VINA RESULT:      -7.7     15.213     18.844
REMARK  5 active torsions:
REMARK  status: ('A' for Active; 'I' for Inactive)
REMARK    1  A    between atoms: C_6  and  N_7 
REMARK       I    between atoms: N_7  and  C_8 
REMARK       I    between atoms: C_8  and  N_9 
REMARK    2  A    between atoms: N_9  and  C_10 
REMARK    3  A    between atoms: C_10  and  C_11 
REMARK    4  A    between atoms: C_14  and  N_15 
REMARK       I    between atoms: N_15  and  C_16 
REMARK    5  A    between atoms: C_16  and  C_17 
ROOT
HETATM    1  C   UNL     1     -32.666  39.763 -49.737  1.00  0.00    -0.040 A 
HETATM    2  C   UNL     1     -34.052  39.677 -49.913  1.00  0.00     0.011 A 
HETATM    3  C   UNL     1     -34.649  40.098 -51.106  1.00  0.00     0.030 A 
HETATM    4  C   UNL     1     -33.871  40.597 -52.151  1.00  0.00     0.035 A 
HETATM    5  C   UNL     1     -32.486  40.688 -51.975  1.00  0.00     0.030 A 
HETATM    6  C   UNL     1     -31.887  40.275 -50.781  1.00  0.00     0.011 A 
ENDROOT
BRANCH   1   7
HETATM    7  C   UNL     1     -32.023  39.244 -48.479  1.00  0.00     0.162 C 
BRANCH   7   8
HETATM    8  N   UNL     1     -31.054  40.192 -47.977  1.00  0.00    -0.339 N 
HETATM    9  C   UNL     1     -30.466  40.257 -46.749  1.00  0.00     0.320 C 
HETATM   10  N   UNL     1     -30.575  39.137 -45.974  1.00  0.00    -0.309 N 
HETATM   11  O   UNL     1     -29.891  41.299 -46.451  1.00  0.00    -0.247 OA
HETATM   12  H   UNL     1     -30.894  38.304 -46.441  1.00  0.00     0.170 HD
HETATM   13  H   UNL     1     -30.966  41.070 -48.474  1.00  0.00     0.164 HD
BRANCH  10  14
HETATM   14  C   UNL     1     -30.101  38.955 -44.657  1.00  0.00     0.037 A 
HETATM   15  C   UNL     1     -28.990  39.616 -44.129  1.00  0.00     0.049 A 
HETATM   16  C   UNL     1     -28.579  39.373 -42.812  1.00  0.00     0.019 A 
HETATM   17  C   UNL     1     -29.270  38.466 -41.995  1.00  0.00    -0.044 A 
HETATM   18 BR   UNL     1     -27.056  40.323 -42.181  1.00  0.00    -0.051 Br
HETATM   19  C   UNL     1     -28.854  38.173 -40.582  1.00  0.00     0.049 C 
HETATM   20  C   UNL     1     -30.391  37.817 -42.528  1.00  0.00     0.010 A 
HETATM   21  C   UNL     1     -30.804  38.062 -43.841  1.00  0.00     0.030 A 
ENDBRANCH  10  14
ENDBRANCH   7   8
ENDBRANCH   1   7
BRANCH   4  22
HETATM   22  N   UNL     1     -34.390  40.993 -53.397  1.00  0.00    -0.321 N 
HETATM   23  C   UNL     1     -35.390  41.914 -53.659  1.00  0.00     0.279 C 
HETATM   24  O   UNL     1     -35.955  42.610 -52.823  1.00  0.00    -0.265 OA
HETATM   25  H   UNL     1     -34.014  40.535 -54.221  1.00  0.00     0.169 HD
BRANCH  23  26
HETATM   26  C   UNL     1     -35.725  41.983 -55.072  1.00  0.00     0.142 A 
HETATM   27  O   UNL     1     -37.044  42.017 -55.453  1.00  0.00    -0.317 OA
HETATM   28  C   UNL     1     -37.065  42.102 -56.808  1.00  0.00     0.143 A 
HETATM   29  C   UNL     1     -35.786  42.119 -57.313  1.00  0.00     0.027 A 
HETATM   30  C   UNL     1     -34.922  42.041 -56.195  1.00  0.00     0.045 A 
ENDBRANCH  23  26
ENDBRANCH   4  22
TORSDOF 5
ENDMDL
