MODEL 1
REMARK VINA RESULT:      -7.1      0.000      0.000
REMARK  5 active torsions:
REMARK  status: ('A' for Active; 'I' for Inactive)
REMARK    1  A    between atoms: C_2  and  C_3 
REMARK    2  A    between atoms: C_3  and  N_4 
REMARK    3  A    between atoms: C_3  and  C_19 
REMARK       I    between atoms: N_4  and  C_5 
REMARK    4  A    between atoms: C_5  and  C_6 
REMARK    5  A    between atoms: C_7  and  C_8 
ROOT
HETATM    1  N   UNL     1     -41.473  54.031 -51.938  1.00  0.00    -0.345 N 
HETATM    2  C   UNL     1     -42.827  54.236 -52.028  1.00  0.00     0.255 C 
HETATM    3  O   UNL     1     -43.618  53.786 -51.204  1.00  0.00    -0.268 OA
HETATM    4  H   UNL     1     -40.879  54.280 -52.715  1.00  0.00     0.163 HD
ENDROOT
BRANCH   2   5
HETATM    5  C   UNL     1     -43.247  55.047 -53.160  1.00  0.00     0.075 A 
HETATM    6  C   UNL     1     -43.579  56.438 -53.175  1.00  0.00     0.076 A 
HETATM    7  N   UNL     1     -43.927  56.842 -54.407  1.00  0.00    -0.178 NA
HETATM    8  N   UNL     1     -43.828  55.744 -55.162  1.00  0.00    -0.288 N 
HETATM    9  H   UNL     1     -44.060  55.819 -56.147  1.00  0.00     0.188 HD
HETATM   10  C   UNL     1     -43.415  54.645 -54.473  1.00  0.00     0.128 A 
BRANCH   6  11
HETATM   11  C   UNL     1     -43.548  57.407 -52.009  1.00  0.00     0.040 C 
HETATM   12  C   UNL     1     -42.227  57.324 -51.219  1.00  0.00     0.011 C 
HETATM   13  C   UNL     1     -41.070  58.027 -51.922  1.00  0.00     0.001 C 
HETATM   14  C   UNL     1     -41.403  59.487 -52.209  1.00  0.00     0.000 C 
HETATM   15  C   UNL     1     -42.687  59.619 -53.019  1.00  0.00     0.001 C 
HETATM   16  C   UNL     1     -43.859  58.873 -52.375  1.00  0.00     0.011 C 
ENDBRANCH   6  11
ENDBRANCH   2   5
BRANCH   1  17
HETATM   17  C   UNL     1     -40.888  53.210 -50.896  1.00  0.00     0.154 C 
BRANCH  17  18
HETATM   18  C   UNL     1     -39.813  53.983 -50.121  1.00  0.00     0.028 C 
HETATM   19  C   UNL     1     -40.199  54.204 -48.664  1.00  0.00     0.007 C 
ENDBRANCH  17  18
BRANCH  17  20
HETATM   20  C   UNL     1     -40.323  51.992 -51.564  1.00  0.00     0.127 A 
HETATM   21  N   UNL     1     -40.195  51.766 -52.858  1.00  0.00    -0.237 NA
HETATM   22  C   UNL     1     -39.630  50.518 -52.969  1.00  0.00     0.048 A 
HETATM   23  C   UNL     1     -39.316  49.944 -54.295  1.00  0.00     0.072 C 
HETATM   24  C   UNL     1     -39.433  49.971 -51.720  1.00  0.00     0.116 A 
HETATM   25  N   UNL     1     -39.890  50.909 -50.838  1.00  0.00    -0.351 N 
HETATM   26  H   UNL     1     -39.930  50.830 -49.829  1.00  0.00     0.166 HD
ENDBRANCH  17  20
ENDBRANCH   1  17
TORSDOF 5
ENDMDL
MODEL 2
REMARK VINA RESULT:      -7.1      1.705      3.173
REMARK  5 active torsions:
REMARK  status: ('A' for Active; 'I' for Inactive)
REMARK    1  A    between atoms: C_2  and  C_3 
REMARK    2  A    between atoms: C_3  and  N_4 
REMARK    3  A    between atoms: C_3  and  C_19 
REMARK       I    between atoms: N_4  and  C_5 
REMARK    4  A    between atoms: C_5  and  C_6 
REMARK    5  A    between atoms: C_7  and  C_8 
ROOT
HETATM    1  N   UNL     1     -40.715  55.228 -51.476  1.00  0.00    -0.345 N 
HETATM    2  C   UNL     1     -41.686  56.196 -51.407  1.00  0.00     0.255 C 
HETATM    3  O   UNL     1     -42.574  56.179 -50.559  1.00  0.00    -0.268 OA
HETATM    4  H   UNL     1     -40.104  55.193 -52.278  1.00  0.00     0.163 HD
ENDROOT
BRANCH   2   5
HETATM    5  C   UNL     1     -41.564  57.254 -52.397  1.00  0.00     0.075 A 
HETATM    6  C   UNL     1     -42.329  57.437 -53.593  1.00  0.00     0.076 A 
HETATM    7  N   UNL     1     -41.928  58.528 -54.264  1.00  0.00    -0.178 NA
HETATM    8  N   UNL     1     -40.931  59.030 -53.527  1.00  0.00    -0.288 N 
HETATM    9  H   UNL     1     -40.466  59.868 -53.861  1.00  0.00     0.188 HD
HETATM   10  C   UNL     1     -40.679  58.316 -52.396  1.00  0.00     0.128 A 
BRANCH   6  11
HETATM   11  C   UNL     1     -43.470  56.577 -54.099  1.00  0.00     0.040 C 
HETATM   12  C   UNL     1     -43.963  57.025 -55.488  1.00  0.00     0.011 C 
HETATM   13  C   UNL     1     -43.039  56.583 -56.619  1.00  0.00     0.001 C 
HETATM   14  C   UNL     1     -42.840  55.072 -56.610  1.00  0.00     0.000 C 
HETATM   15  C   UNL     1     -42.319  54.583 -55.264  1.00  0.00     0.001 C 
HETATM   16  C   UNL     1     -43.189  55.060 -54.097  1.00  0.00     0.011 C 
ENDBRANCH   6  11
ENDBRANCH   2   5
BRANCH   1  17
HETATM   17  C   UNL     1     -40.713  54.078 -50.592  1.00  0.00     0.154 C 
BRANCH  17  18
HETATM   18  C   UNL     1     -39.751  54.289 -49.416  1.00  0.00     0.028 C 
HETATM   19  C   UNL     1     -40.431  54.075 -48.069  1.00  0.00     0.007 C 
ENDBRANCH  17  18
BRANCH  17  20
HETATM   20  C   UNL     1     -40.326  52.890 -51.421  1.00  0.00     0.127 A 
HETATM   21  N   UNL     1     -40.435  52.746 -52.728  1.00  0.00    -0.237 NA
HETATM   22  C   UNL     1     -39.952  51.491 -53.011  1.00  0.00     0.048 A 
HETATM   23  C   UNL     1     -39.898  50.995 -54.403  1.00  0.00     0.072 C 
HETATM   24  C   UNL     1     -39.565  50.856 -51.851  1.00  0.00     0.116 A 
HETATM   25  N   UNL     1     -39.821  51.748 -50.848  1.00  0.00    -0.351 N 
HETATM   26  H   UNL     1     -39.688  51.604 -49.854  1.00  0.00     0.166 HD
ENDBRANCH  17  20
ENDBRANCH   1  17
TORSDOF 5
ENDMDL
MODEL 3
REMARK VINA RESULT:      -6.9      1.864      3.283
REMARK  5 active torsions:
REMARK  status: ('A' for Active; 'I' for Inactive)
REMARK    1  A    between atoms: C_2  and  C_3 
REMARK    2  A    between atoms: C_3  and  N_4 
REMARK    3  A    between atoms: C_3  and  C_19 
REMARK       I    between atoms: N_4  and  C_5 
REMARK    4  A    between atoms: C_5  and  C_6 
REMARK    5  A    between atoms: C_7  and  C_8 
ROOT
HETATM    1  N   UNL     1     -41.352  53.394 -54.262  1.00  0.00    -0.345 N 
HETATM    2  C   UNL     1     -40.975  54.530 -54.934  1.00  0.00     0.255 C 
HETATM    3  O   UNL     1     -39.799  54.817 -55.135  1.00  0.00    -0.268 OA
HETATM    4  H   UNL     1     -42.315  53.278 -53.981  1.00  0.00     0.163 HD
ENDROOT
BRANCH   2   5
HETATM    5  C   UNL     1     -42.078  55.351 -55.410  1.00  0.00     0.075 A 
HETATM    6  C   UNL     1     -42.805  56.354 -54.694  1.00  0.00     0.076 A 
HETATM    7  N   UNL     1     -43.761  56.902 -55.461  1.00  0.00    -0.178 NA
HETATM    8  N   UNL     1     -43.657  56.268 -56.633  1.00  0.00    -0.288 N 
HETATM    9  H   UNL     1     -44.303  56.522 -57.373  1.00  0.00     0.188 HD
HETATM   10  C   UNL     1     -42.661  55.340 -56.664  1.00  0.00     0.128 A 
BRANCH   6  11
HETATM   11  C   UNL     1     -42.581  56.815 -53.267  1.00  0.00     0.040 C 
HETATM   12  C   UNL     1     -41.151  57.343 -53.046  1.00  0.00     0.011 C 
HETATM   13  C   UNL     1     -40.942  58.748 -53.604  1.00  0.00     0.001 C 
HETATM   14  C   UNL     1     -41.948  59.731 -53.015  1.00  0.00     0.000 C 
HETATM   15  C   UNL     1     -43.382  59.267 -53.239  1.00  0.00     0.001 C 
HETATM   16  C   UNL     1     -43.613  57.836 -52.746  1.00  0.00     0.011 C 
ENDBRANCH   6  11
ENDBRANCH   2   5
BRANCH   1  17
HETATM   17  C   UNL     1     -40.381  52.487 -53.682  1.00  0.00     0.154 C 
BRANCH  17  18
HETATM   18  C   UNL     1     -40.698  51.032 -54.049  1.00  0.00     0.028 C 
HETATM   19  C   UNL     1     -39.449  50.251 -54.442  1.00  0.00     0.007 C 
ENDBRANCH  17  18
BRANCH  17  20
HETATM   20  C   UNL     1     -40.411  52.704 -52.199  1.00  0.00     0.127 A 
HETATM   21  N   UNL     1     -40.663  53.826 -51.551  1.00  0.00    -0.237 NA
HETATM   22  C   UNL     1     -40.570  53.519 -50.214  1.00  0.00     0.048 A 
HETATM   23  C   UNL     1     -40.821  54.547 -49.181  1.00  0.00     0.072 C 
HETATM   24  C   UNL     1     -40.233  52.193 -50.052  1.00  0.00     0.116 A 
HETATM   25  N   UNL     1     -40.121  51.691 -51.318  1.00  0.00    -0.351 N 
HETATM   26  H   UNL     1     -39.853  50.750 -51.580  1.00  0.00     0.166 HD
ENDBRANCH  17  20
ENDBRANCH   1  17
TORSDOF 5
ENDMDL
MODEL 4
REMARK VINA RESULT:      -6.8      3.175      7.246
REMARK  5 active torsions:
REMARK  status: ('A' for Active; 'I' for Inactive)
REMARK    1  A    between atoms: C_2  and  C_3 
REMARK    2  A    between atoms: C_3  and  N_4 
REMARK    3  A    between atoms: C_3  and  C_19 
REMARK       I    between atoms: N_4  and  C_5 
REMARK    4  A    between atoms: C_5  and  C_6 
REMARK    5  A    between atoms: C_7  and  C_8 
ROOT
HETATM    1  N   UNL     1     -42.592  58.444 -51.896  1.00  0.00    -0.345 N 
HETATM    2  C   UNL     1     -42.441  58.231 -53.244  1.00  0.00     0.255 C 
HETATM    3  O   UNL     1     -41.845  59.019 -53.973  1.00  0.00    -0.268 OA
HETATM    4  H   UNL     1     -43.219  57.858 -51.366  1.00  0.00     0.163 HD
ENDROOT
BRANCH   2   5
HETATM    5  C   UNL     1     -43.019  56.989 -53.733  1.00  0.00     0.075 A 
HETATM    6  C   UNL     1     -42.364  55.736 -53.950  1.00  0.00     0.076 A 
HETATM    7  N   UNL     1     -43.222  54.813 -54.413  1.00  0.00    -0.178 NA
HETATM    8  N   UNL     1     -44.392  55.453 -54.499  1.00  0.00    -0.288 N 
HETATM    9  H   UNL     1     -45.195  54.937 -54.844  1.00  0.00     0.188 HD
HETATM   10  C   UNL     1     -44.332  56.752 -54.095  1.00  0.00     0.128 A 
BRANCH   6  11
HETATM   11  C   UNL     1     -40.908  55.399 -53.696  1.00  0.00     0.040 C 
HETATM   12  C   UNL     1     -40.693  54.755 -52.313  1.00  0.00     0.011 C 
HETATM   13  C   UNL     1     -41.109  53.288 -52.269  1.00  0.00     0.001 C 
HETATM   14  C   UNL     1     -40.380  52.474 -53.332  1.00  0.00     0.000 C 
HETATM   15  C   UNL     1     -40.591  53.054 -54.725  1.00  0.00     0.001 C 
HETATM   16  C   UNL     1     -40.239  54.544 -54.792  1.00  0.00     0.011 C 
ENDBRANCH   6  11
ENDBRANCH   2   5
BRANCH   1  17
HETATM   17  C   UNL     1     -42.115  59.652 -51.252  1.00  0.00     0.154 C 
BRANCH  17  18
HETATM   18  C   UNL     1     -40.978  59.341 -50.269  1.00  0.00     0.028 C 
HETATM   19  C   UNL     1     -39.631  59.208 -50.969  1.00  0.00     0.007 C 
ENDBRANCH  17  18
BRANCH  17  20
HETATM   20  C   UNL     1     -43.292  60.273 -50.560  1.00  0.00     0.127 A 
HETATM   21  N   UNL     1     -43.348  61.444 -49.954  1.00  0.00    -0.237 NA
HETATM   22  C   UNL     1     -44.631  61.561 -49.478  1.00  0.00     0.048 A 
HETATM   23  C   UNL     1     -45.065  62.777 -48.757  1.00  0.00     0.072 C 
HETATM   24  C   UNL     1     -45.358  60.430 -49.782  1.00  0.00     0.116 A 
HETATM   25  N   UNL     1     -44.493  59.615 -50.455  1.00  0.00    -0.351 N 
HETATM   26  H   UNL     1     -44.679  58.682 -50.804  1.00  0.00     0.166 HD
ENDBRANCH  17  20
ENDBRANCH   1  17
TORSDOF 5
ENDMDL
MODEL 5
REMARK VINA RESULT:      -6.8      2.770      6.411
REMARK  5 active torsions:
REMARK  status: ('A' for Active; 'I' for Inactive)
REMARK    1  A    between atoms: C_2  and  C_3 
REMARK    2  A    between atoms: C_3  and  N_4 
REMARK    3  A    between atoms: C_3  and  C_19 
REMARK       I    between atoms: N_4  and  C_5 
REMARK    4  A    between atoms: C_5  and  C_6 
REMARK    5  A    between atoms: C_7  and  C_8 
ROOT
HETATM    1  N   UNL     1     -42.540  56.327 -54.078  1.00  0.00    -0.345 N 
HETATM    2  C   UNL     1     -43.097  56.885 -52.954  1.00  0.00     0.255 C 
HETATM    3  O   UNL     1     -44.310  56.918 -52.766  1.00  0.00    -0.268 OA
HETATM    4  H   UNL     1     -41.558  56.461 -54.267  1.00  0.00     0.163 HD
ENDROOT
BRANCH   2   5
HETATM    5  C   UNL     1     -42.137  57.410 -51.995  1.00  0.00     0.075 A 
HETATM    6  C   UNL     1     -41.664  56.795 -50.793  1.00  0.00     0.076 A 
HETATM    7  N   UNL     1     -40.782  57.583 -50.158  1.00  0.00    -0.178 NA
HETATM    8  N   UNL     1     -40.694  58.675 -50.925  1.00  0.00    -0.288 N 
HETATM    9  H   UNL     1     -40.077  59.422 -50.622  1.00  0.00     0.188 HD
HETATM   10  C   UNL     1     -41.472  58.621 -52.040  1.00  0.00     0.128 A 
BRANCH   6  11
HETATM   11  C   UNL     1     -42.038  55.431 -50.245  1.00  0.00     0.040 C 
HETATM   12  C   UNL     1     -42.104  54.359 -51.349  1.00  0.00     0.011 C 
HETATM   13  C   UNL     1     -40.727  53.878 -51.795  1.00  0.00     0.001 C 
HETATM   14  C   UNL     1     -39.919  53.348 -50.616  1.00  0.00     0.000 C 
HETATM   15  C   UNL     1     -39.796  54.387 -49.509  1.00  0.00     0.001 C 
HETATM   16  C   UNL     1     -41.158  54.939 -49.077  1.00  0.00     0.011 C 
ENDBRANCH   6  11
ENDBRANCH   2   5
BRANCH   1  17
HETATM   17  C   UNL     1     -43.354  55.797 -55.155  1.00  0.00     0.154 C 
BRANCH  17  18
HETATM   18  C   UNL     1     -42.871  54.403 -55.577  1.00  0.00     0.028 C 
HETATM   19  C   UNL     1     -41.366  54.236 -55.399  1.00  0.00     0.007 C 
ENDBRANCH  17  18
BRANCH  17  20
HETATM   20  C   UNL     1     -43.274  56.777 -56.287  1.00  0.00     0.127 A 
HETATM   21  N   UNL     1     -42.336  57.678 -56.511  1.00  0.00    -0.237 NA
HETATM   22  C   UNL     1     -42.709  58.332 -57.661  1.00  0.00     0.048 A 
HETATM   23  C   UNL     1     -41.864  59.404 -58.231  1.00  0.00     0.072 C 
HETATM   24  C   UNL     1     -43.905  57.833 -58.127  1.00  0.00     0.116 A 
HETATM   25  N   UNL     1     -44.261  56.858 -57.239  1.00  0.00    -0.351 N 
HETATM   26  H   UNL     1     -45.105  56.299 -57.252  1.00  0.00     0.166 HD
ENDBRANCH  17  20
ENDBRANCH   1  17
TORSDOF 5
ENDMDL
MODEL 6
REMARK VINA RESULT:      -6.8      3.120      6.925
REMARK  5 active torsions:
REMARK  status: ('A' for Active; 'I' for Inactive)
REMARK    1  A    between atoms: C_2  and  C_3 
REMARK    2  A    between atoms: C_3  and  N_4 
REMARK    3  A    between atoms: C_3  and  C_19 
REMARK       I    between atoms: N_4  and  C_5 
REMARK    4  A    between atoms: C_5  and  C_6 
REMARK    5  A    between atoms: C_7  and  C_8 
ROOT
HETATM    1  N   UNL     1     -42.735  56.606 -55.314  1.00  0.00    -0.345 N 
HETATM    2  C   UNL     1     -42.031  56.519 -54.139  1.00  0.00     0.255 C 
HETATM    3  O   UNL     1     -41.098  57.271 -53.873  1.00  0.00    -0.268 OA
HETATM    4  H   UNL     1     -43.384  55.874 -55.561  1.00  0.00     0.163 HD
ENDROOT
BRANCH   2   5
HETATM    5  C   UNL     1     -42.494  55.485 -53.226  1.00  0.00     0.075 A 
HETATM    6  C   UNL     1     -41.772  54.349 -52.740  1.00  0.00     0.076 A 
HETATM    7  N   UNL     1     -42.529  53.610 -51.913  1.00  0.00    -0.178 NA
HETATM    8  N   UNL     1     -43.704  54.247 -51.872  1.00  0.00    -0.288 N 
HETATM    9  H   UNL     1     -44.444  53.849 -51.303  1.00  0.00     0.188 HD
HETATM   10  C   UNL     1     -43.736  55.379 -52.628  1.00  0.00     0.128 A 
BRANCH   6  11
HETATM   11  C   UNL     1     -40.338  53.966 -53.047  1.00  0.00     0.040 C 
HETATM   12  C   UNL     1     -39.680  53.199 -51.884  1.00  0.00     0.011 C 
HETATM   13  C   UNL     1     -40.124  51.741 -51.806  1.00  0.00     0.001 C 
HETATM   14  C   UNL     1     -39.855  51.011 -53.118  1.00  0.00     0.000 C 
HETATM   15  C   UNL     1     -40.516  51.716 -54.296  1.00  0.00     0.001 C 
HETATM   16  C   UNL     1     -40.141  53.199 -54.371  1.00  0.00     0.011 C 
ENDBRANCH   6  11
ENDBRANCH   2   5
BRANCH   1  17
HETATM   17  C   UNL     1     -42.379  57.551 -56.354  1.00  0.00     0.154 C 
BRANCH  17  18
HETATM   18  C   UNL     1     -43.144  58.870 -56.186  1.00  0.00     0.028 C 
HETATM   19  C   UNL     1     -42.209  60.067 -56.058  1.00  0.00     0.007 C 
ENDBRANCH  17  18
BRANCH  17  20
HETATM   20  C   UNL     1     -42.687  56.894 -57.667  1.00  0.00     0.127 A 
HETATM   21  N   UNL     1     -43.559  55.933 -57.905  1.00  0.00    -0.237 NA
HETATM   22  C   UNL     1     -43.473  55.669 -59.250  1.00  0.00     0.048 A 
HETATM   23  C   UNL     1     -44.340  54.651 -59.881  1.00  0.00     0.072 C 
HETATM   24  C   UNL     1     -42.515  56.470 -59.833  1.00  0.00     0.116 A 
HETATM   25  N   UNL     1     -42.013  57.232 -58.815  1.00  0.00    -0.351 N 
HETATM   26  H   UNL     1     -41.265  57.912 -58.874  1.00  0.00     0.166 HD
ENDBRANCH  17  20
ENDBRANCH   1  17
TORSDOF 5
ENDMDL
MODEL 7
REMARK VINA RESULT:      -6.8      4.386      8.077
REMARK  5 active torsions:
REMARK  status: ('A' for Active; 'I' for Inactive)
REMARK    1  A    between atoms: C_2  and  C_3 
REMARK    2  A    between atoms: C_3  and  N_4 
REMARK    3  A    between atoms: C_3  and  C_19 
REMARK       I    between atoms: N_4  and  C_5 
REMARK    4  A    between atoms: C_5  and  C_6 
REMARK    5  A    between atoms: C_7  and  C_8 
ROOT
HETATM    1  N   UNL     1     -42.389  57.054 -57.146  1.00  0.00    -0.345 N 
HETATM    2  C   UNL     1     -43.059  57.296 -55.972  1.00  0.00     0.255 C 
HETATM    3  O   UNL     1     -44.272  57.474 -55.931  1.00  0.00    -0.268 OA
HETATM    4  H   UNL     1     -41.380  57.071 -57.156  1.00  0.00     0.163 HD
ENDROOT
BRANCH   2   5
HETATM    5  C   UNL     1     -42.222  57.298 -54.782  1.00  0.00     0.075 A 
HETATM    6  C   UNL     1     -41.919  56.201 -53.914  1.00  0.00     0.076 A 
HETATM    7  N   UNL     1     -41.112  56.583 -52.911  1.00  0.00    -0.178 NA
HETATM    8  N   UNL     1     -40.906  57.887 -53.124  1.00  0.00    -0.288 N 
HETATM    9  H   UNL     1     -40.320  58.391 -52.465  1.00  0.00     0.188 HD
HETATM   10  C   UNL     1     -41.535  58.364 -54.233  1.00  0.00     0.128 A 
BRANCH   6  11
HETATM   11  C   UNL     1     -42.384  54.764 -54.045  1.00  0.00     0.040 C 
HETATM   12  C   UNL     1     -41.728  54.047 -55.240  1.00  0.00     0.011 C 
HETATM   13  C   UNL     1     -40.287  53.627 -54.964  1.00  0.00     0.001 C 
HETATM   14  C   UNL     1     -40.199  52.742 -53.725  1.00  0.00     0.000 C 
HETATM   15  C   UNL     1     -40.806  53.424 -52.506  1.00  0.00     0.001 C 
HETATM   16  C   UNL     1     -42.234  53.915 -52.766  1.00  0.00     0.011 C 
ENDBRANCH   6  11
ENDBRANCH   2   5
BRANCH   1  17
HETATM   17  C   UNL     1     -43.063  57.061 -58.429  1.00  0.00     0.154 C 
BRANCH  17  18
HETATM   18  C   UNL     1     -42.791  55.764 -59.202  1.00  0.00     0.028 C 
HETATM   19  C   UNL     1     -44.077  55.087 -59.663  1.00  0.00     0.007 C 
ENDBRANCH  17  18
BRANCH  17  20
HETATM   20  C   UNL     1     -42.571  58.265 -59.175  1.00  0.00     0.127 A 
HETATM   21  N   UNL     1     -42.338  59.473 -58.698  1.00  0.00    -0.237 NA
HETATM   22  C   UNL     1     -41.906  60.224 -59.764  1.00  0.00     0.048 A 
HETATM   23  C   UNL     1     -41.524  61.642 -59.588  1.00  0.00     0.072 C 
HETATM   24  C   UNL     1     -41.899  59.462 -60.912  1.00  0.00     0.116 A 
HETATM   25  N   UNL     1     -42.337  58.226 -60.529  1.00  0.00    -0.351 N 
HETATM   26  H   UNL     1     -42.487  57.420 -61.123  1.00  0.00     0.166 HD
ENDBRANCH  17  20
ENDBRANCH   1  17
TORSDOF 5
ENDMDL
MODEL 8
REMARK VINA RESULT:      -6.7     13.880     15.582
REMARK  5 active torsions:
REMARK  status: ('A' for Active; 'I' for Inactive)
REMARK    1  A    between atoms: C_2  and  C_3 
REMARK    2  A    between atoms: C_3  and  N_4 
REMARK    3  A    between atoms: C_3  and  C_19 
REMARK       I    between atoms: N_4  and  C_5 
REMARK    4  A    between atoms: C_5  and  C_6 
REMARK    5  A    between atoms: C_7  and  C_8 
ROOT
HETATM    1  N   UNL     1     -36.206  40.492 -53.003  1.00  0.00    -0.345 N 
HETATM    2  C   UNL     1     -35.724  41.607 -53.642  1.00  0.00     0.255 C 
HETATM    3  O   UNL     1     -35.823  42.734 -53.166  1.00  0.00    -0.268 OA
HETATM    4  H   UNL     1     -36.247  39.613 -53.497  1.00  0.00     0.163 HD
ENDROOT
BRANCH   2   5
HETATM    5  C   UNL     1     -35.066  41.345 -54.913  1.00  0.00     0.075 A 
HETATM    6  C   UNL     1     -35.613  41.461 -56.230  1.00  0.00     0.076 A 
HETATM    7  N   UNL     1     -34.706  41.131 -57.163  1.00  0.00    -0.178 NA
HETATM    8  N   UNL     1     -33.611  40.805 -56.469  1.00  0.00    -0.288 N 
HETATM    9  H   UNL     1     -32.789  40.507 -56.984  1.00  0.00     0.188 HD
HETATM   10  C   UNL     1     -33.766  40.926 -55.122  1.00  0.00     0.128 A 
BRANCH   6  11
HETATM   11  C   UNL     1     -37.009  41.912 -56.614  1.00  0.00     0.040 C 
HETATM   12  C   UNL     1     -37.083  42.389 -58.078  1.00  0.00     0.011 C 
HETATM   13  C   UNL     1     -37.105  41.238 -59.079  1.00  0.00     0.001 C 
HETATM   14  C   UNL     1     -38.257  40.281 -58.794  1.00  0.00     0.000 C 
HETATM   15  C   UNL     1     -38.207  39.754 -57.365  1.00  0.00     0.001 C 
HETATM   16  C   UNL     1     -38.122  40.882 -56.333  1.00  0.00     0.011 C 
ENDBRANCH   6  11
ENDBRANCH   2   5
BRANCH   1  17
HETATM   17  C   UNL     1     -36.928  40.579 -51.748  1.00  0.00     0.154 C 
BRANCH  17  18
HETATM   18  C   UNL     1     -36.609  39.380 -50.845  1.00  0.00     0.028 C 
HETATM   19  C   UNL     1     -36.672  39.740 -49.365  1.00  0.00     0.007 C 
ENDBRANCH  17  18
BRANCH  17  20
HETATM   20  C   UNL     1     -38.387  40.646 -52.087  1.00  0.00     0.127 A 
HETATM   21  N   UNL     1     -39.333  39.783 -51.766  1.00  0.00    -0.237 NA
HETATM   22  C   UNL     1     -40.495  40.280 -52.304  1.00  0.00     0.048 A 
HETATM   23  C   UNL     1     -41.781  39.573 -52.114  1.00  0.00     0.072 C 
HETATM   24  C   UNL     1     -40.244  41.452 -52.982  1.00  0.00     0.116 A 
HETATM   25  N   UNL     1     -38.901  41.666 -52.850  1.00  0.00    -0.351 N 
HETATM   26  H   UNL     1     -38.361  42.422 -53.252  1.00  0.00     0.166 HD
ENDBRANCH  17  20
ENDBRANCH   1  17
TORSDOF 5
ENDMDL
MODEL 9
REMARK VINA RESULT:      -6.6      3.673      7.000
REMARK  5 active torsions:
REMARK  status: ('A' for Active; 'I' for Inactive)
REMARK    1  A    between atoms: C_2  and  C_3 
REMARK    2  A    between atoms: C_3  and  N_4 
REMARK    3  A    between atoms: C_3  and  C_19 
REMARK       I    between atoms: N_4  and  C_5 
REMARK    4  A    between atoms: C_5  and  C_6 
REMARK    5  A    between atoms: C_7  and  C_8 
ROOT
HETATM    1  N   UNL     1     -42.919  57.895 -55.855  1.00  0.00    -0.345 N 
HETATM    2  C   UNL     1     -42.326  58.107 -54.634  1.00  0.00     0.255 C 
HETATM    3  O   UNL     1     -41.389  58.886 -54.484  1.00  0.00    -0.268 OA
HETATM    4  H   UNL     1     -43.574  57.136 -55.965  1.00  0.00     0.163 HD
ENDROOT
BRANCH   2   5
HETATM    5  C   UNL     1     -42.912  57.358 -53.534  1.00  0.00     0.075 A 
HETATM    6  C   UNL     1     -42.335  56.274 -52.798  1.00  0.00     0.076 A 
HETATM    7  N   UNL     1     -43.176  55.827 -51.852  1.00  0.00    -0.178 NA
HETATM    8  N   UNL     1     -44.263  56.595 -51.978  1.00  0.00    -0.288 N 
HETATM    9  H   UNL     1     -45.046  56.420 -51.356  1.00  0.00     0.188 HD
HETATM   10  C   UNL     1     -44.157  57.533 -52.958  1.00  0.00     0.128 A 
BRANCH   6  11
HETATM   11  C   UNL     1     -40.960  55.663 -52.980  1.00  0.00     0.040 C 
HETATM   12  C   UNL     1     -40.814  54.326 -52.229  1.00  0.00     0.011 C 
HETATM   13  C   UNL     1     -41.498  53.164 -52.944  1.00  0.00     0.001 C 
HETATM   14  C   UNL     1     -40.979  53.011 -54.369  1.00  0.00     0.000 C 
HETATM   15  C   UNL     1     -41.133  54.301 -55.164  1.00  0.00     0.001 C 
HETATM   16  C   UNL     1     -40.510  55.503 -54.447  1.00  0.00     0.011 C 
ENDBRANCH   6  11
ENDBRANCH   2   5
BRANCH   1  17
HETATM   17  C   UNL     1     -42.431  58.528 -57.065  1.00  0.00     0.154 C 
BRANCH  17  18
HETATM   18  C   UNL     1     -43.171  59.845 -57.334  1.00  0.00     0.028 C 
HETATM   19  C   UNL     1     -42.290  61.063 -57.083  1.00  0.00     0.007 C 
ENDBRANCH  17  18
BRANCH  17  20
HETATM   20  C   UNL     1     -42.624  57.545 -58.181  1.00  0.00     0.127 A 
HETATM   21  N   UNL     1     -43.565  56.627 -58.296  1.00  0.00    -0.237 NA
HETATM   22  C   UNL     1     -43.317  55.979 -59.482  1.00  0.00     0.048 A 
HETATM   23  C   UNL     1     -44.202  54.891 -59.951  1.00  0.00     0.072 C 
HETATM   24  C   UNL     1     -42.192  56.499 -60.083  1.00  0.00     0.116 A 
HETATM   25  N   UNL     1     -41.753  57.482 -59.241  1.00  0.00    -0.351 N 
HETATM   26  H   UNL     1     -40.926  58.055 -59.351  1.00  0.00     0.166 HD
ENDBRANCH  17  20
ENDBRANCH   1  17
TORSDOF 5
ENDMDL
MODEL 10
REMARK VINA RESULT:      -6.5      3.487      7.145
REMARK  5 active torsions:
REMARK  status: ('A' for Active; 'I' for Inactive)
REMARK    1  A    between atoms: C_2  and  C_3 
REMARK    2  A    between atoms: C_3  and  N_4 
REMARK    3  A    between atoms: C_3  and  C_19 
REMARK       I    between atoms: N_4  and  C_5 
REMARK    4  A    between atoms: C_5  and  C_6 
REMARK    5  A    between atoms: C_7  and  C_8 
ROOT
HETATM    1  N   UNL     1     -43.298  58.299 -54.635  1.00  0.00    -0.345 N 
HETATM    2  C   UNL     1     -42.028  58.526 -54.164  1.00  0.00     0.255 C 
HETATM    3  O   UNL     1     -41.277  59.356 -54.667  1.00  0.00    -0.268 OA
HETATM    4  H   UNL     1     -43.820  57.504 -54.297  1.00  0.00     0.163 HD
ENDROOT
BRANCH   2   5
HETATM    5  C   UNL     1     -41.655  57.725 -53.008  1.00  0.00     0.075 A 
HETATM    6  C   UNL     1     -41.742  56.305 -52.853  1.00  0.00     0.076 A 
HETATM    7  N   UNL     1     -41.308  55.921 -51.643  1.00  0.00    -0.178 NA
HETATM    8  N   UNL     1     -40.957  57.058 -51.034  1.00  0.00    -0.288 N 
HETATM    9  H   UNL     1     -40.603  57.003 -50.085  1.00  0.00     0.188 HD
HETATM   10  C   UNL     1     -41.132  58.165 -51.807  1.00  0.00     0.128 A 
BRANCH   6  11
HETATM   11  C   UNL     1     -42.226  55.293 -53.873  1.00  0.00     0.040 C 
HETATM   12  C   UNL     1     -41.365  55.297 -55.150  1.00  0.00     0.011 C 
HETATM   13  C   UNL     1     -40.030  54.579 -54.971  1.00  0.00     0.001 C 
HETATM   14  C   UNL     1     -40.235  53.145 -54.497  1.00  0.00     0.000 C 
HETATM   15  C   UNL     1     -41.055  53.090 -53.214  1.00  0.00     0.001 C 
HETATM   16  C   UNL     1     -42.377  53.854 -53.337  1.00  0.00     0.011 C 
ENDBRANCH   6  11
ENDBRANCH   2   5
BRANCH   1  17
HETATM   17  C   UNL     1     -43.814  58.980 -55.806  1.00  0.00     0.154 C 
BRANCH  17  18
HETATM   18  C   UNL     1     -45.324  59.225 -55.681  1.00  0.00     0.028 C 
HETATM   19  C   UNL     1     -45.886  59.986 -56.876  1.00  0.00     0.007 C 
ENDBRANCH  17  18
BRANCH  17  20
HETATM   20  C   UNL     1     -43.489  58.120 -56.991  1.00  0.00     0.127 A 
HETATM   21  N   UNL     1     -42.731  58.424 -58.027  1.00  0.00    -0.237 NA
HETATM   22  C   UNL     1     -42.742  57.317 -58.841  1.00  0.00     0.048 A 
HETATM   23  C   UNL     1     -41.966  57.293 -60.100  1.00  0.00     0.072 C 
HETATM   24  C   UNL     1     -43.540  56.334 -58.298  1.00  0.00     0.116 A 
HETATM   25  N   UNL     1     -44.020  56.860 -57.132  1.00  0.00    -0.351 N 
HETATM   26  H   UNL     1     -44.666  56.425 -56.486  1.00  0.00     0.166 HD
ENDBRANCH  17  20
ENDBRANCH   1  17
TORSDOF 5
ENDMDL
