MODEL 1
REMARK VINA RESULT:      -7.9      0.000      0.000
REMARK  6 active torsions:
REMARK  status: ('A' for Active; 'I' for Inactive)
REMARK    1  A    between atoms: O_2  and  C_3 
REMARK    2  A    between atoms: C_7  and  C_8 
REMARK    3  A    between atoms: C_8  and  C_9 
REMARK       I    between atoms: C_9  and  N_10 
REMARK    4  A    between atoms: N_10  and  C_11 
REMARK    5  A    between atoms: C_12  and  C_13 
REMARK       I    between atoms: C_13  and  N_14 
REMARK    6  A    between atoms: N_14  and  C_15 
ROOT
HETATM    1  C   UNL     1     -41.760  54.421 -55.447  1.00  0.00     0.226 C 
HETATM    2  N   UNL     1     -41.657  55.711 -55.934  1.00  0.00    -0.326 N 
HETATM    3  O   UNL     1     -42.814  53.833 -55.215  1.00  0.00    -0.273 OA
HETATM    4  H   UNL     1     -40.749  56.161 -55.851  1.00  0.00     0.169 HD
ENDROOT
BRANCH   2   5
HETATM    5  C   UNL     1     -42.695  56.495 -56.503  1.00  0.00     0.050 A 
HETATM    6  C   UNL     1     -43.244  57.570 -55.776  1.00  0.00     0.058 A 
HETATM    7  C   UNL     1     -44.167  58.445 -56.368  1.00  0.00     0.019 A 
HETATM    8  C   UNL     1     -44.581  58.238 -57.680  1.00  0.00     0.001 A 
HETATM    9  C   UNL     1     -44.075  57.159 -58.398  1.00  0.00     0.002 A 
HETATM   10  C   UNL     1     -43.137  56.298 -57.817  1.00  0.00     0.030 A 
BRANCH   6  11
HETATM   11  C   UNL     1     -42.929  57.810 -54.346  1.00  0.00     0.254 C 
HETATM   12  N   UNL     1     -43.981  57.593 -53.479  1.00  0.00    -0.352 N 
HETATM   13  H   UNL     1     -44.900  57.404 -53.868  1.00  0.00     0.163 HD
HETATM   14  O   UNL     1     -41.816  58.198 -54.017  1.00  0.00    -0.268 OA
BRANCH  12  15
HETATM   15  C   UNL     1     -43.900  57.919 -52.091  1.00  0.00     0.084 A 
HETATM   16  C   UNL     1     -45.143  58.268 -51.321  1.00  0.00     0.027 A 
HETATM   17  C   UNL     1     -44.435  56.974 -51.051  1.00  0.00     0.027 A 
ENDBRANCH  12  15
ENDBRANCH   6  11
ENDBRANCH   2   5
BRANCH   1  18
HETATM   18  C   UNL     1     -40.431  53.699 -55.289  1.00  0.00     0.144 C 
BRANCH  18  19
HETATM   19  C   UNL     1     -40.206  53.088 -53.948  1.00  0.00    -0.014 A 
HETATM   20  C   UNL     1     -40.523  53.642 -52.670  1.00  0.00     0.006 A 
HETATM   21  C   UNL     1     -40.227  52.653 -51.740  1.00  0.00     0.088 A 
HETATM   22  C   UNL     1     -41.049  54.857 -52.201  1.00  0.00     0.017 A 
HETATM   23  C   UNL     1     -40.446  52.762 -50.369  1.00  0.00     0.074 A 
HETATM   24  O   UNL     1     -39.707  51.561 -52.365  1.00  0.00    -0.321 OA
HETATM   25  C   UNL     1     -41.011  53.961 -49.927  1.00  0.00     0.070 A 
HETATM   26  C   UNL     1     -41.276  55.001 -50.824  1.00  0.00     0.038 A 
HETATM   27  C   UNL     1     -39.705  51.826 -53.693  1.00  0.00     0.151 A 
BRANCH  25  28
HETATM   28  O   UNL     1     -41.319  54.232 -48.618  1.00  0.00    -0.356 OA
HETATM   29  C   UNL     1     -40.355  53.786 -47.667  1.00  0.00     0.210 C 
ENDBRANCH  25  28
ENDBRANCH  18  19
ENDBRANCH   1  18
TORSDOF 6
ENDMDL
MODEL 2
REMARK VINA RESULT:      -7.9      2.377      6.549
REMARK  6 active torsions:
REMARK  status: ('A' for Active; 'I' for Inactive)
REMARK    1  A    between atoms: O_2  and  C_3 
REMARK    2  A    between atoms: C_7  and  C_8 
REMARK    3  A    between atoms: C_8  and  C_9 
REMARK       I    between atoms: C_9  and  N_10 
REMARK    4  A    between atoms: N_10  and  C_11 
REMARK    5  A    between atoms: C_12  and  C_13 
REMARK       I    between atoms: C_13  and  N_14 
REMARK    6  A    between atoms: N_14  and  C_15 
ROOT
HETATM    1  C   UNL     1     -41.401  54.164 -50.980  1.00  0.00     0.226 C 
HETATM    2  N   UNL     1     -40.249  53.619 -51.516  1.00  0.00    -0.326 N 
HETATM    3  O   UNL     1     -42.539  53.738 -51.163  1.00  0.00    -0.273 OA
HETATM    4  H   UNL     1     -39.413  54.197 -51.492  1.00  0.00     0.169 HD
ENDROOT
BRANCH   2   5
HETATM    5  C   UNL     1     -40.114  52.349 -52.137  1.00  0.00     0.050 A 
HETATM    6  C   UNL     1     -40.258  52.229 -53.534  1.00  0.00     0.058 A 
HETATM    7  C   UNL     1     -39.990  51.016 -54.186  1.00  0.00     0.019 A 
HETATM    8  C   UNL     1     -39.609  49.898 -53.450  1.00  0.00     0.001 A 
HETATM    9  C   UNL     1     -39.498  49.992 -52.066  1.00  0.00     0.002 A 
HETATM   10  C   UNL     1     -39.744  51.207 -51.415  1.00  0.00     0.030 A 
BRANCH   6  11
HETATM   11  C   UNL     1     -40.747  53.342 -54.384  1.00  0.00     0.254 C 
HETATM   12  N   UNL     1     -42.069  53.686 -54.182  1.00  0.00    -0.352 N 
HETATM   13  H   UNL     1     -42.634  53.103 -53.573  1.00  0.00     0.163 HD
HETATM   14  O   UNL     1     -40.004  53.862 -55.206  1.00  0.00    -0.268 OA
BRANCH  12  15
HETATM   15  C   UNL     1     -42.744  54.629 -55.015  1.00  0.00     0.084 A 
HETATM   16  C   UNL     1     -43.963  55.350 -54.511  1.00  0.00     0.027 A 
HETATM   17  C   UNL     1     -42.680  56.101 -54.713  1.00  0.00     0.027 A 
ENDBRANCH  12  15
ENDBRANCH   6  11
ENDBRANCH   2   5
BRANCH   1  18
HETATM   18  C   UNL     1     -41.164  55.329 -50.032  1.00  0.00     0.144 C 
BRANCH  18  19
HETATM   19  C   UNL     1     -41.396  56.676 -50.624  1.00  0.00    -0.014 A 
HETATM   20  C   UNL     1     -42.638  57.246 -51.043  1.00  0.00     0.006 A 
HETATM   21  C   UNL     1     -42.352  58.553 -51.419  1.00  0.00     0.088 A 
HETATM   22  C   UNL     1     -43.972  56.809 -51.120  1.00  0.00     0.017 A 
HETATM   23  C   UNL     1     -43.301  59.483 -51.839  1.00  0.00     0.074 A 
HETATM   24  O   UNL     1     -41.018  58.794 -51.304  1.00  0.00    -0.321 OA
HETATM   25  C   UNL     1     -44.627  59.043 -51.867  1.00  0.00     0.070 A 
HETATM   26  C   UNL     1     -44.950  57.720 -51.545  1.00  0.00     0.038 A 
HETATM   27  C   UNL     1     -40.450  57.665 -50.818  1.00  0.00     0.151 A 
BRANCH  25  28
HETATM   28  O   UNL     1     -45.692  59.828 -52.229  1.00  0.00    -0.356 OA
HETATM   29  C   UNL     1     -46.221  60.645 -51.186  1.00  0.00     0.210 C 
ENDBRANCH  25  28
ENDBRANCH  18  19
ENDBRANCH   1  18
TORSDOF 6
ENDMDL
MODEL 3
REMARK VINA RESULT:      -7.8      2.799      5.004
REMARK  6 active torsions:
REMARK  status: ('A' for Active; 'I' for Inactive)
REMARK    1  A    between atoms: O_2  and  C_3 
REMARK    2  A    between atoms: C_7  and  C_8 
REMARK    3  A    between atoms: C_8  and  C_9 
REMARK       I    between atoms: C_9  and  N_10 
REMARK    4  A    between atoms: N_10  and  C_11 
REMARK    5  A    between atoms: C_12  and  C_13 
REMARK       I    between atoms: C_13  and  N_14 
REMARK    6  A    between atoms: N_14  and  C_15 
ROOT
HETATM    1  C   UNL     1     -43.167  56.640 -56.915  1.00  0.00     0.226 C 
HETATM    2  N   UNL     1     -42.020  57.314 -57.292  1.00  0.00    -0.326 N 
HETATM    3  O   UNL     1     -44.311  57.078 -57.013  1.00  0.00    -0.273 OA
HETATM    4  H   UNL     1     -41.138  56.951 -56.939  1.00  0.00     0.169 HD
ENDROOT
BRANCH   2   5
HETATM    5  C   UNL     1     -41.939  58.486 -58.088  1.00  0.00     0.050 A 
HETATM    6  C   UNL     1     -42.369  58.457 -59.430  1.00  0.00     0.058 A 
HETATM    7  C   UNL     1     -42.433  59.632 -60.193  1.00  0.00     0.019 A 
HETATM    8  C   UNL     1     -42.035  60.845 -59.640  1.00  0.00     0.001 A 
HETATM    9  C   UNL     1     -41.573  60.883 -58.328  1.00  0.00     0.002 A 
HETATM   10  C   UNL     1     -41.530  59.715 -57.557  1.00  0.00     0.030 A 
BRANCH   6  11
HETATM   11  C   UNL     1     -42.724  57.196 -60.127  1.00  0.00     0.254 C 
HETATM   12  N   UNL     1     -44.077  57.011 -60.333  1.00  0.00    -0.352 N 
HETATM   13  H   UNL     1     -44.726  57.665 -59.908  1.00  0.00     0.163 HD
HETATM   14  O   UNL     1     -41.850  56.403 -60.448  1.00  0.00    -0.268 OA
BRANCH  12  15
HETATM   15  C   UNL     1     -44.606  55.790 -60.851  1.00  0.00     0.084 A 
HETATM   16  C   UNL     1     -44.757  54.590 -59.957  1.00  0.00     0.027 A 
HETATM   17  C   UNL     1     -45.975  55.317 -60.446  1.00  0.00     0.027 A 
ENDBRANCH  12  15
ENDBRANCH   6  11
ENDBRANCH   2   5
BRANCH   1  18
HETATM   18  C   UNL     1     -42.932  55.219 -56.428  1.00  0.00     0.144 C 
BRANCH  18  19
HETATM   19  C   UNL     1     -42.744  55.084 -54.956  1.00  0.00    -0.014 A 
HETATM   20  C   UNL     1     -41.879  54.181 -54.263  1.00  0.00     0.006 A 
HETATM   21  C   UNL     1     -41.977  54.515 -52.918  1.00  0.00     0.088 A 
HETATM   22  C   UNL     1     -41.009  53.140 -54.628  1.00  0.00     0.017 A 
HETATM   23  C   UNL     1     -41.245  53.913 -51.896  1.00  0.00     0.074 A 
HETATM   24  O   UNL     1     -42.877  55.521 -52.746  1.00  0.00    -0.321 OA
HETATM   25  C   UNL     1     -40.353  52.910 -52.284  1.00  0.00     0.070 A 
HETATM   26  C   UNL     1     -40.262  52.509 -53.622  1.00  0.00     0.038 A 
HETATM   27  C   UNL     1     -43.329  55.864 -53.977  1.00  0.00     0.151 A 
BRANCH  25  28
HETATM   28  O   UNL     1     -39.535  52.229 -51.418  1.00  0.00    -0.356 OA
HETATM   29  C   UNL     1     -39.507  50.815 -51.602  1.00  0.00     0.210 C 
ENDBRANCH  25  28
ENDBRANCH  18  19
ENDBRANCH   1  18
TORSDOF 6
ENDMDL
MODEL 4
REMARK VINA RESULT:      -7.8      2.343      6.265
REMARK  6 active torsions:
REMARK  status: ('A' for Active; 'I' for Inactive)
REMARK    1  A    between atoms: O_2  and  C_3 
REMARK    2  A    between atoms: C_7  and  C_8 
REMARK    3  A    between atoms: C_8  and  C_9 
REMARK       I    between atoms: C_9  and  N_10 
REMARK    4  A    between atoms: N_10  and  C_11 
REMARK    5  A    between atoms: C_12  and  C_13 
REMARK       I    between atoms: C_13  and  N_14 
REMARK    6  A    between atoms: N_14  and  C_15 
ROOT
HETATM    1  C   UNL     1     -40.963  54.136 -55.043  1.00  0.00     0.226 C 
HETATM    2  N   UNL     1     -41.405  53.134 -54.198  1.00  0.00    -0.326 N 
HETATM    3  O   UNL     1     -39.785  54.397 -55.276  1.00  0.00    -0.273 OA
HETATM    4  H   UNL     1     -42.377  53.178 -53.904  1.00  0.00     0.169 HD
ENDROOT
BRANCH   2   5
HETATM    5  C   UNL     1     -40.636  52.067 -53.661  1.00  0.00     0.050 A 
HETATM    6  C   UNL     1     -40.346  52.034 -52.283  1.00  0.00     0.058 A 
HETATM    7  C   UNL     1     -39.713  50.923 -51.705  1.00  0.00     0.019 A 
HETATM    8  C   UNL     1     -39.329  49.848 -52.500  1.00  0.00     0.001 A 
HETATM    9  C   UNL     1     -39.576  49.884 -53.869  1.00  0.00     0.002 A 
HETATM   10  C   UNL     1     -40.228  50.981 -54.444  1.00  0.00     0.030 A 
BRANCH   6  11
HETATM   11  C   UNL     1     -40.636  53.173 -51.378  1.00  0.00     0.254 C 
HETATM   12  N   UNL     1     -39.620  53.485 -50.497  1.00  0.00    -0.352 N 
HETATM   13  H   UNL     1     -38.816  52.867 -50.446  1.00  0.00     0.163 HD
HETATM   14  O   UNL     1     -41.720  53.740 -51.429  1.00  0.00    -0.268 OA
BRANCH  12  15
HETATM   15  C   UNL     1     -39.785  54.450 -49.458  1.00  0.00     0.084 A 
HETATM   16  C   UNL     1     -41.152  54.742 -48.905  1.00  0.00     0.027 A 
HETATM   17  C   UNL     1     -40.144  54.018 -48.063  1.00  0.00     0.027 A 
ENDBRANCH  12  15
ENDBRANCH   6  11
ENDBRANCH   2   5
BRANCH   1  18
HETATM   18  C   UNL     1     -42.070  54.878 -55.773  1.00  0.00     0.144 C 
BRANCH  18  19
HETATM   19  C   UNL     1     -42.096  56.350 -55.541  1.00  0.00    -0.014 A 
HETATM   20  C   UNL     1     -41.765  57.053 -54.342  1.00  0.00     0.006 A 
HETATM   21  C   UNL     1     -41.838  58.404 -54.658  1.00  0.00     0.088 A 
HETATM   22  C   UNL     1     -41.389  56.696 -53.036  1.00  0.00     0.017 A 
HETATM   23  C   UNL     1     -41.529  59.441 -53.780  1.00  0.00     0.074 A 
HETATM   24  O   UNL     1     -42.237  58.565 -55.949  1.00  0.00    -0.321 OA
HETATM   25  C   UNL     1     -41.115  59.065 -52.500  1.00  0.00     0.070 A 
HETATM   26  C   UNL     1     -41.078  57.717 -52.126  1.00  0.00     0.038 A 
HETATM   27  C   UNL     1     -42.383  57.326 -56.477  1.00  0.00     0.151 A 
BRANCH  25  28
HETATM   28  O   UNL     1     -40.748  59.949 -51.517  1.00  0.00    -0.356 OA
HETATM   29  C   UNL     1     -40.957  59.489 -50.184  1.00  0.00     0.210 C 
ENDBRANCH  25  28
ENDBRANCH  18  19
ENDBRANCH   1  18
TORSDOF 6
ENDMDL
MODEL 5
REMARK VINA RESULT:      -7.8      2.002      6.569
REMARK  6 active torsions:
REMARK  status: ('A' for Active; 'I' for Inactive)
REMARK    1  A    between atoms: O_2  and  C_3 
REMARK    2  A    between atoms: C_7  and  C_8 
REMARK    3  A    between atoms: C_8  and  C_9 
REMARK       I    between atoms: C_9  and  N_10 
REMARK    4  A    between atoms: N_10  and  C_11 
REMARK    5  A    between atoms: C_12  and  C_13 
REMARK       I    between atoms: C_13  and  N_14 
REMARK    6  A    between atoms: N_14  and  C_15 
ROOT
HETATM    1  C   UNL     1     -41.647  55.164 -50.655  1.00  0.00     0.226 C 
HETATM    2  N   UNL     1     -40.920  54.918 -51.806  1.00  0.00    -0.326 N 
HETATM    3  O   UNL     1     -42.408  54.365 -50.114  1.00  0.00    -0.273 OA
HETATM    4  H   UNL     1     -40.527  55.726 -52.281  1.00  0.00     0.169 HD
ENDROOT
BRANCH   2   5
HETATM    5  C   UNL     1     -40.696  53.659 -52.422  1.00  0.00     0.050 A 
HETATM    6  C   UNL     1     -41.343  53.343 -53.633  1.00  0.00     0.058 A 
HETATM    7  C   UNL     1     -41.030  52.168 -54.334  1.00  0.00     0.019 A 
HETATM    8  C   UNL     1     -40.095  51.276 -53.817  1.00  0.00     0.001 A 
HETATM    9  C   UNL     1     -39.475  51.558 -52.604  1.00  0.00     0.002 A 
HETATM   10  C   UNL     1     -39.769  52.740 -51.914  1.00  0.00     0.030 A 
BRANCH   6  11
HETATM   11  C   UNL     1     -42.417  54.189 -54.209  1.00  0.00     0.254 C 
HETATM   12  N   UNL     1     -42.141  54.701 -55.461  1.00  0.00    -0.352 N 
HETATM   13  H   UNL     1     -41.210  54.569 -55.845  1.00  0.00     0.163 HD
HETATM   14  O   UNL     1     -43.438  54.408 -53.570  1.00  0.00    -0.268 OA
BRANCH  12  15
HETATM   15  C   UNL     1     -42.993  55.653 -56.097  1.00  0.00     0.084 A 
HETATM   16  C   UNL     1     -42.433  56.952 -56.606  1.00  0.00     0.027 A 
HETATM   17  C   UNL     1     -42.891  55.904 -57.576  1.00  0.00     0.027 A 
ENDBRANCH  12  15
ENDBRANCH   6  11
ENDBRANCH   2   5
BRANCH   1  18
HETATM   18  C   UNL     1     -41.374  56.515 -50.014  1.00  0.00     0.144 C 
BRANCH  18  19
HETATM   19  C   UNL     1     -41.167  57.634 -50.975  1.00  0.00    -0.014 A 
HETATM   20  C   UNL     1     -42.059  58.088 -51.995  1.00  0.00     0.006 A 
HETATM   21  C   UNL     1     -41.468  59.218 -52.546  1.00  0.00     0.088 A 
HETATM   22  C   UNL     1     -43.309  57.683 -52.494  1.00  0.00     0.017 A 
HETATM   23  C   UNL     1     -42.040  60.009 -53.540  1.00  0.00     0.074 A 
HETATM   24  O   UNL     1     -40.259  59.449 -51.963  1.00  0.00    -0.321 OA
HETATM   25  C   UNL     1     -43.303  59.615 -53.992  1.00  0.00     0.070 A 
HETATM   26  C   UNL     1     -43.909  58.454 -53.500  1.00  0.00     0.038 A 
HETATM   27  C   UNL     1     -40.088  58.497 -51.014  1.00  0.00     0.151 A 
BRANCH  25  28
HETATM   28  O   UNL     1     -44.024  60.287 -54.946  1.00  0.00    -0.356 OA
HETATM   29  C   UNL     1     -45.191  59.609 -55.408  1.00  0.00     0.210 C 
ENDBRANCH  25  28
ENDBRANCH  18  19
ENDBRANCH   1  18
TORSDOF 6
ENDMDL
MODEL 6
REMARK VINA RESULT:      -7.7      1.824      3.728
REMARK  6 active torsions:
REMARK  status: ('A' for Active; 'I' for Inactive)
REMARK    1  A    between atoms: O_2  and  C_3 
REMARK    2  A    between atoms: C_7  and  C_8 
REMARK    3  A    between atoms: C_8  and  C_9 
REMARK       I    between atoms: C_9  and  N_10 
REMARK    4  A    between atoms: N_10  and  C_11 
REMARK    5  A    between atoms: C_12  and  C_13 
REMARK       I    between atoms: C_13  and  N_14 
REMARK    6  A    between atoms: N_14  and  C_15 
ROOT
HETATM    1  C   UNL     1     -42.229  55.071 -55.282  1.00  0.00     0.226 C 
HETATM    2  N   UNL     1     -43.537  55.515 -55.355  1.00  0.00    -0.326 N 
HETATM    3  O   UNL     1     -41.234  55.791 -55.308  1.00  0.00    -0.273 OA
HETATM    4  H   UNL     1     -44.246  54.818 -55.568  1.00  0.00     0.169 HD
ENDROOT
BRANCH   2   5
HETATM    5  C   UNL     1     -43.997  56.850 -55.203  1.00  0.00     0.050 A 
HETATM    6  C   UNL     1     -44.245  57.642 -56.342  1.00  0.00     0.058 A 
HETATM    7  C   UNL     1     -44.833  58.910 -56.224  1.00  0.00     0.019 A 
HETATM    8  C   UNL     1     -45.146  59.420 -54.967  1.00  0.00     0.001 A 
HETATM    9  C   UNL     1     -44.872  58.664 -53.832  1.00  0.00     0.002 A 
HETATM   10  C   UNL     1     -44.306  57.388 -53.948  1.00  0.00     0.030 A 
BRANCH   6  11
HETATM   11  C   UNL     1     -43.859  57.217 -57.709  1.00  0.00     0.254 C 
HETATM   12  N   UNL     1     -44.915  56.849 -58.519  1.00  0.00    -0.352 N 
HETATM   13  H   UNL     1     -45.841  56.781 -58.109  1.00  0.00     0.163 HD
HETATM   14  O   UNL     1     -42.680  57.187 -58.036  1.00  0.00    -0.268 OA
BRANCH  12  15
HETATM   15  C   UNL     1     -44.716  56.272 -59.810  1.00  0.00     0.084 A 
HETATM   16  C   UNL     1     -44.512  54.790 -59.955  1.00  0.00     0.027 A 
HETATM   17  C   UNL     1     -45.784  55.421 -60.441  1.00  0.00     0.027 A 
ENDBRANCH  12  15
ENDBRANCH   6  11
ENDBRANCH   2   5
BRANCH   1  18
HETATM   18  C   UNL     1     -42.083  53.573 -55.070  1.00  0.00     0.144 C 
BRANCH  18  19
HETATM   19  C   UNL     1     -41.289  53.184 -53.871  1.00  0.00    -0.014 A 
HETATM   20  C   UNL     1     -41.444  53.651 -52.529  1.00  0.00     0.006 A 
HETATM   21  C   UNL     1     -40.548  52.917 -51.762  1.00  0.00     0.088 A 
HETATM   22  C   UNL     1     -42.260  54.592 -51.878  1.00  0.00     0.017 A 
HETATM   23  C   UNL     1     -40.419  53.019 -50.379  1.00  0.00     0.074 A 
HETATM   24  O   UNL     1     -39.829  52.076 -52.555  1.00  0.00    -0.321 OA
HETATM   25  C   UNL     1     -41.269  53.929 -49.744  1.00  0.00     0.070 A 
HETATM   26  C   UNL     1     -42.149  54.724 -50.486  1.00  0.00     0.038 A 
HETATM   27  C   UNL     1     -40.284  52.236 -53.821  1.00  0.00     0.151 A 
BRANCH  25  28
HETATM   28  O   UNL     1     -41.298  54.141 -48.389  1.00  0.00    -0.356 OA
HETATM   29  C   UNL     1     -40.068  53.889 -47.713  1.00  0.00     0.210 C 
ENDBRANCH  25  28
ENDBRANCH  18  19
ENDBRANCH   1  18
TORSDOF 6
ENDMDL
MODEL 7
REMARK VINA RESULT:      -7.7      2.539      7.714
REMARK  6 active torsions:
REMARK  status: ('A' for Active; 'I' for Inactive)
REMARK    1  A    between atoms: O_2  and  C_3 
REMARK    2  A    between atoms: C_7  and  C_8 
REMARK    3  A    between atoms: C_8  and  C_9 
REMARK       I    between atoms: C_9  and  N_10 
REMARK    4  A    between atoms: N_10  and  C_11 
REMARK    5  A    between atoms: C_12  and  C_13 
REMARK       I    between atoms: C_13  and  N_14 
REMARK    6  A    between atoms: N_14  and  C_15 
ROOT
HETATM    1  C   UNL     1     -42.283  55.762 -56.096  1.00  0.00     0.226 C 
HETATM    2  N   UNL     1     -41.059  55.558 -55.486  1.00  0.00    -0.326 N 
HETATM    3  O   UNL     1     -43.244  54.999 -56.030  1.00  0.00    -0.273 OA
HETATM    4  H   UNL     1     -40.283  56.128 -55.813  1.00  0.00     0.169 HD
ENDROOT
BRANCH   2   5
HETATM    5  C   UNL     1     -40.756  54.607 -54.476  1.00  0.00     0.050 A 
HETATM    6  C   UNL     1     -41.056  54.891 -53.129  1.00  0.00     0.058 A 
HETATM    7  C   UNL     1     -40.898  53.915 -52.133  1.00  0.00     0.019 A 
HETATM    8  C   UNL     1     -40.403  52.657 -52.462  1.00  0.00     0.001 A 
HETATM    9  C   UNL     1     -40.067  52.375 -53.783  1.00  0.00     0.002 A 
HETATM   10  C   UNL     1     -40.246  53.340 -54.782  1.00  0.00     0.030 A 
BRANCH   6  11
HETATM   11  C   UNL     1     -41.500  56.232 -52.675  1.00  0.00     0.254 C 
HETATM   12  N   UNL     1     -42.686  56.239 -51.967  1.00  0.00    -0.352 N 
HETATM   13  H   UNL     1     -43.219  55.377 -51.904  1.00  0.00     0.163 HD
HETATM   14  O   UNL     1     -40.845  57.226 -52.957  1.00  0.00    -0.268 OA
BRANCH  12  15
HETATM   15  C   UNL     1     -43.335  57.452 -51.586  1.00  0.00     0.084 A 
HETATM   16  C   UNL     1     -44.395  58.053 -52.467  1.00  0.00     0.027 A 
HETATM   17  C   UNL     1     -44.774  57.444 -51.149  1.00  0.00     0.027 A 
ENDBRANCH  12  15
ENDBRANCH   6  11
ENDBRANCH   2   5
BRANCH   1  18
HETATM   18  C   UNL     1     -42.412  57.093 -56.819  1.00  0.00     0.144 C 
BRANCH  18  19
HETATM   19  C   UNL     1     -43.771  57.385 -57.357  1.00  0.00    -0.014 A 
HETATM   20  C   UNL     1     -44.347  56.917 -58.579  1.00  0.00     0.006 A 
HETATM   21  C   UNL     1     -45.662  57.369 -58.579  1.00  0.00     0.088 A 
HETATM   22  C   UNL     1     -43.911  56.144 -59.668  1.00  0.00     0.017 A 
HETATM   23  C   UNL     1     -46.599  57.081 -59.569  1.00  0.00     0.074 A 
HETATM   24  O   UNL     1     -45.903  58.117 -57.468  1.00  0.00    -0.321 OA
HETATM   25  C   UNL     1     -46.158  56.274 -60.621  1.00  0.00     0.070 A 
HETATM   26  C   UNL     1     -44.829  55.842 -60.685  1.00  0.00     0.038 A 
HETATM   27  C   UNL     1     -44.764  58.116 -56.733  1.00  0.00     0.151 A 
BRANCH  25  28
HETATM   28  O   UNL     1     -46.949  55.871 -61.667  1.00  0.00    -0.356 OA
HETATM   29  C   UNL     1     -48.110  56.669 -61.888  1.00  0.00     0.210 C 
ENDBRANCH  25  28
ENDBRANCH  18  19
ENDBRANCH   1  18
TORSDOF 6
ENDMDL
MODEL 8
REMARK VINA RESULT:      -7.6      2.118      5.014
REMARK  6 active torsions:
REMARK  status: ('A' for Active; 'I' for Inactive)
REMARK    1  A    between atoms: O_2  and  C_3 
REMARK    2  A    between atoms: C_7  and  C_8 
REMARK    3  A    between atoms: C_8  and  C_9 
REMARK       I    between atoms: C_9  and  N_10 
REMARK    4  A    between atoms: N_10  and  C_11 
REMARK    5  A    between atoms: C_12  and  C_13 
REMARK       I    between atoms: C_13  and  N_14 
REMARK    6  A    between atoms: N_14  and  C_15 
ROOT
HETATM    1  C   UNL     1     -43.832  56.853 -50.947  1.00  0.00     0.226 C 
HETATM    2  N   UNL     1     -42.754  57.706 -51.091  1.00  0.00    -0.326 N 
HETATM    3  O   UNL     1     -45.012  57.196 -50.948  1.00  0.00    -0.273 OA
HETATM    4  H   UNL     1     -41.841  57.340 -50.831  1.00  0.00     0.169 HD
ENDROOT
BRANCH   2   5
HETATM    5  C   UNL     1     -42.785  59.058 -51.526  1.00  0.00     0.050 A 
HETATM    6  C   UNL     1     -42.529  59.369 -52.877  1.00  0.00     0.058 A 
HETATM    7  C   UNL     1     -42.693  60.675 -53.360  1.00  0.00     0.019 A 
HETATM    8  C   UNL     1     -43.079  61.695 -52.496  1.00  0.00     0.001 A 
HETATM    9  C   UNL     1     -43.298  61.410 -51.152  1.00  0.00     0.002 A 
HETATM   10  C   UNL     1     -43.157  60.102 -50.671  1.00  0.00     0.030 A 
BRANCH   6  11
HETATM   11  C   UNL     1     -42.027  58.364 -53.846  1.00  0.00     0.254 C 
HETATM   12  N   UNL     1     -42.702  58.336 -55.051  1.00  0.00    -0.352 N 
HETATM   13  H   UNL     1     -43.540  58.900 -55.150  1.00  0.00     0.163 HD
HETATM   14  O   UNL     1     -41.102  57.623 -53.541  1.00  0.00    -0.268 OA
BRANCH  12  15
HETATM   15  C   UNL     1     -42.452  57.335 -56.037  1.00  0.00     0.084 A 
HETATM   16  C   UNL     1     -43.531  56.939 -57.007  1.00  0.00     0.027 A 
HETATM   17  C   UNL     1     -42.335  57.705 -57.490  1.00  0.00     0.027 A 
ENDBRANCH  12  15
ENDBRANCH   6  11
ENDBRANCH   2   5
BRANCH   1  18
HETATM   18  C   UNL     1     -43.464  55.380 -50.871  1.00  0.00     0.144 C 
BRANCH  18  19
HETATM   19  C   UNL     1     -42.952  54.795 -52.143  1.00  0.00    -0.014 A 
HETATM   20  C   UNL     1     -41.856  53.895 -52.313  1.00  0.00     0.006 A 
HETATM   21  C   UNL     1     -41.844  53.556 -53.660  1.00  0.00     0.088 A 
HETATM   22  C   UNL     1     -40.891  53.311 -51.473  1.00  0.00     0.017 A 
HETATM   23  C   UNL     1     -40.964  52.647 -54.242  1.00  0.00     0.074 A 
HETATM   24  O   UNL     1     -42.825  54.227 -54.323  1.00  0.00    -0.321 OA
HETATM   25  C   UNL     1     -40.041  52.044 -53.383  1.00  0.00     0.070 A 
HETATM   26  C   UNL     1     -39.986  52.396 -52.030  1.00  0.00     0.038 A 
HETATM   27  C   UNL     1     -43.493  54.965 -53.403  1.00  0.00     0.151 A 
BRANCH  25  28
HETATM   28  O   UNL     1     -39.118  51.109 -53.777  1.00  0.00    -0.356 OA
HETATM   29  C   UNL     1     -39.595  49.765 -53.805  1.00  0.00     0.210 C 
ENDBRANCH  25  28
ENDBRANCH  18  19
ENDBRANCH   1  18
TORSDOF 6
ENDMDL
MODEL 9
REMARK VINA RESULT:      -7.5      1.034      1.330
REMARK  6 active torsions:
REMARK  status: ('A' for Active; 'I' for Inactive)
REMARK    1  A    between atoms: O_2  and  C_3 
REMARK    2  A    between atoms: C_7  and  C_8 
REMARK    3  A    between atoms: C_8  and  C_9 
REMARK       I    between atoms: C_9  and  N_10 
REMARK    4  A    between atoms: N_10  and  C_11 
REMARK    5  A    between atoms: C_12  and  C_13 
REMARK       I    between atoms: C_13  and  N_14 
REMARK    6  A    between atoms: N_14  and  C_15 
ROOT
HETATM    1  C   UNL     1     -41.982  54.864 -55.864  1.00  0.00     0.226 C 
HETATM    2  N   UNL     1     -42.080  55.891 -56.784  1.00  0.00    -0.326 N 
HETATM    3  O   UNL     1     -42.927  54.209 -55.429  1.00  0.00    -0.273 OA
HETATM    4  H   UNL     1     -41.274  56.504 -56.875  1.00  0.00     0.169 HD
ENDROOT
BRANCH   2   5
HETATM    5  C   UNL     1     -43.204  56.211 -57.591  1.00  0.00     0.050 A 
HETATM    6  C   UNL     1     -43.968  57.361 -57.311  1.00  0.00     0.058 A 
HETATM    7  C   UNL     1     -44.993  57.775 -58.175  1.00  0.00     0.019 A 
HETATM    8  C   UNL     1     -45.292  57.029 -59.310  1.00  0.00     0.001 A 
HETATM    9  C   UNL     1     -44.570  55.870 -59.580  1.00  0.00     0.002 A 
HETATM   10  C   UNL     1     -43.532  55.467 -58.731  1.00  0.00     0.030 A 
BRANCH   6  11
HETATM   11  C   UNL     1     -43.779  58.164 -56.077  1.00  0.00     0.254 C 
HETATM   12  N   UNL     1     -44.319  57.605 -54.936  1.00  0.00    -0.352 N 
HETATM   13  H   UNL     1     -44.891  56.771 -55.028  1.00  0.00     0.163 HD
HETATM   14  O   UNL     1     -43.206  59.244 -56.127  1.00  0.00    -0.268 OA
BRANCH  12  15
HETATM   15  C   UNL     1     -44.362  58.308 -53.694  1.00  0.00     0.084 A 
HETATM   16  C   UNL     1     -44.602  57.565 -52.410  1.00  0.00     0.027 A 
HETATM   17  C   UNL     1     -43.252  58.157 -52.690  1.00  0.00     0.027 A 
ENDBRANCH  12  15
ENDBRANCH   6  11
ENDBRANCH   2   5
BRANCH   1  18
HETATM   18  C   UNL     1     -40.558  54.511 -55.464  1.00  0.00     0.144 C 
BRANCH  18  19
HETATM   19  C   UNL     1     -40.441  53.690 -54.225  1.00  0.00    -0.014 A 
HETATM   20  C   UNL     1     -40.699  54.096 -52.879  1.00  0.00     0.006 A 
HETATM   21  C   UNL     1     -40.556  52.954 -52.101  1.00  0.00     0.088 A 
HETATM   22  C   UNL     1     -41.060  55.294 -52.239  1.00  0.00     0.017 A 
HETATM   23  C   UNL     1     -40.780  52.896 -50.727  1.00  0.00     0.074 A 
HETATM   24  O   UNL     1     -40.183  51.900 -52.877  1.00  0.00    -0.321 OA
HETATM   25  C   UNL     1     -41.181  54.088 -50.116  1.00  0.00     0.070 A 
HETATM   26  C   UNL     1     -41.286  55.271 -50.855  1.00  0.00     0.038 A 
HETATM   27  C   UNL     1     -40.123  52.347 -54.154  1.00  0.00     0.151 A 
BRANCH  25  28
HETATM   28  O   UNL     1     -41.469  54.210 -48.781  1.00  0.00    -0.356 OA
HETATM   29  C   UNL     1     -40.369  53.981 -47.903  1.00  0.00     0.210 C 
ENDBRANCH  25  28
ENDBRANCH  18  19
ENDBRANCH   1  18
TORSDOF 6
ENDMDL
MODEL 10
REMARK VINA RESULT:      -7.5      2.542      4.780
REMARK  6 active torsions:
REMARK  status: ('A' for Active; 'I' for Inactive)
REMARK    1  A    between atoms: O_2  and  C_3 
REMARK    2  A    between atoms: C_7  and  C_8 
REMARK    3  A    between atoms: C_8  and  C_9 
REMARK       I    between atoms: C_9  and  N_10 
REMARK    4  A    between atoms: N_10  and  C_11 
REMARK    5  A    between atoms: C_12  and  C_13 
REMARK       I    between atoms: C_13  and  N_14 
REMARK    6  A    between atoms: N_14  and  C_15 
ROOT
HETATM    1  C   UNL     1     -42.556  57.182 -55.350  1.00  0.00     0.226 C 
HETATM    2  N   UNL     1     -42.156  57.220 -56.673  1.00  0.00    -0.326 N 
HETATM    3  O   UNL     1     -43.711  57.017 -54.963  1.00  0.00    -0.273 OA
HETATM    4  H   UNL     1     -41.233  57.601 -56.862  1.00  0.00     0.169 HD
ENDROOT
BRANCH   2   5
HETATM    5  C   UNL     1     -42.912  56.820 -57.807  1.00  0.00     0.050 A 
HETATM    6  C   UNL     1     -43.363  57.786 -58.728  1.00  0.00     0.058 A 
HETATM    7  C   UNL     1     -43.987  57.405 -59.926  1.00  0.00     0.019 A 
HETATM    8  C   UNL     1     -44.202  56.059 -60.202  1.00  0.00     0.001 A 
HETATM    9  C   UNL     1     -43.795  55.096 -59.284  1.00  0.00     0.002 A 
HETATM   10  C   UNL     1     -43.152  55.472 -58.099  1.00  0.00     0.030 A 
BRANCH   6  11
HETATM   11  C   UNL     1     -43.258  59.243 -58.472  1.00  0.00     0.254 C 
HETATM   12  N   UNL     1     -42.497  59.938 -59.391  1.00  0.00    -0.352 N 
HETATM   13  H   UNL     1     -41.981  59.413 -60.089  1.00  0.00     0.163 HD
HETATM   14  O   UNL     1     -43.801  59.737 -57.492  1.00  0.00    -0.268 OA
BRANCH  12  15
HETATM   15  C   UNL     1     -42.167  61.316 -59.216  1.00  0.00     0.084 A 
HETATM   16  C   UNL     1     -40.967  61.710 -58.399  1.00  0.00     0.027 A 
HETATM   17  C   UNL     1     -40.956  61.904 -59.887  1.00  0.00     0.027 A 
ENDBRANCH  12  15
ENDBRANCH   6  11
ENDBRANCH   2   5
BRANCH   1  18
HETATM   18  C   UNL     1     -41.419  57.273 -54.345  1.00  0.00     0.144 C 
BRANCH  18  19
HETATM   19  C   UNL     1     -41.357  56.151 -53.366  1.00  0.00    -0.014 A 
HETATM   20  C   UNL     1     -40.941  54.804 -53.604  1.00  0.00     0.006 A 
HETATM   21  C   UNL     1     -40.954  54.176 -52.364  1.00  0.00     0.088 A 
HETATM   22  C   UNL     1     -40.533  54.058 -54.722  1.00  0.00     0.017 A 
HETATM   23  C   UNL     1     -40.555  52.860 -52.138  1.00  0.00     0.074 A 
HETATM   24  O   UNL     1     -41.395  55.035 -51.405  1.00  0.00    -0.321 OA
HETATM   25  C   UNL     1     -40.111  52.148 -53.256  1.00  0.00     0.070 A 
HETATM   26  C   UNL     1     -40.132  52.728 -54.529  1.00  0.00     0.038 A 
HETATM   27  C   UNL     1     -41.628  56.223 -52.013  1.00  0.00     0.151 A 
BRANCH  25  28
HETATM   28  O   UNL     1     -39.659  50.854 -53.216  1.00  0.00    -0.356 OA
HETATM   29  C   UNL     1     -39.794  50.130 -54.437  1.00  0.00     0.210 C 
ENDBRANCH  25  28
ENDBRANCH  18  19
ENDBRANCH   1  18
TORSDOF 6
ENDMDL
