MODEL 1
REMARK VINA RESULT:      -8.0      0.000      0.000
REMARK  5 active torsions:
REMARK  status: ('A' for Active; 'I' for Inactive)
REMARK    1  A    between atoms: C_2  and  C_3 
REMARK    2  A    between atoms: C_3  and  N_4 
REMARK    3  A    between atoms: N_4  and  C_7 
REMARK    4  A    between atoms: C_10  and  O_11 
REMARK    5  A    between atoms: O_11  and  C_12 
ROOT
HETATM    1  C   UNL     1     -40.627  54.229 -53.469  1.00  0.00     0.164 A 
HETATM    2  N   UNL     1     -40.645  54.201 -52.121  1.00  0.00    -0.236 NA
HETATM    3  C   UNL     1     -40.257  53.040 -51.536  1.00  0.00     0.142 A 
HETATM    4  C   UNL     1     -39.860  51.909 -52.239  1.00  0.00     0.062 A 
HETATM    5  C   UNL     1     -39.464  50.725 -51.547  1.00  0.00     0.101 C 
HETATM    6  N   UNL     1     -39.143  49.765 -50.982  1.00  0.00    -0.191 NA
HETATM    7  C   UNL     1     -39.867  51.971 -53.632  1.00  0.00     0.028 A 
HETATM    8  C   UNL     1     -40.263  53.150 -54.260  1.00  0.00     0.059 A 
ENDROOT
BRANCH   1   9
HETATM    9  O   UNL     1     -41.032  55.367 -54.134  1.00  0.00    -0.329 OA
BRANCH   9  10
HETATM   10  C   UNL     1     -42.418  55.698 -53.978  1.00  0.00     0.130 C 
HETATM   11  C   UNL     1     -42.563  57.161 -54.418  1.00  0.00     0.034 C 
HETATM   12  C   UNL     1     -42.187  57.352 -55.891  1.00  0.00     0.035 C 
HETATM   13  C   UNL     1     -42.962  56.429 -56.839  1.00  0.00     0.186 C 
HETATM   14  C   UNL     1     -42.939  54.971 -56.361  1.00  0.00     0.035 C 
HETATM   15  C   UNL     1     -43.285  54.806 -54.878  1.00  0.00     0.034 C 
BRANCH  13  16
HETATM   16  N   UNL     1     -44.394  56.881 -56.962  1.00  0.00    -0.067 N 
HETATM   17  H   UNL     1     -44.788  57.146 -56.052  1.00  0.00     0.277 HD
HETATM   18  H   UNL     1     -44.973  56.092 -57.282  1.00  0.00     0.277 HD
BRANCH  16  19
HETATM   19  C   UNL     1     -44.626  57.995 -57.934  1.00  0.00     0.271 C 
BRANCH  19  20
HETATM   20  C   UNL     1     -45.463  57.552 -59.098  1.00  0.00    -0.030 A 
HETATM   21  C   UNL     1     -45.299  56.271 -59.650  1.00  0.00     0.012 A 
HETATM   22  C   UNL     1     -46.103  55.850 -60.712  1.00  0.00     0.040 A 
HETATM   23  C   UNL     1     -47.079  56.699 -61.227  1.00  0.00     0.102 A 
HETATM   24  C   UNL     1     -47.222  57.989 -60.714  1.00  0.00     0.102 A 
HETATM   25  O   UNL     1     -47.863  56.201 -62.233  1.00  0.00    -0.346 OA
HETATM   26  C   UNL     1     -46.423  58.413 -59.652  1.00  0.00     0.048 A 
HETATM   27  O   UNL     1     -48.141  58.889 -61.185  1.00  0.00    -0.346 OA
HETATM   28  C   UNL     1     -48.718  58.463 -62.429  1.00  0.00     0.202 C 
HETATM   29  C   UNL     1     -49.055  56.981 -62.394  1.00  0.00     0.202 C 
ENDBRANCH  19  20
ENDBRANCH  16  19
ENDBRANCH  13  16
ENDBRANCH   9  10
ENDBRANCH   1   9
TORSDOF 5
ENDMDL
MODEL 2
REMARK VINA RESULT:      -7.9      6.289      8.818
REMARK  5 active torsions:
REMARK  status: ('A' for Active; 'I' for Inactive)
REMARK    1  A    between atoms: C_2  and  C_3 
REMARK    2  A    between atoms: C_3  and  N_4 
REMARK    3  A    between atoms: N_4  and  C_7 
REMARK    4  A    between atoms: C_10  and  O_11 
REMARK    5  A    between atoms: O_11  and  C_12 
ROOT
HETATM    1  C   UNL     1     -40.771  54.303 -52.620  1.00  0.00     0.164 A 
HETATM    2  N   UNL     1     -40.261  53.434 -51.723  1.00  0.00    -0.236 NA
HETATM    3  C   UNL     1     -39.929  52.206 -52.194  1.00  0.00     0.142 A 
HETATM    4  C   UNL     1     -40.093  51.808 -53.515  1.00  0.00     0.062 A 
HETATM    5  C   UNL     1     -39.716  50.495 -53.931  1.00  0.00     0.101 C 
HETATM    6  N   UNL     1     -39.410  49.428 -54.265  1.00  0.00    -0.191 NA
HETATM    7  C   UNL     1     -40.635  52.728 -54.411  1.00  0.00     0.028 A 
HETATM    8  C   UNL     1     -40.987  53.997 -53.955  1.00  0.00     0.059 A 
ENDROOT
BRANCH   1   9
HETATM    9  O   UNL     1     -41.155  55.561 -52.209  1.00  0.00    -0.329 OA
BRANCH   9  10
HETATM   10  C   UNL     1     -41.716  56.388 -53.237  1.00  0.00     0.130 C 
HETATM   11  C   UNL     1     -43.138  56.738 -52.779  1.00  0.00     0.034 C 
HETATM   12  C   UNL     1     -43.135  57.535 -51.470  1.00  0.00     0.035 C 
HETATM   13  C   UNL     1     -42.268  58.797 -51.531  1.00  0.00     0.186 C 
HETATM   14  C   UNL     1     -40.873  58.505 -52.100  1.00  0.00     0.035 C 
HETATM   15  C   UNL     1     -40.898  57.679 -53.390  1.00  0.00     0.034 C 
BRANCH  13  16
HETATM   16  N   UNL     1     -42.930  59.852 -52.378  1.00  0.00    -0.067 N 
HETATM   17  H   UNL     1     -42.851  59.640 -53.379  1.00  0.00     0.277 HD
HETATM   18  H   UNL     1     -42.433  60.746 -52.258  1.00  0.00     0.277 HD
BRANCH  16  19
HETATM   19  C   UNL     1     -44.365  60.121 -52.050  1.00  0.00     0.271 C 
BRANCH  19  20
HETATM   20  C   UNL     1     -44.513  60.813 -50.727  1.00  0.00    -0.030 A 
HETATM   21  C   UNL     1     -43.872  62.040 -50.487  1.00  0.00     0.012 A 
HETATM   22  C   UNL     1     -44.039  62.698 -49.266  1.00  0.00     0.040 A 
HETATM   23  C   UNL     1     -44.850  62.142 -48.280  1.00  0.00     0.102 A 
HETATM   24  C   UNL     1     -45.457  60.904 -48.492  1.00  0.00     0.102 A 
HETATM   25  O   UNL     1     -45.008  62.867 -47.129  1.00  0.00    -0.346 OA
HETATM   26  C   UNL     1     -45.296  60.244 -49.711  1.00  0.00     0.048 A 
HETATM   27  O   UNL     1     -46.247  60.283 -47.561  1.00  0.00    -0.346 OA
HETATM   28  C   UNL     1     -46.136  60.899 -46.269  1.00  0.00     0.202 C 
HETATM   29  C   UNL     1     -46.147  62.415 -46.385  1.00  0.00     0.202 C 
ENDBRANCH  19  20
ENDBRANCH  16  19
ENDBRANCH  13  16
ENDBRANCH   9  10
ENDBRANCH   1   9
TORSDOF 5
ENDMDL
MODEL 3
REMARK VINA RESULT:      -7.5      6.030     10.338
REMARK  5 active torsions:
REMARK  status: ('A' for Active; 'I' for Inactive)
REMARK    1  A    between atoms: C_2  and  C_3 
REMARK    2  A    between atoms: C_3  and  N_4 
REMARK    3  A    between atoms: N_4  and  C_7 
REMARK    4  A    between atoms: C_10  and  O_11 
REMARK    5  A    between atoms: O_11  and  C_12 
ROOT
HETATM    1  C   UNL     1     -43.959  60.517 -51.007  1.00  0.00     0.164 A 
HETATM    2  N   UNL     1     -45.158  60.815 -51.549  1.00  0.00    -0.236 NA
HETATM    3  C   UNL     1     -46.032  61.479 -50.751  1.00  0.00     0.142 A 
HETATM    4  C   UNL     1     -45.762  61.848 -49.439  1.00  0.00     0.062 A 
HETATM    5  C   UNL     1     -46.738  62.548 -48.666  1.00  0.00     0.101 C 
HETATM    6  N   UNL     1     -47.532  63.115 -48.041  1.00  0.00    -0.191 NA
HETATM    7  C   UNL     1     -44.518  61.512 -48.909  1.00  0.00     0.028 A 
HETATM    8  C   UNL     1     -43.600  60.828 -49.705  1.00  0.00     0.059 A 
ENDROOT
BRANCH   1   9
HETATM    9  O   UNL     1     -43.029  59.822 -51.749  1.00  0.00    -0.329 OA
BRANCH   9  10
HETATM   10  C   UNL     1     -42.646  58.552 -51.204  1.00  0.00     0.130 C 
HETATM   11  C   UNL     1     -43.755  57.565 -51.593  1.00  0.00     0.034 C 
HETATM   12  C   UNL     1     -43.878  57.417 -53.113  1.00  0.00     0.035 C 
HETATM   13  C   UNL     1     -42.559  57.034 -53.793  1.00  0.00     0.186 C 
HETATM   14  C   UNL     1     -41.399  57.928 -53.335  1.00  0.00     0.035 C 
HETATM   15  C   UNL     1     -41.314  58.090 -51.814  1.00  0.00     0.034 C 
BRANCH  13  16
HETATM   16  N   UNL     1     -42.213  55.597 -53.504  1.00  0.00    -0.067 N 
HETATM   17  H   UNL     1     -42.954  54.958 -53.815  1.00  0.00     0.277 HD
HETATM   18  H   UNL     1     -42.156  55.459 -52.485  1.00  0.00     0.277 HD
BRANCH  16  19
HETATM   19  C   UNL     1     -40.906  55.133 -54.066  1.00  0.00     0.271 C 
BRANCH  19  20
HETATM   20  C   UNL     1     -40.572  53.740 -53.617  1.00  0.00    -0.030 A 
HETATM   21  C   UNL     1     -40.215  52.754 -54.552  1.00  0.00     0.012 A 
HETATM   22  C   UNL     1     -39.872  51.468 -54.128  1.00  0.00     0.040 A 
HETATM   23  C   UNL     1     -39.876  51.158 -52.771  1.00  0.00     0.102 A 
HETATM   24  C   UNL     1     -40.269  52.117 -51.837  1.00  0.00     0.102 A 
HETATM   25  O   UNL     1     -39.480  49.893 -52.424  1.00  0.00    -0.346 OA
HETATM   26  C   UNL     1     -40.610  53.404 -52.255  1.00  0.00     0.048 A 
HETATM   27  O   UNL     1     -40.323  51.879 -50.489  1.00  0.00    -0.346 OA
HETATM   28  C   UNL     1     -40.216  50.479 -50.188  1.00  0.00     0.202 C 
HETATM   29  C   UNL     1     -39.138  49.820 -51.034  1.00  0.00     0.202 C 
ENDBRANCH  19  20
ENDBRANCH  16  19
ENDBRANCH  13  16
ENDBRANCH   9  10
ENDBRANCH   1   9
TORSDOF 5
ENDMDL
MODEL 4
REMARK VINA RESULT:      -7.5      6.239      8.853
REMARK  5 active torsions:
REMARK  status: ('A' for Active; 'I' for Inactive)
REMARK    1  A    between atoms: C_2  and  C_3 
REMARK    2  A    between atoms: C_3  and  N_4 
REMARK    3  A    between atoms: N_4  and  C_7 
REMARK    4  A    between atoms: C_10  and  O_11 
REMARK    5  A    between atoms: O_11  and  C_12 
ROOT
HETATM    1  C   UNL     1     -40.755  54.692 -52.963  1.00  0.00     0.164 A 
HETATM    2  N   UNL     1     -40.542  53.811 -51.965  1.00  0.00    -0.236 NA
HETATM    3  C   UNL     1     -40.228  52.543 -52.335  1.00  0.00     0.142 A 
HETATM    4  C   UNL     1     -40.126  52.121 -53.654  1.00  0.00     0.062 A 
HETATM    5  C   UNL     1     -39.788  50.767 -53.960  1.00  0.00     0.101 C 
HETATM    6  N   UNL     1     -39.515  49.668 -54.205  1.00  0.00    -0.191 NA
HETATM    7  C   UNL     1     -40.366  53.056 -54.660  1.00  0.00     0.028 A 
HETATM    8  C   UNL     1     -40.692  54.365 -54.309  1.00  0.00     0.059 A 
ENDROOT
BRANCH   1   9
HETATM    9  O   UNL     1     -41.103  55.991 -52.664  1.00  0.00    -0.329 OA
BRANCH   9  10
HETATM   10  C   UNL     1     -41.981  56.140 -51.540  1.00  0.00     0.130 C 
HETATM   11  C   UNL     1     -41.411  57.291 -50.699  1.00  0.00     0.034 C 
HETATM   12  C   UNL     1     -41.399  58.611 -51.475  1.00  0.00     0.035 C 
HETATM   13  C   UNL     1     -42.770  58.993 -52.045  1.00  0.00     0.186 C 
HETATM   14  C   UNL     1     -43.423  57.823 -52.792  1.00  0.00     0.035 C 
HETATM   15  C   UNL     1     -43.395  56.505 -52.012  1.00  0.00     0.034 C 
BRANCH  13  16
HETATM   16  N   UNL     1     -43.692  59.445 -50.943  1.00  0.00    -0.067 N 
HETATM   17  H   UNL     1     -43.171  59.727 -50.104  1.00  0.00     0.277 HD
HETATM   18  H   UNL     1     -44.273  58.652 -50.638  1.00  0.00     0.277 HD
BRANCH  16  19
HETATM   19  C   UNL     1     -44.638  60.543 -51.317  1.00  0.00     0.271 C 
BRANCH  19  20
HETATM   20  C   UNL     1     -45.216  61.215 -50.106  1.00  0.00    -0.030 A 
HETATM   21  C   UNL     1     -44.652  61.009 -48.837  1.00  0.00     0.012 A 
HETATM   22  C   UNL     1     -45.172  61.663 -47.717  1.00  0.00     0.040 A 
HETATM   23  C   UNL     1     -46.253  62.529 -47.856  1.00  0.00     0.102 A 
HETATM   24  C   UNL     1     -46.848  62.708 -49.105  1.00  0.00     0.102 A 
HETATM   25  O   UNL     1     -46.678  63.174 -46.725  1.00  0.00    -0.346 OA
HETATM   26  C   UNL     1     -46.330  62.060 -50.227  1.00  0.00     0.048 A 
HETATM   27  O   UNL     1     -47.929  63.523 -49.315  1.00  0.00    -0.346 OA
HETATM   28  C   UNL     1     -48.543  63.927 -48.082  1.00  0.00     0.202 C 
HETATM   29  C   UNL     1     -47.493  64.308 -47.049  1.00  0.00     0.202 C 
ENDBRANCH  19  20
ENDBRANCH  16  19
ENDBRANCH  13  16
ENDBRANCH   9  10
ENDBRANCH   1   9
TORSDOF 5
ENDMDL
MODEL 5
REMARK VINA RESULT:      -7.4     15.716     18.473
REMARK  5 active torsions:
REMARK  status: ('A' for Active; 'I' for Inactive)
REMARK    1  A    between atoms: C_2  and  C_3 
REMARK    2  A    between atoms: C_3  and  N_4 
REMARK    3  A    between atoms: N_4  and  C_7 
REMARK    4  A    between atoms: C_10  and  O_11 
REMARK    5  A    between atoms: O_11  and  C_12 
ROOT
HETATM    1  C   UNL     1     -31.677  39.420 -55.125  1.00  0.00     0.164 A 
HETATM    2  N   UNL     1     -31.051  40.060 -56.134  1.00  0.00    -0.236 NA
HETATM    3  C   UNL     1     -29.908  39.492 -56.593  1.00  0.00     0.142 A 
HETATM    4  C   UNL     1     -29.362  38.320 -56.083  1.00  0.00     0.062 A 
HETATM    5  C   UNL     1     -28.154  37.785 -56.624  1.00  0.00     0.101 C 
HETATM    6  N   UNL     1     -27.173  37.353 -57.066  1.00  0.00    -0.191 NA
HETATM    7  C   UNL     1     -30.030  37.692 -55.032  1.00  0.00     0.028 A 
HETATM    8  C   UNL     1     -31.206  38.255 -54.539  1.00  0.00     0.059 A 
ENDROOT
BRANCH   1   9
HETATM    9  O   UNL     1     -32.830  39.952 -54.591  1.00  0.00    -0.329 OA
BRANCH   9  10
HETATM   10  C   UNL     1     -34.044  39.522 -55.221  1.00  0.00     0.130 C 
HETATM   11  C   UNL     1     -35.114  39.496 -54.121  1.00  0.00     0.034 C 
HETATM   12  C   UNL     1     -35.350  40.887 -53.524  1.00  0.00     0.035 C 
HETATM   13  C   UNL     1     -35.691  41.949 -54.576  1.00  0.00     0.186 C 
HETATM   14  C   UNL     1     -34.707  41.922 -55.753  1.00  0.00     0.035 C 
HETATM   15  C   UNL     1     -34.460  40.518 -56.313  1.00  0.00     0.034 C 
BRANCH  13  16
HETATM   16  N   UNL     1     -37.088  41.743 -55.100  1.00  0.00    -0.067 N 
HETATM   17  H   UNL     1     -37.794  41.913 -54.375  1.00  0.00     0.277 HD
HETATM   18  H   UNL     1     -37.211  40.755 -55.363  1.00  0.00     0.277 HD
BRANCH  16  19
HETATM   19  C   UNL     1     -37.435  42.547 -56.314  1.00  0.00     0.271 C 
BRANCH  19  20
HETATM   20  C   UNL     1     -37.536  41.688 -57.540  1.00  0.00    -0.030 A 
HETATM   21  C   UNL     1     -37.145  42.185 -58.794  1.00  0.00     0.012 A 
HETATM   22  C   UNL     1     -37.208  41.371 -59.929  1.00  0.00     0.040 A 
HETATM   23  C   UNL     1     -37.655  40.057 -59.819  1.00  0.00     0.102 A 
HETATM   24  C   UNL     1     -38.085  39.567 -58.586  1.00  0.00     0.102 A 
HETATM   25  O   UNL     1     -37.642  39.303 -60.962  1.00  0.00    -0.346 OA
HETATM   26  C   UNL     1     -38.021  40.374 -57.450  1.00  0.00     0.048 A 
HETATM   27  O   UNL     1     -38.561  38.295 -58.405  1.00  0.00    -0.346 OA
HETATM   28  C   UNL     1     -38.835  37.644 -59.655  1.00  0.00     0.202 C 
HETATM   29  C   UNL     1     -37.725  37.904 -60.661  1.00  0.00     0.202 C 
ENDBRANCH  19  20
ENDBRANCH  16  19
ENDBRANCH  13  16
ENDBRANCH   9  10
ENDBRANCH   1   9
TORSDOF 5
ENDMDL
MODEL 6
REMARK VINA RESULT:      -7.4     15.943     19.273
REMARK  5 active torsions:
REMARK  status: ('A' for Active; 'I' for Inactive)
REMARK    1  A    between atoms: C_2  and  C_3 
REMARK    2  A    between atoms: C_3  and  N_4 
REMARK    3  A    between atoms: N_4  and  C_7 
REMARK    4  A    between atoms: C_10  and  O_11 
REMARK    5  A    between atoms: O_11  and  C_12 
ROOT
HETATM    1  C   UNL     1     -37.565  39.114 -59.281  1.00  0.00     0.164 A 
HETATM    2  N   UNL     1     -38.660  38.355 -59.074  1.00  0.00    -0.236 NA
HETATM    3  C   UNL     1     -39.338  37.958 -60.180  1.00  0.00     0.142 A 
HETATM    4  C   UNL     1     -38.973  38.292 -61.478  1.00  0.00     0.062 A 
HETATM    5  C   UNL     1     -39.740  37.832 -62.590  1.00  0.00     0.101 C 
HETATM    6  N   UNL     1     -40.366  37.456 -63.491  1.00  0.00    -0.191 NA
HETATM    7  C   UNL     1     -37.842  39.089 -61.653  1.00  0.00     0.028 A 
HETATM    8  C   UNL     1     -37.127  39.513 -60.535  1.00  0.00     0.059 A 
ENDROOT
BRANCH   1   9
HETATM    9  O   UNL     1     -36.839  39.575 -58.204  1.00  0.00    -0.329 OA
BRANCH   9  10
HETATM   10  C   UNL     1     -37.547  39.584 -56.957  1.00  0.00     0.130 C 
HETATM   11  C   UNL     1     -36.482  39.473 -55.857  1.00  0.00     0.034 C 
HETATM   12  C   UNL     1     -35.521  40.667 -55.873  1.00  0.00     0.035 C 
HETATM   13  C   UNL     1     -36.235  42.020 -55.790  1.00  0.00     0.186 C 
HETATM   14  C   UNL     1     -37.388  42.120 -56.798  1.00  0.00     0.035 C 
HETATM   15  C   UNL     1     -38.316  40.902 -56.790  1.00  0.00     0.034 C 
BRANCH  13  16
HETATM   16  N   UNL     1     -36.776  42.248 -54.403  1.00  0.00    -0.067 N 
HETATM   17  H   UNL     1     -37.500  41.561 -54.161  1.00  0.00     0.277 HD
HETATM   18  H   UNL     1     -37.256  43.159 -54.370  1.00  0.00     0.277 HD
BRANCH  16  19
HETATM   19  C   UNL     1     -35.748  42.274 -53.317  1.00  0.00     0.271 C 
BRANCH  19  20
HETATM   20  C   UNL     1     -36.064  41.289 -52.229  1.00  0.00    -0.030 A 
HETATM   21  C   UNL     1     -35.176  41.100 -51.157  1.00  0.00     0.012 A 
HETATM   22  C   UNL     1     -35.489  40.207 -50.129  1.00  0.00     0.040 A 
HETATM   23  C   UNL     1     -36.689  39.502 -50.160  1.00  0.00     0.102 A 
HETATM   24  C   UNL     1     -37.558  39.651 -51.241  1.00  0.00     0.102 A 
HETATM   25  O   UNL     1     -36.952  38.683 -49.094  1.00  0.00    -0.346 OA
HETATM   26  C   UNL     1     -37.252  40.543 -52.268  1.00  0.00     0.048 A 
HETATM   27  O   UNL     1     -38.743  38.973 -51.354  1.00  0.00    -0.346 OA
HETATM   28  C   UNL     1     -38.840  37.902 -50.402  1.00  0.00     0.202 C 
HETATM   29  C   UNL     1     -38.343  38.341 -49.034  1.00  0.00     0.202 C 
ENDBRANCH  19  20
ENDBRANCH  16  19
ENDBRANCH  13  16
ENDBRANCH   9  10
ENDBRANCH   1   9
TORSDOF 5
ENDMDL
MODEL 7
REMARK VINA RESULT:      -7.3     16.293     17.875
REMARK  5 active torsions:
REMARK  status: ('A' for Active; 'I' for Inactive)
REMARK    1  A    between atoms: C_2  and  C_3 
REMARK    2  A    between atoms: C_3  and  N_4 
REMARK    3  A    between atoms: N_4  and  C_7 
REMARK    4  A    between atoms: C_10  and  O_11 
REMARK    5  A    between atoms: O_11  and  C_12 
ROOT
HETATM    1  C   UNL     1     -33.674  39.974 -52.867  1.00  0.00     0.164 A 
HETATM    2  N   UNL     1     -32.507  39.316 -52.720  1.00  0.00    -0.236 NA
HETATM    3  C   UNL     1     -31.949  39.347 -51.483  1.00  0.00     0.142 A 
HETATM    4  C   UNL     1     -32.502  40.011 -50.396  1.00  0.00     0.062 A 
HETATM    5  C   UNL     1     -31.851  39.993 -49.125  1.00  0.00     0.101 C 
HETATM    6  N   UNL     1     -31.320  39.977 -48.095  1.00  0.00    -0.191 NA
HETATM    7  C   UNL     1     -33.704  40.691 -50.589  1.00  0.00     0.028 A 
HETATM    8  C   UNL     1     -34.299  40.678 -51.849  1.00  0.00     0.059 A 
ENDROOT
BRANCH   1   9
HETATM    9  O   UNL     1     -34.288  40.008 -54.101  1.00  0.00    -0.329 OA
BRANCH   9  10
HETATM   10  C   UNL     1     -34.013  41.178 -54.882  1.00  0.00     0.130 C 
HETATM   11  C   UNL     1     -33.564  40.678 -56.262  1.00  0.00     0.034 C 
HETATM   12  C   UNL     1     -34.666  39.880 -56.965  1.00  0.00     0.035 C 
HETATM   13  C   UNL     1     -35.990  40.646 -57.078  1.00  0.00     0.186 C 
HETATM   14  C   UNL     1     -36.409  41.263 -55.738  1.00  0.00     0.035 C 
HETATM   15  C   UNL     1     -35.283  42.027 -55.036  1.00  0.00     0.034 C 
BRANCH  13  16
HETATM   16  N   UNL     1     -35.881  41.740 -58.108  1.00  0.00    -0.067 N 
HETATM   17  H   UNL     1     -35.099  41.577 -58.753  1.00  0.00     0.277 HD
HETATM   18  H   UNL     1     -35.654  42.628 -57.638  1.00  0.00     0.277 HD
BRANCH  16  19
HETATM   19  C   UNL     1     -37.123  41.989 -58.905  1.00  0.00     0.271 C 
BRANCH  19  20
HETATM   20  C   UNL     1     -37.638  40.730 -59.540  1.00  0.00    -0.030 A 
HETATM   21  C   UNL     1     -38.543  39.903 -58.855  1.00  0.00     0.012 A 
HETATM   22  C   UNL     1     -39.046  38.750 -59.462  1.00  0.00     0.040 A 
HETATM   23  C   UNL     1     -38.655  38.416 -60.756  1.00  0.00     0.102 A 
HETATM   24  C   UNL     1     -37.724  39.208 -61.429  1.00  0.00     0.102 A 
HETATM   25  O   UNL     1     -39.227  37.300 -61.306  1.00  0.00    -0.346 OA
HETATM   26  C   UNL     1     -37.221  40.362 -60.828  1.00  0.00     0.048 A 
HETATM   27  O   UNL     1     -37.273  38.930 -62.692  1.00  0.00    -0.346 OA
HETATM   28  C   UNL     1     -37.636  37.606 -63.111  1.00  0.00     0.202 C 
HETATM   29  C   UNL     1     -39.073  37.289 -62.731  1.00  0.00     0.202 C 
ENDBRANCH  19  20
ENDBRANCH  16  19
ENDBRANCH  13  16
ENDBRANCH   9  10
ENDBRANCH   1   9
TORSDOF 5
ENDMDL
MODEL 8
REMARK VINA RESULT:      -7.3      2.895      3.996
REMARK  5 active torsions:
REMARK  status: ('A' for Active; 'I' for Inactive)
REMARK    1  A    between atoms: C_2  and  C_3 
REMARK    2  A    between atoms: C_3  and  N_4 
REMARK    3  A    between atoms: N_4  and  C_7 
REMARK    4  A    between atoms: C_10  and  O_11 
REMARK    5  A    between atoms: O_11  and  C_12 
ROOT
HETATM    1  C   UNL     1     -40.680  54.066 -53.644  1.00  0.00     0.164 A 
HETATM    2  N   UNL     1     -40.652  54.130 -52.297  1.00  0.00    -0.236 NA
HETATM    3  C   UNL     1     -40.250  53.008 -51.648  1.00  0.00     0.142 A 
HETATM    4  C   UNL     1     -39.885  51.828 -52.285  1.00  0.00     0.062 A 
HETATM    5  C   UNL     1     -39.471  50.691 -51.528  1.00  0.00     0.101 C 
HETATM    6  N   UNL     1     -39.137  49.769 -50.909  1.00  0.00    -0.191 NA
HETATM    7  C   UNL     1     -39.939  51.795 -53.678  1.00  0.00     0.028 A 
HETATM    8  C   UNL     1     -40.350  52.932 -54.371  1.00  0.00     0.059 A 
ENDROOT
BRANCH   1   9
HETATM    9  O   UNL     1     -41.102  55.159 -54.371  1.00  0.00    -0.329 OA
BRANCH   9  10
HETATM   10  C   UNL     1     -42.489  55.487 -54.221  1.00  0.00     0.130 C 
HETATM   11  C   UNL     1     -42.605  56.995 -54.481  1.00  0.00     0.034 C 
HETATM   12  C   UNL     1     -42.176  57.361 -55.906  1.00  0.00     0.035 C 
HETATM   13  C   UNL     1     -42.926  56.573 -56.986  1.00  0.00     0.186 C 
HETATM   14  C   UNL     1     -42.934  55.067 -56.692  1.00  0.00     0.035 C 
HETATM   15  C   UNL     1     -43.332  54.725 -55.254  1.00  0.00     0.034 C 
BRANCH  13  16
HETATM   16  N   UNL     1     -44.348  57.057 -57.100  1.00  0.00    -0.067 N 
HETATM   17  H   UNL     1     -44.568  57.762 -56.387  1.00  0.00     0.277 HD
HETATM   18  H   UNL     1     -44.990  56.275 -56.905  1.00  0.00     0.277 HD
BRANCH  16  19
HETATM   19  C   UNL     1     -44.731  57.591 -58.444  1.00  0.00     0.271 C 
BRANCH  19  20
HETATM   20  C   UNL     1     -44.032  58.884 -58.749  1.00  0.00    -0.030 A 
HETATM   21  C   UNL     1     -44.136  59.975 -57.871  1.00  0.00     0.012 A 
HETATM   22  C   UNL     1     -43.456  61.166 -58.141  1.00  0.00     0.040 A 
HETATM   23  C   UNL     1     -42.667  61.275 -59.282  1.00  0.00     0.102 A 
HETATM   24  C   UNL     1     -42.591  60.211 -60.182  1.00  0.00     0.102 A 
HETATM   25  O   UNL     1     -41.990  62.453 -59.455  1.00  0.00    -0.346 OA
HETATM   26  C   UNL     1     -43.265  59.019 -59.916  1.00  0.00     0.048 A 
HETATM   27  O   UNL     1     -41.855  60.253 -61.337  1.00  0.00    -0.346 OA
HETATM   28  C   UNL     1     -41.425  61.586 -61.650  1.00  0.00     0.202 C 
HETATM   29  C   UNL     1     -40.927  62.305 -60.406  1.00  0.00     0.202 C 
ENDBRANCH  19  20
ENDBRANCH  16  19
ENDBRANCH  13  16
ENDBRANCH   9  10
ENDBRANCH   1   9
TORSDOF 5
ENDMDL
MODEL 9
REMARK VINA RESULT:      -7.3     16.257     19.924
REMARK  5 active torsions:
REMARK  status: ('A' for Active; 'I' for Inactive)
REMARK    1  A    between atoms: C_2  and  C_3 
REMARK    2  A    between atoms: C_3  and  N_4 
REMARK    3  A    between atoms: N_4  and  C_7 
REMARK    4  A    between atoms: C_10  and  O_11 
REMARK    5  A    between atoms: O_11  and  C_12 
ROOT
HETATM    1  C   UNL     1     -37.549  40.082 -59.281  1.00  0.00     0.164 A 
HETATM    2  N   UNL     1     -36.920  40.075 -60.473  1.00  0.00    -0.236 NA
HETATM    3  C   UNL     1     -37.462  39.290 -61.438  1.00  0.00     0.142 A 
HETATM    4  C   UNL     1     -38.598  38.510 -61.259  1.00  0.00     0.062 A 
HETATM    5  C   UNL     1     -39.107  37.711 -62.327  1.00  0.00     0.101 C 
HETATM    6  N   UNL     1     -39.517  37.063 -63.197  1.00  0.00    -0.191 NA
HETATM    7  C   UNL     1     -39.215  38.532 -60.009  1.00  0.00     0.028 A 
HETATM    8  C   UNL     1     -38.678  39.329 -58.999  1.00  0.00     0.059 A 
ENDROOT
BRANCH   1   9
HETATM    9  O   UNL     1     -37.042  40.837 -58.245  1.00  0.00    -0.329 OA
BRANCH   9  10
HETATM   10  C   UNL     1     -36.368  40.089 -57.225  1.00  0.00     0.130 C 
HETATM   11  C   UNL     1     -34.962  40.694 -57.107  1.00  0.00     0.034 C 
HETATM   12  C   UNL     1     -35.009  42.163 -56.673  1.00  0.00     0.035 C 
HETATM   13  C   UNL     1     -35.798  42.388 -55.379  1.00  0.00     0.186 C 
HETATM   14  C   UNL     1     -37.166  41.693 -55.416  1.00  0.00     0.035 C 
HETATM   15  C   UNL     1     -37.100  40.236 -55.884  1.00  0.00     0.034 C 
BRANCH  13  16
HETATM   16  N   UNL     1     -35.023  41.879 -54.192  1.00  0.00    -0.067 N 
HETATM   17  H   UNL     1     -34.033  42.146 -54.243  1.00  0.00     0.277 HD
HETATM   18  H   UNL     1     -35.019  40.849 -54.204  1.00  0.00     0.277 HD
BRANCH  16  19
HETATM   19  C   UNL     1     -35.566  42.283 -52.858  1.00  0.00     0.271 C 
BRANCH  19  20
HETATM   20  C   UNL     1     -35.176  41.311 -51.782  1.00  0.00    -0.030 A 
HETATM   21  C   UNL     1     -36.118  40.411 -51.257  1.00  0.00     0.012 A 
HETATM   22  C   UNL     1     -35.743  39.485 -50.280  1.00  0.00     0.040 A 
HETATM   23  C   UNL     1     -34.429  39.448 -49.823  1.00  0.00     0.102 A 
HETATM   24  C   UNL     1     -33.496  40.366 -50.307  1.00  0.00     0.102 A 
HETATM   25  O   UNL     1     -34.121  38.482 -48.902  1.00  0.00    -0.346 OA
HETATM   26  C   UNL     1     -33.864  41.290 -51.285  1.00  0.00     0.048 A 
HETATM   27  O   UNL     1     -32.192  40.407 -49.888  1.00  0.00    -0.346 OA
HETATM   28  C   UNL     1     -31.983  39.612 -48.711  1.00  0.00     0.202 C 
HETATM   29  C   UNL     1     -32.705  38.278 -48.818  1.00  0.00     0.202 C 
ENDBRANCH  19  20
ENDBRANCH  16  19
ENDBRANCH  13  16
ENDBRANCH   9  10
ENDBRANCH   1   9
TORSDOF 5
ENDMDL
MODEL 10
REMARK VINA RESULT:      -7.3      2.298      2.837
REMARK  5 active torsions:
REMARK  status: ('A' for Active; 'I' for Inactive)
REMARK    1  A    between atoms: C_2  and  C_3 
REMARK    2  A    between atoms: C_3  and  N_4 
REMARK    3  A    between atoms: N_4  and  C_7 
REMARK    4  A    between atoms: C_10  and  O_11 
REMARK    5  A    between atoms: O_11  and  C_12 
ROOT
HETATM    1  C   UNL     1     -42.267  55.755 -52.325  1.00  0.00     0.164 A 
HETATM    2  N   UNL     1     -41.747  56.611 -51.421  1.00  0.00    -0.236 NA
HETATM    3  C   UNL     1     -41.319  56.069 -50.253  1.00  0.00     0.142 A 
HETATM    4  C   UNL     1     -41.395  54.716 -49.949  1.00  0.00     0.062 A 
HETATM    5  C   UNL     1     -40.919  54.225 -48.696  1.00  0.00     0.101 C 
HETATM    6  N   UNL     1     -40.533  53.830 -47.676  1.00  0.00    -0.191 NA
HETATM    7  C   UNL     1     -41.950  53.863 -50.902  1.00  0.00     0.028 A 
HETATM    8  C   UNL     1     -42.400  54.392 -52.110  1.00  0.00     0.059 A 
ENDROOT
BRANCH   1   9
HETATM    9  O   UNL     1     -42.745  56.237 -53.524  1.00  0.00    -0.329 OA
BRANCH   9  10
HETATM   10  C   UNL     1     -41.739  56.689 -54.440  1.00  0.00     0.130 C 
HETATM   11  C   UNL     1     -41.360  55.473 -55.297  1.00  0.00     0.034 C 
HETATM   12  C   UNL     1     -42.551  54.955 -56.110  1.00  0.00     0.035 C 
HETATM   13  C   UNL     1     -43.209  56.036 -56.976  1.00  0.00     0.186 C 
HETATM   14  C   UNL     1     -43.493  57.314 -56.177  1.00  0.00     0.035 C 
HETATM   15  C   UNL     1     -42.300  57.795 -55.345  1.00  0.00     0.034 C 
BRANCH  13  16
HETATM   16  N   UNL     1     -42.330  56.378 -58.150  1.00  0.00    -0.067 N 
HETATM   17  H   UNL     1     -41.359  56.080 -57.997  1.00  0.00     0.277 HD
HETATM   18  H   UNL     1     -42.279  57.402 -58.250  1.00  0.00     0.277 HD
BRANCH  16  19
HETATM   19  C   UNL     1     -42.797  55.848 -59.469  1.00  0.00     0.271 C 
BRANCH  19  20
HETATM   20  C   UNL     1     -44.103  56.461 -59.883  1.00  0.00    -0.030 A 
HETATM   21  C   UNL     1     -45.220  55.652 -60.148  1.00  0.00     0.012 A 
HETATM   22  C   UNL     1     -46.443  56.227 -60.501  1.00  0.00     0.040 A 
HETATM   23  C   UNL     1     -46.563  57.612 -60.587  1.00  0.00     0.102 A 
HETATM   24  C   UNL     1     -45.449  58.423 -60.367  1.00  0.00     0.102 A 
HETATM   25  O   UNL     1     -47.803  58.107 -60.887  1.00  0.00    -0.346 OA
HETATM   26  C   UNL     1     -44.226  57.853 -60.011  1.00  0.00     0.048 A 
HETATM   27  O   UNL     1     -45.483  59.790 -60.457  1.00  0.00    -0.346 OA
HETATM   28  C   UNL     1     -46.691  60.255 -61.078  1.00  0.00     0.202 C 
HETATM   29  C   UNL     1     -47.900  59.498 -60.552  1.00  0.00     0.202 C 
ENDBRANCH  19  20
ENDBRANCH  16  19
ENDBRANCH  13  16
ENDBRANCH   9  10
ENDBRANCH   1   9
TORSDOF 5
ENDMDL
