MODEL 1
REMARK VINA RESULT:      -7.7      0.000      0.000
REMARK  4 active torsions:
REMARK  status: ('A' for Active; 'I' for Inactive)
REMARK    1  A    between atoms: C_6  and  N_7 
REMARK       I    between atoms: N_7  and  C_8 
REMARK    2  A    between atoms: C_8  and  C_9 
REMARK    3  A    between atoms: C_10  and  C_11 
REMARK    4  A    between atoms: C_14  and  O_15 
ROOT
HETATM    1  C   UNL     1     -42.716  57.458 -57.232  1.00  0.00     0.131 C 
HETATM    2  C   UNL     1     -43.557  58.680 -56.776  1.00  0.00     0.177 C 
HETATM    3  N   UNL     1     -44.966  58.554 -57.163  1.00  0.00    -0.088 N 
HETATM    4  C   UNL     1     -45.430  57.649 -58.085  1.00  0.00     0.721 A 
HETATM    5  N   UNL     1     -44.619  56.705 -58.611  1.00  0.00    -0.218 N 
HETATM    6  C   UNL     1     -43.180  56.982 -58.623  1.00  0.00     0.111 C 
HETATM    7  C   UNL     1     -42.418  55.761 -59.133  1.00  0.00     0.034 C 
HETATM    8  N   UNL     1     -45.923  59.449 -56.852  1.00  0.00    -0.149 NA
HETATM    9  C   UNL     1     -46.963  58.961 -57.536  1.00  0.00     0.275 A 
HETATM   10  N   UNL     1     -46.701  57.856 -58.300  1.00  0.00    -0.055 NA
HETATM   11  H   UNL     1     -44.983  56.266 -59.458  1.00  0.00     0.178 HD
ENDROOT
BRANCH   1  12
HETATM   12  C   UNL     1     -42.662  56.341 -56.187  1.00  0.00     0.230 C 
HETATM   13  N   UNL     1     -41.431  56.135 -55.604  1.00  0.00    -0.326 N 
HETATM   14  H   UNL     1     -40.663  56.686 -55.974  1.00  0.00     0.169 HD
HETATM   15  O   UNL     1     -43.678  55.678 -55.990  1.00  0.00    -0.273 OA
BRANCH  13  16
HETATM   16  C   UNL     1     -41.040  55.129 -54.691  1.00  0.00     0.040 A 
HETATM   17  C   UNL     1     -41.154  55.172 -53.292  1.00  0.00    -0.035 A 
HETATM   18  C   UNL     1     -40.791  54.029 -52.546  1.00  0.00     0.015 A 
HETATM   19  C   UNL     1     -41.582  56.376 -52.501  1.00  0.00     0.050 C 
HETATM   20  C   UNL     1     -40.251  52.889 -53.152  1.00  0.00    -0.061 A 
HETATM   21  C   UNL     1     -39.912  51.679 -52.335  1.00  0.00     0.048 C 
HETATM   22  C   UNL     1     -40.082  52.884 -54.534  1.00  0.00     0.009 A 
HETATM   23  C   UNL     1     -40.458  53.998 -55.289  1.00  0.00     0.030 A 
ENDBRANCH  13  16
ENDBRANCH   1  12
BRANCH   2  24
HETATM   24  C   UNL     1     -43.331  59.086 -55.324  1.00  0.00    -0.032 A 
HETATM   25  C   UNL     1     -42.123  59.711 -54.976  1.00  0.00     0.012 A 
HETATM   26  C   UNL     1     -41.872  60.102 -53.658  1.00  0.00     0.037 A 
HETATM   27  C   UNL     1     -42.826  59.892 -52.665  1.00  0.00     0.068 A 
HETATM   28  C   UNL     1     -44.011  59.233 -52.984  1.00  0.00     0.037 A 
HETATM   29  C   UNL     1     -44.258  58.827 -54.301  1.00  0.00     0.012 A 
BRANCH  27  30
HETATM   30  O   UNL     1     -42.483  60.341 -51.419  1.00  0.00    -0.356 OA
HETATM   31  C   UNL     1     -41.268  59.813 -50.899  1.00  0.00     0.210 C 
ENDBRANCH  27  30
ENDBRANCH   2  24
TORSDOF 4
ENDMDL
MODEL 2
REMARK VINA RESULT:      -7.3      2.453      6.390
REMARK  4 active torsions:
REMARK  status: ('A' for Active; 'I' for Inactive)
REMARK    1  A    between atoms: C_6  and  N_7 
REMARK       I    between atoms: N_7  and  C_8 
REMARK    2  A    between atoms: C_8  and  C_9 
REMARK    3  A    between atoms: C_10  and  C_11 
REMARK    4  A    between atoms: C_14  and  O_15 
ROOT
HETATM    1  C   UNL     1     -41.670  58.198 -54.943  1.00  0.00     0.131 C 
HETATM    2  C   UNL     1     -41.434  57.384 -53.643  1.00  0.00     0.177 C 
HETATM    3  N   UNL     1     -42.331  57.801 -52.561  1.00  0.00    -0.088 N 
HETATM    4  C   UNL     1     -43.057  58.966 -52.572  1.00  0.00     0.721 A 
HETATM    5  N   UNL     1     -43.094  59.759 -53.666  1.00  0.00    -0.218 N 
HETATM    6  C   UNL     1     -41.969  59.672 -54.601  1.00  0.00     0.111 C 
HETATM    7  C   UNL     1     -42.243  60.538 -55.828  1.00  0.00     0.034 C 
HETATM    8  N   UNL     1     -42.371  57.229 -51.342  1.00  0.00    -0.149 NA
HETATM    9  C   UNL     1     -43.222  58.040 -50.705  1.00  0.00     0.275 A 
HETATM   10  N   UNL     1     -43.668  59.113 -51.428  1.00  0.00    -0.055 NA
HETATM   11  H   UNL     1     -43.437  60.704 -53.486  1.00  0.00     0.178 HD
ENDROOT
BRANCH   1  12
HETATM   12  C   UNL     1     -42.707  57.562 -55.872  1.00  0.00     0.230 C 
HETATM   13  N   UNL     1     -42.280  57.318 -57.158  1.00  0.00    -0.326 N 
HETATM   14  H   UNL     1     -41.349  57.652 -57.390  1.00  0.00     0.169 HD
HETATM   15  O   UNL     1     -43.842  57.375 -55.437  1.00  0.00    -0.273 OA
BRANCH  13  16
HETATM   16  C   UNL     1     -43.019  56.837 -58.262  1.00  0.00     0.040 A 
HETATM   17  C   UNL     1     -43.493  57.590 -59.348  1.00  0.00    -0.035 A 
HETATM   18  C   UNL     1     -44.139  56.918 -60.409  1.00  0.00     0.015 A 
HETATM   19  C   UNL     1     -43.423  59.087 -59.453  1.00  0.00     0.050 C 
HETATM   20  C   UNL     1     -44.388  55.541 -60.372  1.00  0.00    -0.061 A 
HETATM   21  C   UNL     1     -45.042  54.852 -61.532  1.00  0.00     0.048 C 
HETATM   22  C   UNL     1     -43.971  54.816 -59.259  1.00  0.00     0.009 A 
HETATM   23  C   UNL     1     -43.310  55.462 -58.211  1.00  0.00     0.030 A 
ENDBRANCH  13  16
ENDBRANCH   1  12
BRANCH   2  24
HETATM   24  C   UNL     1     -41.355  55.877 -53.857  1.00  0.00    -0.032 A 
HETATM   25  C   UNL     1     -40.308  55.358 -54.638  1.00  0.00     0.012 A 
HETATM   26  C   UNL     1     -40.194  53.984 -54.860  1.00  0.00     0.037 A 
HETATM   27  C   UNL     1     -41.110  53.098 -54.297  1.00  0.00     0.068 A 
HETATM   28  C   UNL     1     -42.179  53.599 -53.557  1.00  0.00     0.037 A 
HETATM   29  C   UNL     1     -42.304  54.977 -53.345  1.00  0.00     0.012 A 
BRANCH  27  30
HETATM   30  O   UNL     1     -40.882  51.775 -54.558  1.00  0.00    -0.356 OA
HETATM   31  C   UNL     1     -39.842  51.177 -53.793  1.00  0.00     0.210 C 
ENDBRANCH  27  30
ENDBRANCH   2  24
TORSDOF 4
ENDMDL
MODEL 3
REMARK VINA RESULT:      -7.3      2.454      4.942
REMARK  4 active torsions:
REMARK  status: ('A' for Active; 'I' for Inactive)
REMARK    1  A    between atoms: C_6  and  N_7 
REMARK       I    between atoms: N_7  and  C_8 
REMARK    2  A    between atoms: C_8  and  C_9 
REMARK    3  A    between atoms: C_10  and  C_11 
REMARK    4  A    between atoms: C_14  and  O_15 
ROOT
HETATM    1  C   UNL     1     -44.323  57.959 -53.446  1.00  0.00     0.131 C 
HETATM    2  C   UNL     1     -44.251  59.084 -54.513  1.00  0.00     0.177 C 
HETATM    3  N   UNL     1     -43.735  60.338 -53.956  1.00  0.00    -0.088 N 
HETATM    4  C   UNL     1     -43.635  60.598 -52.612  1.00  0.00     0.721 A 
HETATM    5  N   UNL     1     -43.888  59.641 -51.692  1.00  0.00    -0.218 N 
HETATM    6  C   UNL     1     -44.770  58.540 -52.089  1.00  0.00     0.111 C 
HETATM    7  C   UNL     1     -44.839  57.498 -50.975  1.00  0.00     0.034 C 
HETATM    8  N   UNL     1     -43.526  61.460 -54.672  1.00  0.00    -0.149 NA
HETATM    9  C   UNL     1     -43.199  62.325 -53.707  1.00  0.00     0.275 A 
HETATM   10  N   UNL     1     -43.250  61.832 -52.431  1.00  0.00    -0.055 NA
HETATM   11  H   UNL     1     -44.039  59.998 -50.747  1.00  0.00     0.178 HD
ENDROOT
BRANCH   1  12
HETATM   12  C   UNL     1     -43.042  57.124 -53.364  1.00  0.00     0.230 C 
HETATM   13  N   UNL     1     -43.191  55.783 -53.638  1.00  0.00    -0.326 N 
HETATM   14  H   UNL     1     -44.142  55.461 -53.790  1.00  0.00     0.169 HD
HETATM   15  O   UNL     1     -42.006  57.681 -53.007  1.00  0.00    -0.273 OA
BRANCH  13  16
HETATM   16  C   UNL     1     -42.232  54.749 -53.550  1.00  0.00     0.040 A 
HETATM   17  C   UNL     1     -41.915  53.989 -52.412  1.00  0.00    -0.035 A 
HETATM   18  C   UNL     1     -40.989  52.932 -52.539  1.00  0.00     0.015 A 
HETATM   19  C   UNL     1     -42.445  54.250 -51.031  1.00  0.00     0.050 C 
HETATM   20  C   UNL     1     -40.323  52.669 -53.741  1.00  0.00    -0.061 A 
HETATM   21  C   UNL     1     -39.373  51.514 -53.852  1.00  0.00     0.048 C 
HETATM   22  C   UNL     1     -40.597  53.471 -54.846  1.00  0.00     0.009 A 
HETATM   23  C   UNL     1     -41.529  54.508 -54.744  1.00  0.00     0.030 A 
ENDBRANCH  13  16
ENDBRANCH   1  12
BRANCH   2  24
HETATM   24  C   UNL     1     -43.604  58.658 -55.826  1.00  0.00    -0.032 A 
HETATM   25  C   UNL     1     -44.264  57.714 -56.630  1.00  0.00     0.012 A 
HETATM   26  C   UNL     1     -43.710  57.294 -57.842  1.00  0.00     0.037 A 
HETATM   27  C   UNL     1     -42.498  57.819 -58.285  1.00  0.00     0.068 A 
HETATM   28  C   UNL     1     -41.809  58.722 -57.478  1.00  0.00     0.037 A 
HETATM   29  C   UNL     1     -42.354  59.133 -56.256  1.00  0.00     0.012 A 
BRANCH  27  30
HETATM   30  O   UNL     1     -42.067  57.357 -59.498  1.00  0.00    -0.356 OA
HETATM   31  C   UNL     1     -42.625  56.111 -59.904  1.00  0.00     0.210 C 
ENDBRANCH  27  30
ENDBRANCH   2  24
TORSDOF 4
ENDMDL
MODEL 4
REMARK VINA RESULT:      -7.2      2.818      6.515
REMARK  4 active torsions:
REMARK  status: ('A' for Active; 'I' for Inactive)
REMARK    1  A    between atoms: C_6  and  N_7 
REMARK       I    between atoms: N_7  and  C_8 
REMARK    2  A    between atoms: C_8  and  C_9 
REMARK    3  A    between atoms: C_10  and  C_11 
REMARK    4  A    between atoms: C_14  and  O_15 
ROOT
HETATM    1  C   UNL     1     -42.632  54.963 -53.006  1.00  0.00     0.131 C 
HETATM    2  C   UNL     1     -42.733  55.421 -51.527  1.00  0.00     0.177 C 
HETATM    3  N   UNL     1     -41.547  55.045 -50.752  1.00  0.00    -0.088 N 
HETATM    4  C   UNL     1     -40.614  54.129 -51.172  1.00  0.00     0.721 A 
HETATM    5  N   UNL     1     -40.661  53.601 -52.414  1.00  0.00    -0.218 N 
HETATM    6  C   UNL     1     -41.961  53.577 -53.090  1.00  0.00     0.111 C 
HETATM    7  C   UNL     1     -41.797  53.066 -54.519  1.00  0.00     0.034 C 
HETATM    8  N   UNL     1     -41.353  55.360 -49.457  1.00  0.00    -0.149 NA
HETATM    9  C   UNL     1     -40.229  54.686 -49.193  1.00  0.00     0.275 A 
HETATM   10  N   UNL     1     -39.744  53.924 -50.222  1.00  0.00    -0.055 NA
HETATM   11  H   UNL     1     -40.096  52.758 -52.532  1.00  0.00     0.178 HD
ENDROOT
BRANCH   1  12
HETATM   12  C   UNL     1     -41.990  56.012 -53.919  1.00  0.00     0.230 C 
HETATM   13  N   UNL     1     -42.855  56.668 -54.766  1.00  0.00    -0.326 N 
HETATM   14  H   UNL     1     -43.817  56.344 -54.762  1.00  0.00     0.169 HD
HETATM   15  O   UNL     1     -40.769  56.147 -53.880  1.00  0.00    -0.273 OA
BRANCH  13  16
HETATM   16  C   UNL     1     -42.560  57.605 -55.782  1.00  0.00     0.040 A 
HETATM   17  C   UNL     1     -42.581  57.378 -57.167  1.00  0.00    -0.035 A 
HETATM   18  C   UNL     1     -42.344  58.465 -58.037  1.00  0.00     0.015 A 
HETATM   19  C   UNL     1     -42.780  56.037 -57.816  1.00  0.00     0.050 C 
HETATM   20  C   UNL     1     -42.013  59.738 -57.559  1.00  0.00    -0.061 A 
HETATM   21  C   UNL     1     -41.805  60.880 -58.509  1.00  0.00     0.048 C 
HETATM   22  C   UNL     1     -41.931  59.935 -56.183  1.00  0.00     0.009 A 
HETATM   23  C   UNL     1     -42.185  58.875 -55.309  1.00  0.00     0.030 A 
ENDBRANCH  13  16
ENDBRANCH   1  12
BRANCH   2  24
HETATM   24  C   UNL     1     -43.174  56.869 -51.352  1.00  0.00    -0.032 A 
HETATM   25  C   UNL     1     -44.547  57.156 -51.280  1.00  0.00     0.012 A 
HETATM   26  C   UNL     1     -44.998  58.468 -51.118  1.00  0.00     0.037 A 
HETATM   27  C   UNL     1     -44.090  59.519 -51.009  1.00  0.00     0.068 A 
HETATM   28  C   UNL     1     -42.727  59.258 -51.123  1.00  0.00     0.037 A 
HETATM   29  C   UNL     1     -42.273  57.946 -51.300  1.00  0.00     0.012 A 
BRANCH  27  30
HETATM   30  O   UNL     1     -44.644  60.755 -50.824  1.00  0.00    -0.356 OA
HETATM   31  C   UNL     1     -45.515  60.868 -49.704  1.00  0.00     0.210 C 
ENDBRANCH  27  30
ENDBRANCH   2  24
TORSDOF 4
ENDMDL
MODEL 5
REMARK VINA RESULT:      -7.1      2.755      6.371
REMARK  4 active torsions:
REMARK  status: ('A' for Active; 'I' for Inactive)
REMARK    1  A    between atoms: C_6  and  N_7 
REMARK       I    between atoms: N_7  and  C_8 
REMARK    2  A    between atoms: C_8  and  C_9 
REMARK    3  A    between atoms: C_10  and  C_11 
REMARK    4  A    between atoms: C_14  and  O_15 
ROOT
HETATM    1  C   UNL     1     -42.652  55.060 -53.079  1.00  0.00     0.131 C 
HETATM    2  C   UNL     1     -42.660  55.488 -51.587  1.00  0.00     0.177 C 
HETATM    3  N   UNL     1     -41.440  55.070 -50.889  1.00  0.00    -0.088 N 
HETATM    4  C   UNL     1     -40.553  54.145 -51.380  1.00  0.00     0.721 A 
HETATM    5  N   UNL     1     -40.681  53.645 -52.628  1.00  0.00    -0.218 N 
HETATM    6  C   UNL     1     -42.017  53.663 -53.230  1.00  0.00     0.111 C 
HETATM    7  C   UNL     1     -41.946  53.179 -54.676  1.00  0.00     0.034 C 
HETATM    8  N   UNL     1     -41.167  55.353 -49.601  1.00  0.00    -0.149 NA
HETATM    9  C   UNL     1     -40.045  54.650 -49.416  1.00  0.00     0.275 A 
HETATM   10  N   UNL     1     -39.634  53.901 -50.485  1.00  0.00    -0.055 NA
HETATM   11  H   UNL     1     -40.142  52.793 -52.795  1.00  0.00     0.178 HD
ENDROOT
BRANCH   1  12
HETATM   12  C   UNL     1     -42.040  56.115 -54.005  1.00  0.00     0.230 C 
HETATM   13  N   UNL     1     -42.924  56.742 -54.854  1.00  0.00    -0.326 N 
HETATM   14  H   UNL     1     -43.878  56.394 -54.843  1.00  0.00     0.169 HD
HETATM   15  O   UNL     1     -40.823  56.281 -53.973  1.00  0.00    -0.273 OA
BRANCH  13  16
HETATM   16  C   UNL     1     -42.656  57.675 -55.881  1.00  0.00     0.040 A 
HETATM   17  C   UNL     1     -42.351  59.036 -55.722  1.00  0.00    -0.035 A 
HETATM   18  C   UNL     1     -42.022  59.796 -56.866  1.00  0.00     0.015 A 
HETATM   19  C   UNL     1     -42.402  59.782 -54.419  1.00  0.00     0.050 C 
HETATM   20  C   UNL     1     -42.068  59.253 -58.155  1.00  0.00    -0.061 A 
HETATM   21  C   UNL     1     -41.676  60.078 -59.345  1.00  0.00     0.048 C 
HETATM   22  C   UNL     1     -42.437  57.919 -58.305  1.00  0.00     0.009 A 
HETATM   23  C   UNL     1     -42.742  57.147 -57.182  1.00  0.00     0.030 A 
ENDBRANCH  13  16
ENDBRANCH   1  12
BRANCH   2  24
HETATM   24  C   UNL     1     -43.058  56.941 -51.358  1.00  0.00    -0.032 A 
HETATM   25  C   UNL     1     -44.421  57.282 -51.385  1.00  0.00     0.012 A 
HETATM   26  C   UNL     1     -44.833  58.601 -51.178  1.00  0.00     0.037 A 
HETATM   27  C   UNL     1     -43.899  59.602 -50.925  1.00  0.00     0.068 A 
HETATM   28  C   UNL     1     -42.541  59.289 -50.938  1.00  0.00     0.037 A 
HETATM   29  C   UNL     1     -42.124  57.971 -51.160  1.00  0.00     0.012 A 
BRANCH  27  30
HETATM   30  O   UNL     1     -44.419  60.848 -50.709  1.00  0.00    -0.356 OA
HETATM   31  C   UNL     1     -45.570  60.888 -49.872  1.00  0.00     0.210 C 
ENDBRANCH  27  30
ENDBRANCH   2  24
TORSDOF 4
ENDMDL
MODEL 6
REMARK VINA RESULT:      -7.0      2.589      5.816
REMARK  4 active torsions:
REMARK  status: ('A' for Active; 'I' for Inactive)
REMARK    1  A    between atoms: C_6  and  N_7 
REMARK       I    between atoms: N_7  and  C_8 
REMARK    2  A    between atoms: C_8  and  C_9 
REMARK    3  A    between atoms: C_10  and  C_11 
REMARK    4  A    between atoms: C_14  and  O_15 
ROOT
HETATM    1  C   UNL     1     -43.704  59.532 -54.784  1.00  0.00     0.131 C 
HETATM    2  C   UNL     1     -43.418  58.980 -53.362  1.00  0.00     0.177 C 
HETATM    3  N   UNL     1     -44.574  59.127 -52.473  1.00  0.00    -0.088 N 
HETATM    4  C   UNL     1     -45.651  59.933 -52.741  1.00  0.00     0.721 A 
HETATM    5  N   UNL     1     -45.781  60.557 -53.932  1.00  0.00    -0.218 N 
HETATM    6  C   UNL     1     -44.557  60.814 -54.696  1.00  0.00     0.111 C 
HETATM    7  C   UNL     1     -44.908  61.406 -56.059  1.00  0.00     0.034 C 
HETATM    8  N   UNL     1     -44.613  58.689 -51.199  1.00  0.00    -0.149 NA
HETATM    9  C   UNL     1     -45.791  59.177 -50.796  1.00  0.00     0.275 A 
HETATM   10  N   UNL     1     -46.458  59.941 -51.714  1.00  0.00    -0.055 NA
HETATM   11  H   UNL     1     -46.461  61.320 -53.933  1.00  0.00     0.178 HD
ENDROOT
BRANCH   1  12
HETATM   12  C   UNL     1     -44.276  58.478 -55.736  1.00  0.00     0.230 C 
HETATM   13  N   UNL     1     -43.450  58.106 -56.773  1.00  0.00    -0.326 N 
HETATM   14  H   UNL     1     -42.576  58.618 -56.855  1.00  0.00     0.169 HD
HETATM   15  O   UNL     1     -45.429  58.093 -55.552  1.00  0.00    -0.273 OA
BRANCH  13  16
HETATM   16  C   UNL     1     -43.724  57.243 -57.858  1.00  0.00     0.040 A 
HETATM   17  C   UNL     1     -43.515  55.855 -57.903  1.00  0.00    -0.035 A 
HETATM   18  C   UNL     1     -43.935  55.142 -59.046  1.00  0.00     0.015 A 
HETATM   19  C   UNL     1     -42.814  55.057 -56.840  1.00  0.00     0.050 C 
HETATM   20  C   UNL     1     -44.479  55.786 -60.163  1.00  0.00    -0.061 A 
HETATM   21  C   UNL     1     -44.950  54.995 -61.346  1.00  0.00     0.048 C 
HETATM   22  C   UNL     1     -44.621  57.171 -60.133  1.00  0.00     0.009 A 
HETATM   23  C   UNL     1     -44.232  57.889 -58.999  1.00  0.00     0.030 A 
ENDBRANCH  13  16
ENDBRANCH   1  12
BRANCH   2  24
HETATM   24  C   UNL     1     -42.776  57.598 -53.348  1.00  0.00    -0.032 A 
HETATM   25  C   UNL     1     -43.560  56.490 -52.985  1.00  0.00     0.012 A 
HETATM   26  C   UNL     1     -43.016  55.204 -52.959  1.00  0.00     0.037 A 
HETATM   27  C   UNL     1     -41.685  54.993 -53.310  1.00  0.00     0.068 A 
HETATM   28  C   UNL     1     -40.881  56.085 -53.630  1.00  0.00     0.037 A 
HETATM   29  C   UNL     1     -41.420  57.377 -53.642  1.00  0.00     0.012 A 
BRANCH  27  30
HETATM   30  O   UNL     1     -41.269  53.691 -53.277  1.00  0.00    -0.356 OA
HETATM   31  C   UNL     1     -40.481  53.336 -52.145  1.00  0.00     0.210 C 
ENDBRANCH  27  30
ENDBRANCH   2  24
TORSDOF 4
ENDMDL
MODEL 7
REMARK VINA RESULT:      -6.9      3.136      5.489
REMARK  4 active torsions:
REMARK  status: ('A' for Active; 'I' for Inactive)
REMARK    1  A    between atoms: C_6  and  N_7 
REMARK       I    between atoms: N_7  and  C_8 
REMARK    2  A    between atoms: C_8  and  C_9 
REMARK    3  A    between atoms: C_10  and  C_11 
REMARK    4  A    between atoms: C_14  and  O_15 
ROOT
HETATM    1  C   UNL     1     -43.802  56.352 -52.615  1.00  0.00     0.131 C 
HETATM    2  C   UNL     1     -43.226  57.508 -53.475  1.00  0.00     0.177 C 
HETATM    3  N   UNL     1     -41.984  58.047 -52.914  1.00  0.00    -0.088 N 
HETATM    4  C   UNL     1     -41.550  57.801 -51.635  1.00  0.00     0.721 A 
HETATM    5  N   UNL     1     -42.188  56.919 -50.835  1.00  0.00    -0.218 N 
HETATM    6  C   UNL     1     -43.602  56.654 -51.116  1.00  0.00     0.111 C 
HETATM    7  C   UNL     1     -44.117  55.547 -50.198  1.00  0.00     0.034 C 
HETATM    8  N   UNL     1     -41.252  59.023 -53.485  1.00  0.00    -0.149 NA
HETATM    9  C   UNL     1     -40.331  59.240 -52.540  1.00  0.00     0.275 A 
HETATM   10  N   UNL     1     -40.478  58.507 -51.393  1.00  0.00    -0.055 NA
HETATM   11  H   UNL     1     -41.951  57.005 -49.845  1.00  0.00     0.178 HD
ENDROOT
BRANCH   1  12
HETATM   12  C   UNL     1     -43.287  54.973 -53.037  1.00  0.00     0.230 C 
HETATM   13  N   UNL     1     -42.028  54.647 -52.585  1.00  0.00    -0.326 N 
HETATM   14  H   UNL     1     -41.530  55.377 -52.084  1.00  0.00     0.169 HD
HETATM   15  O   UNL     1     -43.988  54.295 -53.784  1.00  0.00    -0.273 OA
BRANCH  13  16
HETATM   16  C   UNL     1     -41.248  53.507 -52.881  1.00  0.00     0.040 A 
HETATM   17  C   UNL     1     -40.379  52.832 -52.009  1.00  0.00    -0.035 A 
HETATM   18  C   UNL     1     -39.749  51.651 -52.458  1.00  0.00     0.015 A 
HETATM   19  C   UNL     1     -40.010  53.301 -50.630  1.00  0.00     0.050 C 
HETATM   20  C   UNL     1     -39.903  51.180 -53.766  1.00  0.00    -0.061 A 
HETATM   21  C   UNL     1     -39.250  49.902 -54.200  1.00  0.00     0.048 C 
HETATM   22  C   UNL     1     -40.715  51.895 -54.643  1.00  0.00     0.009 A 
HETATM   23  C   UNL     1     -41.365  53.052 -54.207  1.00  0.00     0.030 A 
ENDBRANCH  13  16
ENDBRANCH   1  12
BRANCH   2  24
HETATM   24  C   UNL     1     -43.171  57.206 -54.968  1.00  0.00    -0.032 A 
HETATM   25  C   UNL     1     -42.066  56.501 -55.476  1.00  0.00     0.012 A 
HETATM   26  C   UNL     1     -41.973  56.200 -56.837  1.00  0.00     0.037 A 
HETATM   27  C   UNL     1     -42.984  56.580 -57.716  1.00  0.00     0.068 A 
HETATM   28  C   UNL     1     -44.064  57.318 -57.237  1.00  0.00     0.037 A 
HETATM   29  C   UNL     1     -44.153  57.635 -55.876  1.00  0.00     0.012 A 
BRANCH  27  30
HETATM   30  O   UNL     1     -42.800  56.207 -59.018  1.00  0.00    -0.356 OA
HETATM   31  C   UNL     1     -43.994  55.959 -59.752  1.00  0.00     0.210 C 
ENDBRANCH  27  30
ENDBRANCH   2  24
TORSDOF 4
ENDMDL
MODEL 8
REMARK VINA RESULT:      -6.8      2.528      5.777
REMARK  4 active torsions:
REMARK  status: ('A' for Active; 'I' for Inactive)
REMARK    1  A    between atoms: C_6  and  N_7 
REMARK       I    between atoms: N_7  and  C_8 
REMARK    2  A    between atoms: C_8  and  C_9 
REMARK    3  A    between atoms: C_10  and  C_11 
REMARK    4  A    between atoms: C_14  and  O_15 
ROOT
HETATM    1  C   UNL     1     -42.441  59.394 -54.956  1.00  0.00     0.131 C 
HETATM    2  C   UNL     1     -42.389  58.858 -53.500  1.00  0.00     0.177 C 
HETATM    3  N   UNL     1     -43.458  59.420 -52.668  1.00  0.00    -0.088 N 
HETATM    4  C   UNL     1     -44.207  60.516 -53.018  1.00  0.00     0.721 A 
HETATM    5  N   UNL     1     -44.094  61.082 -54.239  1.00  0.00    -0.218 N 
HETATM    6  C   UNL     1     -42.833  60.886 -54.960  1.00  0.00     0.111 C 
HETATM    7  C   UNL     1     -42.935  61.484 -56.361  1.00  0.00     0.034 C 
HETATM    8  N   UNL     1     -43.673  59.089 -51.380  1.00  0.00    -0.149 NA
HETATM    9  C   UNL     1     -44.637  59.954 -51.050  1.00  0.00     0.275 A 
HETATM   10  N   UNL     1     -44.995  60.841 -52.029  1.00  0.00    -0.055 NA
HETATM   11  H   UNL     1     -44.488  62.022 -54.303  1.00  0.00     0.178 HD
ENDROOT
BRANCH   1  12
HETATM   12  C   UNL     1     -43.299  58.531 -55.885  1.00  0.00     0.230 C 
HETATM   13  N   UNL     1     -42.609  57.834 -56.851  1.00  0.00    -0.326 N 
HETATM   14  H   UNL     1     -41.611  58.017 -56.907  1.00  0.00     0.169 HD
HETATM   15  O   UNL     1     -44.520  58.568 -55.750  1.00  0.00    -0.273 OA
BRANCH  13  16
HETATM   16  C   UNL     1     -43.116  57.041 -57.905  1.00  0.00     0.040 A 
HETATM   17  C   UNL     1     -43.370  55.661 -57.872  1.00  0.00    -0.035 A 
HETATM   18  C   UNL     1     -43.965  55.054 -58.999  1.00  0.00     0.015 A 
HETATM   19  C   UNL     1     -43.000  54.746 -56.740  1.00  0.00     0.050 C 
HETATM   20  C   UNL     1     -44.236  55.770 -60.171  1.00  0.00    -0.061 A 
HETATM   21  C   UNL     1     -44.904  55.102 -61.336  1.00  0.00     0.048 C 
HETATM   22  C   UNL     1     -43.919  57.124 -60.214  1.00  0.00     0.009 A 
HETATM   23  C   UNL     1     -43.352  57.746 -59.099  1.00  0.00     0.030 A 
ENDBRANCH  13  16
ENDBRANCH   1  12
BRANCH   2  24
HETATM   24  C   UNL     1     -42.233  57.346 -53.398  1.00  0.00    -0.032 A 
HETATM   25  C   UNL     1     -40.992  56.770 -53.718  1.00  0.00     0.012 A 
HETATM   26  C   UNL     1     -40.801  55.388 -53.638  1.00  0.00     0.037 A 
HETATM   27  C   UNL     1     -41.837  54.555 -53.222  1.00  0.00     0.068 A 
HETATM   28  C   UNL     1     -43.086  55.104 -52.944  1.00  0.00     0.037 A 
HETATM   29  C   UNL     1     -43.285  56.487 -53.038  1.00  0.00     0.012 A 
BRANCH  27  30
HETATM   30  O   UNL     1     -41.527  53.224 -53.154  1.00  0.00    -0.356 OA
HETATM   31  C   UNL     1     -40.456  52.808 -53.995  1.00  0.00     0.210 C 
ENDBRANCH  27  30
ENDBRANCH   2  24
TORSDOF 4
ENDMDL
MODEL 9
REMARK VINA RESULT:      -6.7      2.847      5.636
REMARK  4 active torsions:
REMARK  status: ('A' for Active; 'I' for Inactive)
REMARK    1  A    between atoms: C_6  and  N_7 
REMARK       I    between atoms: N_7  and  C_8 
REMARK    2  A    between atoms: C_8  and  C_9 
REMARK    3  A    between atoms: C_10  and  C_11 
REMARK    4  A    between atoms: C_14  and  O_15 
ROOT
HETATM    1  C   UNL     1     -43.883  60.195 -56.408  1.00  0.00     0.131 C 
HETATM    2  C   UNL     1     -43.989  60.456 -57.934  1.00  0.00     0.177 C 
HETATM    3  N   UNL     1     -43.050  61.489 -58.381  1.00  0.00    -0.088 N 
HETATM    4  C   UNL     1     -42.395  62.350 -57.536  1.00  0.00     0.721 A 
HETATM    5  N   UNL     1     -42.474  62.210 -56.194  1.00  0.00    -0.218 N 
HETATM    6  C   UNL     1     -43.650  61.520 -55.655  1.00  0.00     0.111 C 
HETATM    7  C   UNL     1     -43.506  61.346 -54.146  1.00  0.00     0.034 C 
HETATM    8  N   UNL     1     -42.900  61.876 -59.663  1.00  0.00    -0.149 NA
HETATM    9  C   UNL     1     -42.058  62.906 -59.523  1.00  0.00     0.275 A 
HETATM   10  N   UNL     1     -41.722  63.223 -58.235  1.00  0.00    -0.055 NA
HETATM   11  H   UNL     1     -42.177  63.034 -55.670  1.00  0.00     0.178 HD
ENDROOT
BRANCH   1  12
HETATM   12  C   UNL     1     -42.872  59.101 -56.052  1.00  0.00     0.230 C 
HETATM   13  N   UNL     1     -43.413  57.925 -55.583  1.00  0.00    -0.326 N 
HETATM   14  H   UNL     1     -44.419  57.920 -55.443  1.00  0.00     0.169 HD
HETATM   15  O   UNL     1     -41.675  59.363 -56.146  1.00  0.00    -0.273 OA
BRANCH  13  16
HETATM   16  C   UNL     1     -42.749  56.781 -55.085  1.00  0.00     0.040 A 
HETATM   17  C   UNL     1     -42.440  55.611 -55.797  1.00  0.00    -0.035 A 
HETATM   18  C   UNL     1     -41.689  54.604 -55.153  1.00  0.00     0.015 A 
HETATM   19  C   UNL     1     -42.900  55.309 -57.195  1.00  0.00     0.050 C 
HETATM   20  C   UNL     1     -41.313  54.704 -53.809  1.00  0.00    -0.061 A 
HETATM   21  C   UNL     1     -40.483  53.633 -53.167  1.00  0.00     0.048 C 
HETATM   22  C   UNL     1     -41.683  55.840 -53.095  1.00  0.00     0.009 A 
HETATM   23  C   UNL     1     -42.406  56.857 -53.723  1.00  0.00     0.030 A 
ENDBRANCH  13  16
ENDBRANCH   1  12
BRANCH   2  24
HETATM   24  C   UNL     1     -43.994  59.190 -58.784  1.00  0.00    -0.032 A 
HETATM   25  C   UNL     1     -45.185  58.454 -58.896  1.00  0.00     0.012 A 
HETATM   26  C   UNL     1     -45.238  57.289 -59.665  1.00  0.00     0.037 A 
HETATM   27  C   UNL     1     -44.110  56.843 -60.350  1.00  0.00     0.068 A 
HETATM   28  C   UNL     1     -42.909  57.536 -60.214  1.00  0.00     0.037 A 
HETATM   29  C   UNL     1     -42.850  58.696 -59.432  1.00  0.00     0.012 A 
BRANCH  27  30
HETATM   30  O   UNL     1     -44.286  55.709 -61.093  1.00  0.00    -0.356 OA
HETATM   31  C   UNL     1     -44.860  54.609 -60.393  1.00  0.00     0.210 C 
ENDBRANCH  27  30
ENDBRANCH   2  24
TORSDOF 4
ENDMDL
MODEL 10
REMARK VINA RESULT:      -6.5      2.465      6.021
REMARK  4 active torsions:
REMARK  status: ('A' for Active; 'I' for Inactive)
REMARK    1  A    between atoms: C_6  and  N_7 
REMARK       I    between atoms: N_7  and  C_8 
REMARK    2  A    between atoms: C_8  and  C_9 
REMARK    3  A    between atoms: C_10  and  C_11 
REMARK    4  A    between atoms: C_14  and  O_15 
ROOT
HETATM    1  C   UNL     1     -43.636  56.014 -54.510  1.00  0.00     0.131 C 
HETATM    2  C   UNL     1     -43.581  56.836 -53.195  1.00  0.00     0.177 C 
HETATM    3  N   UNL     1     -42.492  56.397 -52.317  1.00  0.00    -0.088 N 
HETATM    4  C   UNL     1     -41.814  55.213 -52.469  1.00  0.00     0.721 A 
HETATM    5  N   UNL     1     -42.022  54.418 -53.541  1.00  0.00    -0.218 N 
HETATM    6  C   UNL     1     -43.312  54.533 -54.227  1.00  0.00     0.111 C 
HETATM    7  C   UNL     1     -43.318  53.659 -55.478  1.00  0.00     0.034 C 
HETATM    8  N   UNL     1     -42.189  56.969 -51.136  1.00  0.00    -0.149 NA
HETATM    9  C   UNL     1     -41.247  56.138 -50.681  1.00  0.00     0.275 A 
HETATM   10  N   UNL     1     -40.986  55.052 -51.472  1.00  0.00    -0.055 NA
HETATM   11  H   UNL     1     -41.674  53.464 -53.429  1.00  0.00     0.178 HD
ENDROOT
BRANCH   1  12
HETATM   12  C   UNL     1     -42.796  56.621 -55.637  1.00  0.00     0.230 C 
HETATM   13  N   UNL     1     -43.508  57.228 -56.647  1.00  0.00    -0.326 N 
HETATM   14  H   UNL     1     -44.519  57.147 -56.591  1.00  0.00     0.169 HD
HETATM   15  O   UNL     1     -41.576  56.475 -55.596  1.00  0.00    -0.273 OA
BRANCH  13  16
HETATM   16  C   UNL     1     -43.033  57.785 -57.856  1.00  0.00     0.040 A 
HETATM   17  C   UNL     1     -42.919  57.134 -59.094  1.00  0.00    -0.035 A 
HETATM   18  C   UNL     1     -42.506  57.882 -60.218  1.00  0.00     0.015 A 
HETATM   19  C   UNL     1     -43.145  55.665 -59.317  1.00  0.00     0.050 C 
HETATM   20  C   UNL     1     -42.137  59.228 -60.118  1.00  0.00    -0.061 A 
HETATM   21  C   UNL     1     -41.740  60.003 -61.339  1.00  0.00     0.048 C 
HETATM   22  C   UNL     1     -42.192  59.845 -58.872  1.00  0.00     0.009 A 
HETATM   23  C   UNL     1     -42.620  59.125 -57.753  1.00  0.00     0.030 A 
ENDBRANCH  13  16
ENDBRANCH   1  12
BRANCH   2  24
HETATM   24  C   UNL     1     -43.664  58.344 -53.399  1.00  0.00    -0.032 A 
HETATM   25  C   UNL     1     -44.919  58.927 -53.641  1.00  0.00     0.012 A 
HETATM   26  C   UNL     1     -45.044  60.305 -53.832  1.00  0.00     0.037 A 
HETATM   27  C   UNL     1     -43.925  61.132 -53.771  1.00  0.00     0.068 A 
HETATM   28  C   UNL     1     -42.667  60.565 -53.577  1.00  0.00     0.037 A 
HETATM   29  C   UNL     1     -42.537  59.182 -53.400  1.00  0.00     0.012 A 
BRANCH  27  30
HETATM   30  O   UNL     1     -44.171  62.466 -53.944  1.00  0.00    -0.356 OA
HETATM   31  C   UNL     1     -44.633  63.152 -52.786  1.00  0.00     0.210 C 
ENDBRANCH  27  30
ENDBRANCH   2  24
TORSDOF 4
ENDMDL
