MODEL 1
REMARK VINA RESULT:      -8.1      0.000      0.000
REMARK  6 active torsions:
REMARK  status: ('A' for Active; 'I' for Inactive)
REMARK    1  A    between atoms: C_4  and  C_5 
REMARK    2  A    between atoms: C_5  and  C_6 
REMARK    3  A    between atoms: C_6  and  N_7 
REMARK       I    between atoms: N_7  and  C_8 
REMARK    4  A    between atoms: C_8  and  C_9 
REMARK    5  A    between atoms: C_12  and  N_13 
REMARK       I    between atoms: N_13  and  C_14 
REMARK       I    between atoms: C_14  and  N_15 
REMARK    6  A    between atoms: N_15  and  C_16 
ROOT
HETATM    1  C   UNL     1     -43.258  56.838 -53.498  1.00  0.00     0.032 A 
HETATM    2  C   UNL     1     -44.289  57.753 -53.736  1.00  0.00     0.019 A 
HETATM    3  C   UNL     1     -44.570  58.759 -52.803  1.00  0.00     0.030 A 
HETATM    4  C   UNL     1     -43.823  58.872 -51.629  1.00  0.00     0.036 A 
HETATM    5  C   UNL     1     -42.775  57.968 -51.406  1.00  0.00     0.030 A 
HETATM    6  C   UNL     1     -42.492  56.962 -52.336  1.00  0.00     0.019 A 
ENDROOT
BRANCH   1   7
HETATM    7  C   UNL     1     -42.935  55.738 -54.450  1.00  0.00     0.251 C 
HETATM    8  N   UNL     1     -42.479  54.559 -53.895  1.00  0.00    -0.357 N 
HETATM    9  H   UNL     1     -42.131  54.587 -52.944  1.00  0.00     0.162 HD
HETATM   10  O   UNL     1     -43.044  55.919 -55.658  1.00  0.00    -0.268 OA
BRANCH   8  11
HETATM   11  C   UNL     1     -41.968  53.494 -54.740  1.00  0.00     0.127 C 
BRANCH  11  12
HETATM   12  C   UNL     1     -40.466  53.262 -54.552  1.00  0.00     0.058 C 
BRANCH  12  13
HETATM   13  C   UNL     1     -40.130  52.043 -53.724  1.00  0.00    -0.057 A 
HETATM   14  C   UNL     1     -40.020  50.783 -54.332  1.00  0.00     0.007 A 
HETATM   15  C   UNL     1     -39.700  49.655 -53.573  1.00  0.00     0.001 A 
HETATM   16  C   UNL     1     -39.488  49.774 -52.202  1.00  0.00     0.000 A 
HETATM   17  C   UNL     1     -39.590  51.020 -51.587  1.00  0.00     0.001 A 
HETATM   18  C   UNL     1     -39.905  52.149 -52.344  1.00  0.00     0.007 A 
ENDBRANCH  12  13
ENDBRANCH  11  12
ENDBRANCH   8  11
ENDBRANCH   1   7
BRANCH   4  19
HETATM   19  N   UNL     1     -44.067  59.833 -50.626  1.00  0.00    -0.309 N 
HETATM   20  C   UNL     1     -45.152  59.899 -49.764  1.00  0.00     0.325 C 
HETATM   21  N   UNL     1     -44.967  60.896 -48.817  1.00  0.00    -0.306 N 
HETATM   22  O   UNL     1     -46.137  59.174 -49.811  1.00  0.00    -0.247 OA
HETATM   23  H   UNL     1     -44.092  61.395 -48.792  1.00  0.00     0.171 HD
HETATM   24  H   UNL     1     -43.398  60.584 -50.562  1.00  0.00     0.170 HD
BRANCH  21  25
HETATM   25  C   UNL     1     -45.871  61.187 -47.813  1.00  0.00     0.072 A 
HETATM   26  C   UNL     1     -46.187  60.518 -46.609  1.00  0.00     0.169 A 
HETATM   27  N   UNL     1     -47.134  61.153 -45.909  1.00  0.00    -0.185 NA
HETATM   28  N   UNL     1     -47.419  62.225 -46.663  1.00  0.00    -0.287 N 
HETATM   29  H   UNL     1     -48.121  62.874 -46.324  1.00  0.00     0.188 HD
HETATM   30  C   UNL     1     -46.692  62.289 -47.817  1.00  0.00     0.140 A 
ENDBRANCH  21  25
ENDBRANCH   4  19
TORSDOF 6
ENDMDL
MODEL 2
REMARK VINA RESULT:      -7.8      6.283      8.649
REMARK  6 active torsions:
REMARK  status: ('A' for Active; 'I' for Inactive)
REMARK    1  A    between atoms: C_4  and  C_5 
REMARK    2  A    between atoms: C_5  and  C_6 
REMARK    3  A    between atoms: C_6  and  N_7 
REMARK       I    between atoms: N_7  and  C_8 
REMARK    4  A    between atoms: C_8  and  C_9 
REMARK    5  A    between atoms: C_12  and  N_13 
REMARK       I    between atoms: N_13  and  C_14 
REMARK       I    between atoms: C_14  and  N_15 
REMARK    6  A    between atoms: N_15  and  C_16 
ROOT
HETATM    1  C   UNL     1     -42.698  56.515 -56.606  1.00  0.00     0.032 A 
HETATM    2  C   UNL     1     -43.380  57.733 -56.700  1.00  0.00     0.019 A 
HETATM    3  C   UNL     1     -44.184  58.008 -57.813  1.00  0.00     0.030 A 
HETATM    4  C   UNL     1     -44.328  57.072 -58.839  1.00  0.00     0.036 A 
HETATM    5  C   UNL     1     -43.663  55.843 -58.729  1.00  0.00     0.030 A 
HETATM    6  C   UNL     1     -42.858  55.565 -57.619  1.00  0.00     0.019 A 
ENDROOT
BRANCH   1   7
HETATM    7  C   UNL     1     -41.815  56.184 -55.453  1.00  0.00     0.251 C 
HETATM    8  N   UNL     1     -40.989  55.089 -55.605  1.00  0.00    -0.357 N 
HETATM    9  H   UNL     1     -41.212  54.426 -56.339  1.00  0.00     0.162 HD
HETATM   10  O   UNL     1     -41.872  56.850 -54.424  1.00  0.00    -0.268 OA
BRANCH   8  11
HETATM   11  C   UNL     1     -40.225  54.577 -54.481  1.00  0.00     0.127 C 
BRANCH  11  12
HETATM   12  C   UNL     1     -41.068  53.711 -53.542  1.00  0.00     0.058 C 
BRANCH  12  13
HETATM   13  C   UNL     1     -40.533  52.309 -53.350  1.00  0.00    -0.057 A 
HETATM   14  C   UNL     1     -40.567  51.387 -54.406  1.00  0.00     0.007 A 
HETATM   15  C   UNL     1     -40.066  50.095 -54.236  1.00  0.00     0.001 A 
HETATM   16  C   UNL     1     -39.526  49.712 -53.011  1.00  0.00     0.000 A 
HETATM   17  C   UNL     1     -39.482  50.620 -51.955  1.00  0.00     0.001 A 
HETATM   18  C   UNL     1     -39.979  51.913 -52.124  1.00  0.00     0.007 A 
ENDBRANCH  12  13
ENDBRANCH  11  12
ENDBRANCH   8  11
ENDBRANCH   1   7
BRANCH   4  19
HETATM   19  N   UNL     1     -45.090  57.289 -60.006  1.00  0.00    -0.309 N 
HETATM   20  C   UNL     1     -46.468  57.405 -60.107  1.00  0.00     0.325 C 
HETATM   21  N   UNL     1     -46.838  57.766 -61.394  1.00  0.00    -0.306 N 
HETATM   22  O   UNL     1     -47.261  57.231 -59.190  1.00  0.00    -0.247 OA
HETATM   23  H   UNL     1     -46.122  57.973 -62.072  1.00  0.00     0.171 HD
HETATM   24  H   UNL     1     -44.573  57.316 -60.871  1.00  0.00     0.170 HD
BRANCH  21  25
HETATM   25  C   UNL     1     -48.144  57.974 -61.794  1.00  0.00     0.072 A 
HETATM   26  C   UNL     1     -48.957  59.130 -61.788  1.00  0.00     0.169 A 
HETATM   27  N   UNL     1     -50.179  58.894 -62.277  1.00  0.00    -0.185 NA
HETATM   28  N   UNL     1     -50.146  57.592 -62.597  1.00  0.00    -0.287 N 
HETATM   29  H   UNL     1     -50.979  57.178 -63.001  1.00  0.00     0.188 HD
HETATM   30  C   UNL     1     -48.950  56.993 -62.322  1.00  0.00     0.140 A 
ENDBRANCH  21  25
ENDBRANCH   4  19
TORSDOF 6
ENDMDL
MODEL 3
REMARK VINA RESULT:      -7.7     17.573     20.526
REMARK  6 active torsions:
REMARK  status: ('A' for Active; 'I' for Inactive)
REMARK    1  A    between atoms: C_4  and  C_5 
REMARK    2  A    between atoms: C_5  and  C_6 
REMARK    3  A    between atoms: C_6  and  N_7 
REMARK       I    between atoms: N_7  and  C_8 
REMARK    4  A    between atoms: C_8  and  C_9 
REMARK    5  A    between atoms: C_12  and  N_13 
REMARK       I    between atoms: N_13  and  C_14 
REMARK       I    between atoms: C_14  and  N_15 
REMARK    6  A    between atoms: N_15  and  C_16 
ROOT
HETATM    1  C   UNL     1     -35.863  41.842 -55.108  1.00  0.00     0.032 A 
HETATM    2  C   UNL     1     -34.814  41.842 -56.033  1.00  0.00     0.019 A 
HETATM    3  C   UNL     1     -35.074  41.641 -57.395  1.00  0.00     0.030 A 
HETATM    4  C   UNL     1     -36.379  41.449 -57.852  1.00  0.00     0.036 A 
HETATM    5  C   UNL     1     -37.430  41.475 -56.925  1.00  0.00     0.030 A 
HETATM    6  C   UNL     1     -37.174  41.675 -55.564  1.00  0.00     0.019 A 
ENDROOT
BRANCH   1   7
HETATM    7  C   UNL     1     -35.637  42.031 -53.648  1.00  0.00     0.251 C 
HETATM    8  N   UNL     1     -34.555  41.369 -53.103  1.00  0.00    -0.357 N 
HETATM    9  H   UNL     1     -34.155  40.601 -53.630  1.00  0.00     0.162 HD
HETATM   10  O   UNL     1     -36.412  42.716 -52.988  1.00  0.00    -0.268 OA
BRANCH   8  11
HETATM   11  C   UNL     1     -34.353  41.342 -51.665  1.00  0.00     0.127 C 
BRANCH  11  12
HETATM   12  C   UNL     1     -32.976  40.800 -51.274  1.00  0.00     0.058 C 
BRANCH  12  13
HETATM   13  C   UNL     1     -32.984  39.930 -50.037  1.00  0.00    -0.057 A 
HETATM   14  C   UNL     1     -34.110  39.154 -49.725  1.00  0.00     0.007 A 
HETATM   15  C   UNL     1     -34.119  38.342 -48.589  1.00  0.00     0.001 A 
HETATM   16  C   UNL     1     -33.004  38.296 -47.755  1.00  0.00     0.000 A 
HETATM   17  C   UNL     1     -31.878  39.059 -48.057  1.00  0.00     0.001 A 
HETATM   18  C   UNL     1     -31.865  39.868 -49.194  1.00  0.00     0.007 A 
ENDBRANCH  12  13
ENDBRANCH  11  12
ENDBRANCH   8  11
ENDBRANCH   1   7
BRANCH   4  19
HETATM   19  N   UNL     1     -36.716  41.206 -59.200  1.00  0.00    -0.309 N 
HETATM   20  C   UNL     1     -37.043  39.991 -59.784  1.00  0.00     0.325 C 
HETATM   21  N   UNL     1     -37.463  40.172 -61.093  1.00  0.00    -0.306 N 
HETATM   22  O   UNL     1     -36.988  38.901 -59.227  1.00  0.00    -0.247 OA
HETATM   23  H   UNL     1     -37.561  41.108 -61.454  1.00  0.00     0.171 HD
HETATM   24  H   UNL     1     -36.668  42.001 -59.818  1.00  0.00     0.170 HD
BRANCH  21  25
HETATM   25  C   UNL     1     -37.871  39.146 -61.924  1.00  0.00     0.072 A 
HETATM   26  C   UNL     1     -38.979  38.271 -61.864  1.00  0.00     0.169 A 
HETATM   27  N   UNL     1     -39.005  37.413 -62.890  1.00  0.00    -0.185 NA
HETATM   28  N   UNL     1     -37.918  37.741 -63.604  1.00  0.00    -0.287 N 
HETATM   29  H   UNL     1     -37.729  37.218 -64.453  1.00  0.00     0.188 HD
HETATM   30  C   UNL     1     -37.202  38.771 -63.065  1.00  0.00     0.140 A 
ENDBRANCH  21  25
ENDBRANCH   4  19
TORSDOF 6
ENDMDL
MODEL 4
REMARK VINA RESULT:      -7.5      4.518      6.937
REMARK  6 active torsions:
REMARK  status: ('A' for Active; 'I' for Inactive)
REMARK    1  A    between atoms: C_4  and  C_5 
REMARK    2  A    between atoms: C_5  and  C_6 
REMARK    3  A    between atoms: C_6  and  N_7 
REMARK       I    between atoms: N_7  and  C_8 
REMARK    4  A    between atoms: C_8  and  C_9 
REMARK    5  A    between atoms: C_12  and  N_13 
REMARK       I    between atoms: N_13  and  C_14 
REMARK       I    between atoms: C_14  and  N_15 
REMARK    6  A    between atoms: N_15  and  C_16 
ROOT
HETATM    1  C   UNL     1     -42.705  55.704 -52.085  1.00  0.00     0.032 A 
HETATM    2  C   UNL     1     -43.327  56.950 -51.958  1.00  0.00     0.019 A 
HETATM    3  C   UNL     1     -44.148  57.438 -52.982  1.00  0.00     0.030 A 
HETATM    4  C   UNL     1     -44.367  56.688 -54.140  1.00  0.00     0.036 A 
HETATM    5  C   UNL     1     -43.761  55.429 -54.253  1.00  0.00     0.030 A 
HETATM    6  C   UNL     1     -42.940  54.939 -53.231  1.00  0.00     0.019 A 
ENDROOT
BRANCH   1   7
HETATM    7  C   UNL     1     -41.807  55.151 -51.033  1.00  0.00     0.251 C 
HETATM    8  N   UNL     1     -40.709  54.440 -51.473  1.00  0.00    -0.357 N 
HETATM    9  H   UNL     1     -40.717  54.100 -52.428  1.00  0.00     0.162 HD
HETATM   10  O   UNL     1     -42.080  55.308 -49.847  1.00  0.00    -0.268 OA
BRANCH   8  11
HETATM   11  C   UNL     1     -39.875  53.711 -50.533  1.00  0.00     0.127 C 
BRANCH  11  12
HETATM   12  C   UNL     1     -40.251  52.231 -50.438  1.00  0.00     0.058 C 
BRANCH  12  13
HETATM   13  C   UNL     1     -40.008  51.449 -51.709  1.00  0.00    -0.057 A 
HETATM   14  C   UNL     1     -40.074  52.088 -52.956  1.00  0.00     0.007 A 
HETATM   15  C   UNL     1     -39.841  51.373 -54.133  1.00  0.00     0.001 A 
HETATM   16  C   UNL     1     -39.539  50.014 -54.075  1.00  0.00     0.000 A 
HETATM   17  C   UNL     1     -39.466  49.369 -52.842  1.00  0.00     0.001 A 
HETATM   18  C   UNL     1     -39.695  50.083 -51.665  1.00  0.00     0.007 A 
ENDBRANCH  12  13
ENDBRANCH  11  12
ENDBRANCH   8  11
ENDBRANCH   1   7
BRANCH   4  19
HETATM   19  N   UNL     1     -45.149  57.125 -55.229  1.00  0.00    -0.309 N 
HETATM   20  C   UNL     1     -44.708  57.709 -56.407  1.00  0.00     0.325 C 
HETATM   21  N   UNL     1     -45.757  57.863 -57.302  1.00  0.00    -0.306 N 
HETATM   22  O   UNL     1     -43.552  58.034 -56.645  1.00  0.00    -0.247 OA
HETATM   23  H   UNL     1     -46.664  57.494 -57.066  1.00  0.00     0.171 HD
HETATM   24  H   UNL     1     -46.148  57.046 -55.115  1.00  0.00     0.170 HD
BRANCH  21  25
HETATM   25  C   UNL     1     -45.621  58.400 -58.568  1.00  0.00     0.072 A 
HETATM   26  C   UNL     1     -45.565  59.737 -59.021  1.00  0.00     0.169 A 
HETATM   27  N   UNL     1     -45.419  59.818 -60.348  1.00  0.00    -0.185 NA
HETATM   28  N   UNL     1     -45.380  58.536 -60.741  1.00  0.00    -0.287 N 
HETATM   29  H   UNL     1     -45.266  58.343 -61.730  1.00  0.00     0.188 HD
HETATM   30  C   UNL     1     -45.502  57.647 -59.712  1.00  0.00     0.140 A 
ENDBRANCH  21  25
ENDBRANCH   4  19
TORSDOF 6
ENDMDL
MODEL 5
REMARK VINA RESULT:      -7.4     17.525     20.592
REMARK  6 active torsions:
REMARK  status: ('A' for Active; 'I' for Inactive)
REMARK    1  A    between atoms: C_4  and  C_5 
REMARK    2  A    between atoms: C_5  and  C_6 
REMARK    3  A    between atoms: C_6  and  N_7 
REMARK       I    between atoms: N_7  and  C_8 
REMARK    4  A    between atoms: C_8  and  C_9 
REMARK    5  A    between atoms: C_12  and  N_13 
REMARK       I    between atoms: N_13  and  C_14 
REMARK       I    between atoms: C_14  and  N_15 
REMARK    6  A    between atoms: N_15  and  C_16 
ROOT
HETATM    1  C   UNL     1     -34.192  40.128 -51.144  1.00  0.00     0.032 A 
HETATM    2  C   UNL     1     -32.823  40.401 -51.236  1.00  0.00     0.019 A 
HETATM    3  C   UNL     1     -31.951  39.985 -50.223  1.00  0.00     0.030 A 
HETATM    4  C   UNL     1     -32.428  39.285 -49.113  1.00  0.00     0.036 A 
HETATM    5  C   UNL     1     -33.796  38.992 -49.037  1.00  0.00     0.030 A 
HETATM    6  C   UNL     1     -34.671  39.406 -50.047  1.00  0.00     0.019 A 
ENDROOT
BRANCH   1   7
HETATM    7  C   UNL     1     -35.163  40.567 -52.186  1.00  0.00     0.251 C 
HETATM    8  N   UNL     1     -34.836  41.710 -52.888  1.00  0.00    -0.357 N 
HETATM    9  H   UNL     1     -34.135  42.325 -52.491  1.00  0.00     0.162 HD
HETATM   10  O   UNL     1     -36.204  39.943 -52.358  1.00  0.00    -0.268 OA
BRANCH   8  11
HETATM   11  C   UNL     1     -35.794  42.320 -53.793  1.00  0.00     0.127 C 
BRANCH  11  12
HETATM   12  C   UNL     1     -35.286  42.378 -55.236  1.00  0.00     0.058 C 
BRANCH  12  13
HETATM   13  C   UNL     1     -36.256  41.823 -56.254  1.00  0.00    -0.057 A 
HETATM   14  C   UNL     1     -37.420  41.161 -55.836  1.00  0.00     0.007 A 
HETATM   15  C   UNL     1     -38.323  40.654 -56.772  1.00  0.00     0.001 A 
HETATM   16  C   UNL     1     -38.073  40.803 -58.134  1.00  0.00     0.000 A 
HETATM   17  C   UNL     1     -36.923  41.461 -58.562  1.00  0.00     0.001 A 
HETATM   18  C   UNL     1     -36.021  41.973 -57.628  1.00  0.00     0.007 A 
ENDBRANCH  12  13
ENDBRANCH  11  12
ENDBRANCH   8  11
ENDBRANCH   1   7
BRANCH   4  19
HETATM   19  N   UNL     1     -31.619  38.864 -48.036  1.00  0.00    -0.309 N 
HETATM   20  C   UNL     1     -30.867  39.658 -47.183  1.00  0.00     0.325 C 
HETATM   21  N   UNL     1     -30.327  38.900 -46.155  1.00  0.00    -0.306 N 
HETATM   22  O   UNL     1     -30.704  40.866 -47.301  1.00  0.00    -0.247 OA
HETATM   23  H   UNL     1     -30.575  37.926 -46.078  1.00  0.00     0.171 HD
HETATM   24  H   UNL     1     -31.545  37.868 -47.902  1.00  0.00     0.170 HD
BRANCH  21  25
HETATM   25  C   UNL     1     -29.544  39.418 -45.140  1.00  0.00     0.072 A 
HETATM   26  C   UNL     1     -29.843  40.304 -44.080  1.00  0.00     0.169 A 
HETATM   27  N   UNL     1     -28.780  40.547 -43.306  1.00  0.00    -0.185 NA
HETATM   28  N   UNL     1     -27.806  39.816 -43.868  1.00  0.00    -0.287 N 
HETATM   29  H   UNL     1     -26.887  39.836 -43.440  1.00  0.00     0.188 HD
HETATM   30  C   UNL     1     -28.212  39.124 -44.973  1.00  0.00     0.140 A 
ENDBRANCH  21  25
ENDBRANCH   4  19
TORSDOF 6
ENDMDL
MODEL 6
REMARK VINA RESULT:      -7.3      5.428      9.548
REMARK  6 active torsions:
REMARK  status: ('A' for Active; 'I' for Inactive)
REMARK    1  A    between atoms: C_4  and  C_5 
REMARK    2  A    between atoms: C_5  and  C_6 
REMARK    3  A    between atoms: C_6  and  N_7 
REMARK       I    between atoms: N_7  and  C_8 
REMARK    4  A    between atoms: C_8  and  C_9 
REMARK    5  A    between atoms: C_12  and  N_13 
REMARK       I    between atoms: N_13  and  C_14 
REMARK       I    between atoms: C_14  and  N_15 
REMARK    6  A    between atoms: N_15  and  C_16 
ROOT
HETATM    1  C   UNL     1     -43.450  57.177 -55.751  1.00  0.00     0.032 A 
HETATM    2  C   UNL     1     -42.683  57.254 -54.585  1.00  0.00     0.019 A 
HETATM    3  C   UNL     1     -41.771  56.238 -54.272  1.00  0.00     0.030 A 
HETATM    4  C   UNL     1     -41.605  55.141 -55.120  1.00  0.00     0.036 A 
HETATM    5  C   UNL     1     -42.358  55.080 -56.300  1.00  0.00     0.030 A 
HETATM    6  C   UNL     1     -43.271  56.093 -56.615  1.00  0.00     0.019 A 
ENDROOT
BRANCH   1   7
HETATM    7  C   UNL     1     -44.448  58.221 -56.118  1.00  0.00     0.251 C 
HETATM    8  N   UNL     1     -45.601  57.780 -56.735  1.00  0.00    -0.357 N 
HETATM    9  H   UNL     1     -45.593  56.855 -57.148  1.00  0.00     0.162 HD
HETATM   10  O   UNL     1     -44.208  59.404 -55.900  1.00  0.00    -0.268 OA
BRANCH   8  11
HETATM   11  C   UNL     1     -46.550  58.728 -57.292  1.00  0.00     0.127 C 
BRANCH  11  12
HETATM   12  C   UNL     1     -46.446  58.841 -58.815  1.00  0.00     0.058 C 
BRANCH  12  13
HETATM   13  C   UNL     1     -45.786  57.652 -59.477  1.00  0.00    -0.057 A 
HETATM   14  C   UNL     1     -44.413  57.671 -59.760  1.00  0.00     0.007 A 
HETATM   15  C   UNL     1     -43.797  56.573 -60.363  1.00  0.00     0.001 A 
HETATM   16  C   UNL     1     -44.546  55.445 -60.690  1.00  0.00     0.000 A 
HETATM   17  C   UNL     1     -45.911  55.412 -60.410  1.00  0.00     0.001 A 
HETATM   18  C   UNL     1     -46.527  56.507 -59.803  1.00  0.00     0.007 A 
ENDBRANCH  12  13
ENDBRANCH  11  12
ENDBRANCH   8  11
ENDBRANCH   1   7
BRANCH   4  19
HETATM   19  N   UNL     1     -40.735  54.062 -54.856  1.00  0.00    -0.309 N 
HETATM   20  C   UNL     1     -40.779  53.182 -53.784  1.00  0.00     0.325 C 
HETATM   21  N   UNL     1     -39.853  52.163 -53.948  1.00  0.00    -0.306 N 
HETATM   22  O   UNL     1     -41.537  53.272 -52.826  1.00  0.00    -0.247 OA
HETATM   23  H   UNL     1     -39.323  52.111 -54.803  1.00  0.00     0.171 HD
HETATM   24  H   UNL     1     -39.965  53.949 -55.497  1.00  0.00     0.170 HD
BRANCH  21  25
HETATM   25  C   UNL     1     -39.676  51.127 -53.050  1.00  0.00     0.072 A 
HETATM   26  C   UNL     1     -39.441  51.120 -51.656  1.00  0.00     0.169 A 
HETATM   27  N   UNL     1     -39.336  49.880 -51.166  1.00  0.00    -0.185 NA
HETATM   28  N   UNL     1     -39.504  49.098 -52.242  1.00  0.00    -0.287 N 
HETATM   29  H   UNL     1     -39.470  48.093 -52.113  1.00  0.00     0.188 HD
HETATM   30  C   UNL     1     -39.707  49.798 -53.398  1.00  0.00     0.140 A 
ENDBRANCH  21  25
ENDBRANCH   4  19
TORSDOF 6
ENDMDL
MODEL 7
REMARK VINA RESULT:      -7.3      2.082      2.704
REMARK  6 active torsions:
REMARK  status: ('A' for Active; 'I' for Inactive)
REMARK    1  A    between atoms: C_4  and  C_5 
REMARK    2  A    between atoms: C_5  and  C_6 
REMARK    3  A    between atoms: C_6  and  N_7 
REMARK       I    between atoms: N_7  and  C_8 
REMARK    4  A    between atoms: C_8  and  C_9 
REMARK    5  A    between atoms: C_12  and  N_13 
REMARK       I    between atoms: N_13  and  C_14 
REMARK       I    between atoms: C_14  and  N_15 
REMARK    6  A    between atoms: N_15  and  C_16 
ROOT
HETATM    1  C   UNL     1     -42.482  58.570 -51.346  1.00  0.00     0.032 A 
HETATM    2  C   UNL     1     -43.879  58.530 -51.419  1.00  0.00     0.019 A 
HETATM    3  C   UNL     1     -44.643  59.585 -50.905  1.00  0.00     0.030 A 
HETATM    4  C   UNL     1     -44.027  60.695 -50.322  1.00  0.00     0.036 A 
HETATM    5  C   UNL     1     -42.627  60.742 -50.274  1.00  0.00     0.030 A 
HETATM    6  C   UNL     1     -41.861  59.690 -50.786  1.00  0.00     0.019 A 
ENDROOT
BRANCH   1   7
HETATM    7  C   UNL     1     -41.627  57.463 -51.860  1.00  0.00     0.251 C 
HETATM    8  N   UNL     1     -41.692  57.215 -53.216  1.00  0.00    -0.357 N 
HETATM    9  H   UNL     1     -42.486  57.583 -53.728  1.00  0.00     0.162 HD
HETATM   10  O   UNL     1     -40.942  56.805 -51.085  1.00  0.00    -0.268 OA
BRANCH   8  11
HETATM   11  C   UNL     1     -41.039  56.050 -53.786  1.00  0.00     0.127 C 
BRANCH  11  12
HETATM   12  C   UNL     1     -41.858  54.769 -53.605  1.00  0.00     0.058 C 
BRANCH  12  13
HETATM   13  C   UNL     1     -41.030  53.551 -53.261  1.00  0.00    -0.057 A 
HETATM   14  C   UNL     1     -40.713  52.608 -54.249  1.00  0.00     0.007 A 
HETATM   15  C   UNL     1     -39.941  51.487 -53.938  1.00  0.00     0.001 A 
HETATM   16  C   UNL     1     -39.479  51.297 -52.638  1.00  0.00     0.000 A 
HETATM   17  C   UNL     1     -39.785  52.229 -51.648  1.00  0.00     0.001 A 
HETATM   18  C   UNL     1     -40.552  53.352 -51.958  1.00  0.00     0.007 A 
ENDBRANCH  12  13
ENDBRANCH  11  12
ENDBRANCH   8  11
ENDBRANCH   1   7
BRANCH   4  19
HETATM   19  N   UNL     1     -44.727  61.778 -49.751  1.00  0.00    -0.309 N 
HETATM   20  C   UNL     1     -45.171  61.904 -48.443  1.00  0.00     0.325 C 
HETATM   21  N   UNL     1     -45.683  63.172 -48.218  1.00  0.00    -0.306 N 
HETATM   22  O   UNL     1     -45.112  61.027 -47.590  1.00  0.00    -0.247 OA
HETATM   23  H   UNL     1     -45.621  63.866 -48.946  1.00  0.00     0.171 HD
HETATM   24  H   UNL     1     -44.972  62.527 -50.381  1.00  0.00     0.170 HD
BRANCH  21  25
HETATM   25  C   UNL     1     -46.185  63.599 -47.003  1.00  0.00     0.072 A 
HETATM   26  C   UNL     1     -47.509  63.719 -46.522  1.00  0.00     0.169 A 
HETATM   27  N   UNL     1     -47.554  64.174 -45.265  1.00  0.00    -0.185 NA
HETATM   28  N   UNL     1     -46.262  64.342 -44.944  1.00  0.00    -0.287 N 
HETATM   29  H   UNL     1     -46.042  64.682 -44.014  1.00  0.00     0.188 HD
HETATM   30  C   UNL     1     -45.402  64.016 -45.953  1.00  0.00     0.140 A 
ENDBRANCH  21  25
ENDBRANCH   4  19
TORSDOF 6
ENDMDL
MODEL 8
REMARK VINA RESULT:      -7.3      4.522      6.615
REMARK  6 active torsions:
REMARK  status: ('A' for Active; 'I' for Inactive)
REMARK    1  A    between atoms: C_4  and  C_5 
REMARK    2  A    between atoms: C_5  and  C_6 
REMARK    3  A    between atoms: C_6  and  N_7 
REMARK       I    between atoms: N_7  and  C_8 
REMARK    4  A    between atoms: C_8  and  C_9 
REMARK    5  A    between atoms: C_12  and  N_13 
REMARK       I    between atoms: N_13  and  C_14 
REMARK       I    between atoms: C_14  and  N_15 
REMARK    6  A    between atoms: N_15  and  C_16 
ROOT
HETATM    1  C   UNL     1     -42.270  56.531 -52.807  1.00  0.00     0.032 A 
HETATM    2  C   UNL     1     -41.085  57.183 -53.164  1.00  0.00     0.019 A 
HETATM    3  C   UNL     1     -41.129  58.429 -53.802  1.00  0.00     0.030 A 
HETATM    4  C   UNL     1     -42.351  59.044 -54.083  1.00  0.00     0.036 A 
HETATM    5  C   UNL     1     -43.535  58.399 -53.701  1.00  0.00     0.030 A 
HETATM    6  C   UNL     1     -43.495  57.154 -53.064  1.00  0.00     0.019 A 
ENDROOT
BRANCH   1   7
HETATM    7  C   UNL     1     -42.275  55.197 -52.145  1.00  0.00     0.251 C 
HETATM    8  N   UNL     1     -41.276  54.964 -51.222  1.00  0.00    -0.357 N 
HETATM    9  H   UNL     1     -40.461  55.567 -51.244  1.00  0.00     0.162 HD
HETATM   10  O   UNL     1     -43.117  54.360 -52.456  1.00  0.00    -0.268 OA
BRANCH   8  11
HETATM   11  C   UNL     1     -41.086  53.639 -50.657  1.00  0.00     0.127 C 
BRANCH  11  12
HETATM   12  C   UNL     1     -39.728  53.033 -51.022  1.00  0.00     0.058 C 
BRANCH  12  13
HETATM   13  C   UNL     1     -39.804  51.923 -52.047  1.00  0.00    -0.057 A 
HETATM   14  C   UNL     1     -40.126  52.213 -53.381  1.00  0.00     0.007 A 
HETATM   15  C   UNL     1     -40.188  51.193 -54.333  1.00  0.00     0.001 A 
HETATM   16  C   UNL     1     -39.931  49.876 -53.962  1.00  0.00     0.000 A 
HETATM   17  C   UNL     1     -39.607  49.576 -52.641  1.00  0.00     0.001 A 
HETATM   18  C   UNL     1     -39.539  50.594 -51.689  1.00  0.00     0.007 A 
ENDBRANCH  12  13
ENDBRANCH  11  12
ENDBRANCH   8  11
ENDBRANCH   1   7
BRANCH   4  19
HETATM   19  N   UNL     1     -42.479  60.279 -54.753  1.00  0.00    -0.309 N 
HETATM   20  C   UNL     1     -42.208  60.549 -56.087  1.00  0.00     0.325 C 
HETATM   21  N   UNL     1     -42.598  61.839 -56.416  1.00  0.00    -0.306 N 
HETATM   22  O   UNL     1     -41.706  59.762 -56.880  1.00  0.00    -0.247 OA
HETATM   23  H   UNL     1     -43.080  62.397 -55.730  1.00  0.00     0.171 HD
HETATM   24  H   UNL     1     -42.755  61.064 -54.184  1.00  0.00     0.170 HD
BRANCH  21  25
HETATM   25  C   UNL     1     -42.470  62.388 -57.677  1.00  0.00     0.072 A 
HETATM   26  C   UNL     1     -43.233  62.224 -58.856  1.00  0.00     0.169 A 
HETATM   27  N   UNL     1     -42.762  62.957 -59.871  1.00  0.00    -0.185 NA
HETATM   28  N   UNL     1     -41.704  63.588 -59.342  1.00  0.00    -0.287 N 
HETATM   29  H   UNL     1     -41.178  64.219 -59.936  1.00  0.00     0.188 HD
HETATM   30  C   UNL     1     -41.483  63.277 -58.030  1.00  0.00     0.140 A 
ENDBRANCH  21  25
ENDBRANCH   4  19
TORSDOF 6
ENDMDL
MODEL 9
REMARK VINA RESULT:      -7.2     17.654     20.484
REMARK  6 active torsions:
REMARK  status: ('A' for Active; 'I' for Inactive)
REMARK    1  A    between atoms: C_4  and  C_5 
REMARK    2  A    between atoms: C_5  and  C_6 
REMARK    3  A    between atoms: C_6  and  N_7 
REMARK       I    between atoms: N_7  and  C_8 
REMARK    4  A    between atoms: C_8  and  C_9 
REMARK    5  A    between atoms: C_12  and  N_13 
REMARK       I    between atoms: N_13  and  C_14 
REMARK       I    between atoms: C_14  and  N_15 
REMARK    6  A    between atoms: N_15  and  C_16 
ROOT
HETATM    1  C   UNL     1     -33.973  40.469 -52.984  1.00  0.00     0.032 A 
HETATM    2  C   UNL     1     -34.351  41.259 -51.893  1.00  0.00     0.019 A 
HETATM    3  C   UNL     1     -34.009  40.873 -50.590  1.00  0.00     0.030 A 
HETATM    4  C   UNL     1     -33.280  39.705 -50.360  1.00  0.00     0.036 A 
HETATM    5  C   UNL     1     -32.882  38.930 -51.458  1.00  0.00     0.030 A 
HETATM    6  C   UNL     1     -33.222  39.312 -52.760  1.00  0.00     0.019 A 
ENDROOT
BRANCH   1   7
HETATM    7  C   UNL     1     -34.330  40.826 -54.385  1.00  0.00     0.251 C 
HETATM    8  N   UNL     1     -34.739  42.126 -54.604  1.00  0.00    -0.357 N 
HETATM    9  H   UNL     1     -35.038  42.670 -53.802  1.00  0.00     0.162 HD
HETATM   10  O   UNL     1     -34.286  39.974 -55.267  1.00  0.00    -0.268 OA
BRANCH   8  11
HETATM   11  C   UNL     1     -35.279  42.524 -55.892  1.00  0.00     0.127 C 
BRANCH  11  12
HETATM   12  C   UNL     1     -36.786  42.281 -56.000  1.00  0.00     0.058 C 
BRANCH  12  13
HETATM   13  C   UNL     1     -37.205  41.555 -57.259  1.00  0.00    -0.057 A 
HETATM   14  C   UNL     1     -36.899  42.089 -58.519  1.00  0.00     0.007 A 
HETATM   15  C   UNL     1     -37.276  41.418 -59.684  1.00  0.00     0.001 A 
HETATM   16  C   UNL     1     -37.961  40.208 -59.603  1.00  0.00     0.000 A 
HETATM   17  C   UNL     1     -38.268  39.665 -58.356  1.00  0.00     0.001 A 
HETATM   18  C   UNL     1     -37.888  40.332 -57.191  1.00  0.00     0.007 A 
ENDBRANCH  12  13
ENDBRANCH  11  12
ENDBRANCH   8  11
ENDBRANCH   1   7
BRANCH   4  19
HETATM   19  N   UNL     1     -32.929  39.232 -49.078  1.00  0.00    -0.309 N 
HETATM   20  C   UNL     1     -31.708  39.363 -48.433  1.00  0.00     0.325 C 
HETATM   21  N   UNL     1     -31.791  38.905 -47.126  1.00  0.00    -0.306 N 
HETATM   22  O   UNL     1     -30.691  39.830 -48.931  1.00  0.00    -0.247 OA
HETATM   23  H   UNL     1     -32.684  38.612 -46.763  1.00  0.00     0.171 HD
HETATM   24  H   UNL     1     -33.635  38.698 -48.596  1.00  0.00     0.170 HD
BRANCH  21  25
HETATM   25  C   UNL     1     -30.738  38.924 -46.232  1.00  0.00     0.072 A 
HETATM   26  C   UNL     1     -30.212  39.954 -45.419  1.00  0.00     0.169 A 
HETATM   27  N   UNL     1     -29.175  39.541 -44.683  1.00  0.00    -0.185 NA
HETATM   28  N   UNL     1     -29.040  38.250 -45.022  1.00  0.00    -0.287 N 
HETATM   29  H   UNL     1     -28.303  37.713 -44.577  1.00  0.00     0.188 HD
HETATM   30  C   UNL     1     -29.950  37.833 -45.951  1.00  0.00     0.140 A 
ENDBRANCH  21  25
ENDBRANCH   4  19
TORSDOF 6
ENDMDL
MODEL 10
REMARK VINA RESULT:      -7.2      4.948      7.874
REMARK  6 active torsions:
REMARK  status: ('A' for Active; 'I' for Inactive)
REMARK    1  A    between atoms: C_4  and  C_5 
REMARK    2  A    between atoms: C_5  and  C_6 
REMARK    3  A    between atoms: C_6  and  N_7 
REMARK       I    between atoms: N_7  and  C_8 
REMARK    4  A    between atoms: C_8  and  C_9 
REMARK    5  A    between atoms: C_12  and  N_13 
REMARK       I    between atoms: N_13  and  C_14 
REMARK       I    between atoms: C_14  and  N_15 
REMARK    6  A    between atoms: N_15  and  C_16 
ROOT
HETATM    1  C   UNL     1     -41.879  55.755 -52.307  1.00  0.00     0.032 A 
HETATM    2  C   UNL     1     -41.013  55.617 -53.397  1.00  0.00     0.019 A 
HETATM    3  C   UNL     1     -41.420  56.015 -54.677  1.00  0.00     0.030 A 
HETATM    4  C   UNL     1     -42.687  56.563 -54.885  1.00  0.00     0.036 A 
HETATM    5  C   UNL     1     -43.543  56.722 -53.786  1.00  0.00     0.030 A 
HETATM    6  C   UNL     1     -43.140  56.325 -52.507  1.00  0.00     0.019 A 
ENDROOT
BRANCH   1   7
HETATM    7  C   UNL     1     -41.500  55.328 -50.931  1.00  0.00     0.251 C 
HETATM    8  N   UNL     1     -40.275  54.706 -50.796  1.00  0.00    -0.357 N 
HETATM    9  H   UNL     1     -39.840  54.331 -51.631  1.00  0.00     0.162 HD
HETATM   10  O   UNL     1     -42.277  55.502 -49.998  1.00  0.00    -0.268 OA
BRANCH   8  11
HETATM   11  C   UNL     1     -39.893  54.094 -49.536  1.00  0.00     0.127 C 
BRANCH  11  12
HETATM   12  C   UNL     1     -40.494  52.698 -49.353  1.00  0.00     0.058 C 
BRANCH  12  13
HETATM   13  C   UNL     1     -40.173  51.736 -50.474  1.00  0.00    -0.057 A 
HETATM   14  C   UNL     1     -39.900  52.217 -51.763  1.00  0.00     0.007 A 
HETATM   15  C   UNL     1     -39.594  51.333 -52.800  1.00  0.00     0.001 A 
HETATM   16  C   UNL     1     -39.557  49.962 -52.560  1.00  0.00     0.000 A 
HETATM   17  C   UNL     1     -39.822  49.472 -51.283  1.00  0.00     0.001 A 
HETATM   18  C   UNL     1     -40.124  50.353 -50.244  1.00  0.00     0.007 A 
ENDBRANCH  12  13
ENDBRANCH  11  12
ENDBRANCH   8  11
ENDBRANCH   1   7
BRANCH   4  19
HETATM   19  N   UNL     1     -43.182  56.953 -56.147  1.00  0.00    -0.309 N 
HETATM   20  C   UNL     1     -43.520  56.134 -57.214  1.00  0.00     0.325 C 
HETATM   21  N   UNL     1     -44.113  56.868 -58.230  1.00  0.00    -0.306 N 
HETATM   22  O   UNL     1     -43.338  54.923 -57.260  1.00  0.00    -0.247 OA
HETATM   23  H   UNL     1     -44.304  57.846 -58.083  1.00  0.00     0.171 HD
HETATM   24  H   UNL     1     -43.254  57.946 -56.305  1.00  0.00     0.170 HD
BRANCH  21  25
HETATM   25  C   UNL     1     -44.571  56.322 -59.413  1.00  0.00     0.072 A 
HETATM   26  C   UNL     1     -43.914  55.590 -60.429  1.00  0.00     0.169 A 
HETATM   27  N   UNL     1     -44.742  55.237 -61.418  1.00  0.00    -0.185 NA
HETATM   28  N   UNL     1     -45.925  55.740 -61.034  1.00  0.00    -0.287 N 
HETATM   29  H   UNL     1     -46.726  55.589 -61.638  1.00  0.00     0.188 HD
HETATM   30  C   UNL     1     -45.875  56.404 -59.842  1.00  0.00     0.140 A 
ENDBRANCH  21  25
ENDBRANCH   4  19
TORSDOF 6
ENDMDL
