MODEL 1
REMARK VINA RESULT:      -9.3      0.000      0.000
REMARK  9 active torsions:
REMARK  status: ('A' for Active; 'I' for Inactive)
REMARK    1  A    between atoms: C_8  and  C_9 
REMARK    2  A    between atoms: C_9  and  C_10 
REMARK    3  A    between atoms: N_14  and  C_15 
REMARK    4  A    between atoms: C_15  and  C_16 
REMARK    5  A    between atoms: C_27  and  N_28 
REMARK    6  A    between atoms: N_28  and  C_29 
REMARK    7  A    between atoms: C_29  and  C_30 
REMARK    8  A    between atoms: C_30  and  O_31 
REMARK    9  A    between atoms: C_30  and  C_32 
ROOT
HETATM    1  C   UNL     1     -44.501  54.269 -59.631  1.00  0.00     0.052 C 
HETATM    2  C   UNL     1     -44.957  55.694 -59.658  1.00  0.00    -0.015 A 
HETATM    3  C   UNL     1     -44.280  56.661 -58.724  1.00  0.00     0.144 A 
HETATM    4  N   UNL     1     -43.410  56.216 -57.874  1.00  0.00    -0.217 NA
HETATM    5  N   UNL     1     -44.633  57.996 -58.832  1.00  0.00    -0.272 N 
HETATM    6  C   UNL     1     -44.004  58.937 -58.035  1.00  0.00     0.266 A 
HETATM    7  O   UNL     1     -44.285  60.139 -58.027  1.00  0.00    -0.267 OA
HETATM    8  C   UNL     1     -42.926  58.429 -57.136  1.00  0.00     0.074 A 
HETATM    9  C   UNL     1     -42.745  57.091 -57.060  1.00  0.00     0.121 A 
HETATM   10  C   UNL     1     -45.633  58.407 -59.706  1.00  0.00     0.102 A 
HETATM   11  C   UNL     1     -46.270  57.543 -60.504  1.00  0.00     0.018 A 
HETATM   12  C   UNL     1     -45.905  56.153 -60.491  1.00  0.00     0.012 A 
ENDROOT
BRANCH   8  13
HETATM   13  C   UNL     1     -42.134  59.409 -56.402  1.00  0.00     0.045 C 
BRANCH  13  14
HETATM   14  C   UNL     1     -42.355  59.805 -55.141  1.00  0.00     0.077 A 
HETATM   15  S   UNL     1     -43.468  60.991 -54.593  1.00  0.00    -0.055 SA
HETATM   16  C   UNL     1     -42.872  60.924 -52.942  1.00  0.00     0.149 A 
HETATM   17  S   UNL     1     -43.421  61.984 -51.776  1.00  0.00    -0.052 SA
HETATM   18  N   UNL     1     -41.924  59.929 -52.827  1.00  0.00    -0.294 N 
HETATM   19  C   UNL     1     -41.577  59.268 -53.994  1.00  0.00     0.266 A 
HETATM   20  O   UNL     1     -40.713  58.410 -54.112  1.00  0.00    -0.266 OA
BRANCH  18  21
HETATM   21  C   UNL     1     -41.232  59.577 -51.590  1.00  0.00     0.172 C 
BRANCH  21  22
HETATM   22  C   UNL     1     -41.604  58.197 -51.091  1.00  0.00    -0.037 A 
HETATM   23  C   UNL     1     -42.885  57.675 -51.344  1.00  0.00     0.048 A 
HETATM   24  C   UNL     1     -43.181  56.414 -50.870  1.00  0.00     0.105 A 
HETATM   25  C   UNL     1     -42.268  55.671 -50.163  1.00  0.00     0.105 A 
HETATM   26  O   UNL     1     -44.363  55.761 -51.037  1.00  0.00    -0.323 OA
HETATM   27  O   UNL     1     -42.759  54.459 -49.791  1.00  0.00    -0.323 OA
HETATM   28  C   UNL     1     -41.006  56.146 -49.889  1.00  0.00     0.040 A 
HETATM   29  C   UNL     1     -44.085  54.519 -50.357  1.00  0.00     0.352 A 
HETATM   30  C   UNL     1     -40.673  57.420 -50.362  1.00  0.00     0.012 A 
ENDBRANCH  21  22
ENDBRANCH  18  21
ENDBRANCH  13  14
ENDBRANCH   8  13
BRANCH   9  31
HETATM   31  N   UNL     1     -41.836  56.497 -56.192  1.00  0.00    -0.274 NA
HETATM   32  H   UNL     1     -40.900  56.808 -56.472  1.00  0.00     0.129 HD
BRANCH  31  33
HETATM   33  C   UNL     1     -41.849  55.067 -55.857  1.00  0.00     0.130 C 
BRANCH  33  34
HETATM   34  C   UNL     1     -41.834  54.847 -54.323  1.00  0.00     0.164 C 
BRANCH  34  35
HETATM   35  O   UNL     1     -43.178  54.775 -53.823  1.00  0.00    -0.390 OA
HETATM   36  H   UNL     1     -43.133  54.550 -52.878  1.00  0.00     0.210 HD
ENDBRANCH  34  35
BRANCH  34  37
HETATM   37  C   UNL     1     -41.076  53.646 -53.793  1.00  0.00    -0.029 A 
HETATM   38  C   UNL     1     -40.843  52.482 -54.540  1.00  0.00     0.010 A 
HETATM   39  C   UNL     1     -40.130  51.410 -53.995  1.00  0.00     0.001 A 
HETATM   40  C   UNL     1     -39.640  51.482 -52.694  1.00  0.00     0.000 A 
HETATM   41  C   UNL     1     -39.868  52.625 -51.932  1.00  0.00     0.001 A 
HETATM   42  C   UNL     1     -40.581  53.695 -52.477  1.00  0.00     0.010 A 
ENDBRANCH  34  37
ENDBRANCH  33  34
ENDBRANCH  31  33
ENDBRANCH   9  31
TORSDOF 9
ENDMDL
MODEL 2
REMARK VINA RESULT:      -8.8      2.275      7.652
REMARK  9 active torsions:
REMARK  status: ('A' for Active; 'I' for Inactive)
REMARK    1  A    between atoms: C_8  and  C_9 
REMARK    2  A    between atoms: C_9  and  C_10 
REMARK    3  A    between atoms: N_14  and  C_15 
REMARK    4  A    between atoms: C_15  and  C_16 
REMARK    5  A    between atoms: C_27  and  N_28 
REMARK    6  A    between atoms: N_28  and  C_29 
REMARK    7  A    between atoms: C_29  and  C_30 
REMARK    8  A    between atoms: C_30  and  O_31 
REMARK    9  A    between atoms: C_30  and  C_32 
ROOT
HETATM    1  C   UNL     1     -40.571  51.690 -54.345  1.00  0.00     0.052 C 
HETATM    2  C   UNL     1     -40.576  52.559 -53.127  1.00  0.00    -0.015 A 
HETATM    3  C   UNL     1     -41.447  53.787 -53.149  1.00  0.00     0.144 A 
HETATM    4  N   UNL     1     -42.076  54.098 -54.238  1.00  0.00    -0.217 NA
HETATM    5  N   UNL     1     -41.527  54.526 -51.980  1.00  0.00    -0.272 N 
HETATM    6  C   UNL     1     -42.356  55.634 -51.927  1.00  0.00     0.266 A 
HETATM    7  O   UNL     1     -42.455  56.378 -50.947  1.00  0.00    -0.267 OA
HETATM    8  C   UNL     1     -43.158  55.920 -53.151  1.00  0.00     0.074 A 
HETATM    9  C   UNL     1     -42.916  55.176 -54.254  1.00  0.00     0.121 A 
HETATM   10  C   UNL     1     -40.767  54.192 -50.865  1.00  0.00     0.102 A 
HETATM   11  C   UNL     1     -39.956  53.129 -50.858  1.00  0.00     0.018 A 
HETATM   12  C   UNL     1     -39.876  52.281 -52.016  1.00  0.00     0.012 A 
ENDROOT
BRANCH   8  13
HETATM   13  C   UNL     1     -44.157  56.980 -53.078  1.00  0.00     0.045 C 
BRANCH  13  14
HETATM   14  C   UNL     1     -43.968  58.258 -53.435  1.00  0.00     0.077 A 
HETATM   15  S   UNL     1     -43.108  59.471 -52.577  1.00  0.00    -0.055 SA
HETATM   16  C   UNL     1     -43.599  60.739 -53.689  1.00  0.00     0.149 A 
HETATM   17  S   UNL     1     -43.235  62.341 -53.396  1.00  0.00    -0.052 SA
HETATM   18  N   UNL     1     -44.308  60.192 -54.739  1.00  0.00    -0.294 N 
HETATM   19  C   UNL     1     -44.559  58.831 -54.671  1.00  0.00     0.266 A 
HETATM   20  O   UNL     1     -45.226  58.178 -55.462  1.00  0.00    -0.266 OA
BRANCH  18  21
HETATM   21  C   UNL     1     -44.851  60.951 -55.862  1.00  0.00     0.172 C 
BRANCH  21  22
HETATM   22  C   UNL     1     -43.893  61.019 -57.032  1.00  0.00    -0.037 A 
HETATM   23  C   UNL     1     -44.012  60.107 -58.096  1.00  0.00     0.048 A 
HETATM   24  C   UNL     1     -43.117  60.204 -59.141  1.00  0.00     0.105 A 
HETATM   25  C   UNL     1     -42.124  61.154 -59.161  1.00  0.00     0.105 A 
HETATM   26  O   UNL     1     -43.100  59.413 -60.248  1.00  0.00    -0.323 OA
HETATM   27  O   UNL     1     -41.354  61.079 -60.280  1.00  0.00    -0.323 OA
HETATM   28  C   UNL     1     -41.970  62.061 -58.138  1.00  0.00     0.040 A 
HETATM   29  C   UNL     1     -41.985  59.979 -60.969  1.00  0.00     0.352 A 
HETATM   30  C   UNL     1     -42.867  61.992 -57.066  1.00  0.00     0.012 A 
ENDBRANCH  21  22
ENDBRANCH  18  21
ENDBRANCH  13  14
ENDBRANCH   8  13
BRANCH   9  31
HETATM   31  N   UNL     1     -43.535  55.409 -55.477  1.00  0.00    -0.274 NA
HETATM   32  H   UNL     1     -44.408  54.872 -55.484  1.00  0.00     0.129 HD
BRANCH  31  33
HETATM   33  C   UNL     1     -42.840  55.322 -56.768  1.00  0.00     0.130 C 
BRANCH  33  34
HETATM   34  C   UNL     1     -43.214  56.510 -57.691  1.00  0.00     0.164 C 
BRANCH  34  35
HETATM   35  O   UNL     1     -42.028  57.076 -58.268  1.00  0.00    -0.390 OA
HETATM   36  H   UNL     1     -41.602  57.627 -57.589  1.00  0.00     0.210 HD
ENDBRANCH  34  35
BRANCH  34  37
HETATM   37  C   UNL     1     -44.197  56.242 -58.815  1.00  0.00    -0.029 A 
HETATM   38  C   UNL     1     -45.355  57.002 -59.034  1.00  0.00     0.010 A 
HETATM   39  C   UNL     1     -46.218  56.706 -60.093  1.00  0.00     0.001 A 
HETATM   40  C   UNL     1     -45.939  55.645 -60.950  1.00  0.00     0.000 A 
HETATM   41  C   UNL     1     -44.799  54.872 -60.745  1.00  0.00     0.001 A 
HETATM   42  C   UNL     1     -43.938  55.168 -59.686  1.00  0.00     0.010 A 
ENDBRANCH  34  37
ENDBRANCH  33  34
ENDBRANCH  31  33
ENDBRANCH   9  31
TORSDOF 9
ENDMDL
MODEL 3
REMARK VINA RESULT:      -8.7      3.291      4.075
REMARK  9 active torsions:
REMARK  status: ('A' for Active; 'I' for Inactive)
REMARK    1  A    between atoms: C_8  and  C_9 
REMARK    2  A    between atoms: C_9  and  C_10 
REMARK    3  A    between atoms: N_14  and  C_15 
REMARK    4  A    between atoms: C_15  and  C_16 
REMARK    5  A    between atoms: C_27  and  N_28 
REMARK    6  A    between atoms: N_28  and  C_29 
REMARK    7  A    between atoms: C_29  and  C_30 
REMARK    8  A    between atoms: C_30  and  O_31 
REMARK    9  A    between atoms: C_30  and  C_32 
ROOT
HETATM    1  C   UNL     1     -43.546  55.167 -59.320  1.00  0.00     0.052 C 
HETATM    2  C   UNL     1     -42.954  56.522 -59.092  1.00  0.00    -0.015 A 
HETATM    3  C   UNL     1     -42.985  57.072 -57.691  1.00  0.00     0.144 A 
HETATM    4  N   UNL     1     -43.602  56.409 -56.765  1.00  0.00    -0.217 NA
HETATM    5  N   UNL     1     -42.341  58.278 -57.471  1.00  0.00    -0.272 N 
HETATM    6  C   UNL     1     -42.292  58.804 -56.191  1.00  0.00     0.266 A 
HETATM    7  O   UNL     1     -41.783  59.892 -55.908  1.00  0.00    -0.267 OA
HETATM    8  C   UNL     1     -42.910  57.979 -55.113  1.00  0.00     0.074 A 
HETATM    9  C   UNL     1     -43.588  56.867 -55.477  1.00  0.00     0.121 A 
HETATM   10  C   UNL     1     -41.765  58.988 -58.519  1.00  0.00     0.102 A 
HETATM   11  C   UNL     1     -41.777  58.524 -59.774  1.00  0.00     0.018 A 
HETATM   12  C   UNL     1     -42.371  57.247 -60.060  1.00  0.00     0.012 A 
ENDROOT
BRANCH   8  13
HETATM   13  C   UNL     1     -42.738  58.422 -53.734  1.00  0.00     0.045 C 
BRANCH  13  14
HETATM   14  C   UNL     1     -43.396  59.434 -53.151  1.00  0.00     0.077 A 
HETATM   15  S   UNL     1     -44.968  60.015 -53.520  1.00  0.00    -0.055 SA
HETATM   16  C   UNL     1     -44.820  61.386 -52.432  1.00  0.00     0.149 A 
HETATM   17  S   UNL     1     -45.994  62.570 -52.360  1.00  0.00    -0.052 SA
HETATM   18  N   UNL     1     -43.631  61.306 -51.738  1.00  0.00    -0.294 N 
HETATM   19  C   UNL     1     -42.786  60.262 -52.079  1.00  0.00     0.266 A 
HETATM   20  O   UNL     1     -41.665  60.062 -51.631  1.00  0.00    -0.266 OA
BRANCH  18  21
HETATM   21  C   UNL     1     -43.189  62.266 -50.730  1.00  0.00     0.172 C 
BRANCH  21  22
HETATM   22  C   UNL     1     -44.076  62.268 -49.504  1.00  0.00    -0.037 A 
HETATM   23  C   UNL     1     -44.627  61.065 -49.028  1.00  0.00     0.048 A 
HETATM   24  C   UNL     1     -45.431  61.113 -47.908  1.00  0.00     0.105 A 
HETATM   25  C   UNL     1     -45.704  62.294 -47.261  1.00  0.00     0.105 A 
HETATM   26  O   UNL     1     -46.029  60.046 -47.313  1.00  0.00    -0.323 OA
HETATM   27  O   UNL     1     -46.512  62.121 -46.181  1.00  0.00    -0.323 OA
HETATM   28  C   UNL     1     -45.190  63.494 -47.696  1.00  0.00     0.040 A 
HETATM   29  C   UNL     1     -46.707  60.692 -46.215  1.00  0.00     0.352 A 
HETATM   30  C   UNL     1     -44.365  63.476 -48.827  1.00  0.00     0.012 A 
ENDBRANCH  21  22
ENDBRANCH  18  21
ENDBRANCH  13  14
ENDBRANCH   8  13
BRANCH   9  31
HETATM   31  N   UNL     1     -44.281  56.071 -54.572  1.00  0.00    -0.274 NA
HETATM   32  H   UNL     1     -44.446  56.636 -53.733  1.00  0.00     0.129 HD
BRANCH  31  33
HETATM   33  C   UNL     1     -43.883  54.699 -54.228  1.00  0.00     0.130 C 
BRANCH  33  34
HETATM   34  C   UNL     1     -42.968  54.676 -52.976  1.00  0.00     0.164 C 
BRANCH  34  35
HETATM   35  O   UNL     1     -43.755  54.450 -51.797  1.00  0.00    -0.390 OA
HETATM   36  H   UNL     1     -44.589  54.940 -51.898  1.00  0.00     0.210 HD
ENDBRANCH  34  35
BRANCH  34  37
HETATM   37  C   UNL     1     -41.819  53.686 -52.966  1.00  0.00    -0.029 A 
HETATM   38  C   UNL     1     -41.051  53.397 -51.829  1.00  0.00     0.010 A 
HETATM   39  C   UNL     1     -40.008  52.468 -51.884  1.00  0.00     0.001 A 
HETATM   40  C   UNL     1     -39.713  51.814 -53.078  1.00  0.00     0.000 A 
HETATM   41  C   UNL     1     -40.458  52.094 -54.221  1.00  0.00     0.001 A 
HETATM   42  C   UNL     1     -41.499  53.023 -54.165  1.00  0.00     0.010 A 
ENDBRANCH  34  37
ENDBRANCH  33  34
ENDBRANCH  31  33
ENDBRANCH   9  31
TORSDOF 9
ENDMDL
MODEL 4
REMARK VINA RESULT:      -8.7      3.031      6.993
REMARK  9 active torsions:
REMARK  status: ('A' for Active; 'I' for Inactive)
REMARK    1  A    between atoms: C_8  and  C_9 
REMARK    2  A    between atoms: C_9  and  C_10 
REMARK    3  A    between atoms: N_14  and  C_15 
REMARK    4  A    between atoms: C_15  and  C_16 
REMARK    5  A    between atoms: C_27  and  N_28 
REMARK    6  A    between atoms: N_28  and  C_29 
REMARK    7  A    between atoms: C_29  and  C_30 
REMARK    8  A    between atoms: C_30  and  O_31 
REMARK    9  A    between atoms: C_30  and  C_32 
ROOT
HETATM    1  C   UNL     1     -40.873  54.531 -49.164  1.00  0.00     0.052 C 
HETATM    2  C   UNL     1     -40.690  53.786 -50.449  1.00  0.00    -0.015 A 
HETATM    3  C   UNL     1     -41.602  54.135 -51.594  1.00  0.00     0.144 A 
HETATM    4  N   UNL     1     -42.563  54.982 -51.402  1.00  0.00    -0.217 NA
HETATM    5  N   UNL     1     -41.356  53.518 -52.809  1.00  0.00    -0.272 N 
HETATM    6  C   UNL     1     -42.130  53.841 -53.910  1.00  0.00     0.266 A 
HETATM    7  O   UNL     1     -42.015  53.310 -55.018  1.00  0.00    -0.267 OA
HETATM    8  C   UNL     1     -43.163  54.898 -53.706  1.00  0.00     0.074 A 
HETATM    9  C   UNL     1     -43.362  55.353 -52.448  1.00  0.00     0.121 A 
HETATM   10  C   UNL     1     -40.362  52.554 -52.938  1.00  0.00     0.102 A 
HETATM   11  C   UNL     1     -39.580  52.207 -51.909  1.00  0.00     0.018 A 
HETATM   12  C   UNL     1     -39.739  52.858 -50.637  1.00  0.00     0.012 A 
ENDROOT
BRANCH   8  13
HETATM   13  C   UNL     1     -43.887  55.379 -54.877  1.00  0.00     0.045 C 
BRANCH  13  14
HETATM   14  C   UNL     1     -43.666  56.540 -55.510  1.00  0.00     0.077 A 
HETATM   15  S   UNL     1     -42.340  56.948 -56.522  1.00  0.00    -0.055 SA
HETATM   16  C   UNL     1     -42.839  58.627 -56.656  1.00  0.00     0.149 A 
HETATM   17  S   UNL     1     -41.884  59.758 -57.429  1.00  0.00    -0.052 SA
HETATM   18  N   UNL     1     -44.051  58.807 -56.025  1.00  0.00    -0.294 N 
HETATM   19  C   UNL     1     -44.572  57.707 -55.363  1.00  0.00     0.266 A 
HETATM   20  O   UNL     1     -45.593  57.684 -54.690  1.00  0.00    -0.266 OA
BRANCH  18  21
HETATM   21  C   UNL     1     -44.775  60.074 -55.958  1.00  0.00     0.172 C 
BRANCH  21  22
HETATM   22  C   UNL     1     -44.480  60.843 -54.687  1.00  0.00    -0.037 A 
HETATM   23  C   UNL     1     -45.464  60.967 -53.691  1.00  0.00     0.048 A 
HETATM   24  C   UNL     1     -45.152  61.677 -52.550  1.00  0.00     0.105 A 
HETATM   25  C   UNL     1     -43.922  62.261 -52.373  1.00  0.00     0.105 A 
HETATM   26  O   UNL     1     -45.980  61.880 -51.490  1.00  0.00    -0.323 OA
HETATM   27  O   UNL     1     -43.820  62.910 -51.182  1.00  0.00    -0.323 OA
HETATM   28  C   UNL     1     -42.932  62.169 -53.325  1.00  0.00     0.040 A 
HETATM   29  C   UNL     1     -45.126  62.656 -50.624  1.00  0.00     0.352 A 
HETATM   30  C   UNL     1     -43.217  61.449 -54.491  1.00  0.00     0.012 A 
ENDBRANCH  21  22
ENDBRANCH  18  21
ENDBRANCH  13  14
ENDBRANCH   8  13
BRANCH   9  31
HETATM   31  N   UNL     1     -44.355  56.268 -52.121  1.00  0.00    -0.274 NA
HETATM   32  H   UNL     1     -44.570  56.802 -52.970  1.00  0.00     0.129 HD
BRANCH  31  33
HETATM   33  C   UNL     1     -44.300  57.139 -50.939  1.00  0.00     0.130 C 
BRANCH  33  34
HETATM   34  C   UNL     1     -43.818  58.565 -51.311  1.00  0.00     0.164 C 
BRANCH  34  35
HETATM   35  O   UNL     1     -44.122  59.480 -50.247  1.00  0.00    -0.390 OA
HETATM   36  H   UNL     1     -43.380  59.462 -49.618  1.00  0.00     0.210 HD
ENDBRANCH  34  35
BRANCH  34  37
HETATM   37  C   UNL     1     -42.355  58.739 -51.671  1.00  0.00    -0.029 A 
HETATM   38  C   UNL     1     -41.842  58.543 -52.961  1.00  0.00     0.010 A 
HETATM   39  C   UNL     1     -40.482  58.726 -53.229  1.00  0.00     0.001 A 
HETATM   40  C   UNL     1     -39.612  59.106 -52.211  1.00  0.00     0.000 A 
HETATM   41  C   UNL     1     -40.099  59.297 -50.920  1.00  0.00     0.001 A 
HETATM   42  C   UNL     1     -41.458  59.112 -50.654  1.00  0.00     0.010 A 
ENDBRANCH  34  37
ENDBRANCH  33  34
ENDBRANCH  31  33
ENDBRANCH   9  31
TORSDOF 9
ENDMDL
MODEL 5
REMARK VINA RESULT:      -8.5      2.712      3.434
REMARK  9 active torsions:
REMARK  status: ('A' for Active; 'I' for Inactive)
REMARK    1  A    between atoms: C_8  and  C_9 
REMARK    2  A    between atoms: C_9  and  C_10 
REMARK    3  A    between atoms: N_14  and  C_15 
REMARK    4  A    between atoms: C_15  and  C_16 
REMARK    5  A    between atoms: C_27  and  N_28 
REMARK    6  A    between atoms: N_28  and  C_29 
REMARK    7  A    between atoms: C_29  and  C_30 
REMARK    8  A    between atoms: C_30  and  O_31 
REMARK    9  A    between atoms: C_30  and  C_32 
ROOT
HETATM    1  C   UNL     1     -44.712  54.465 -60.100  1.00  0.00     0.052 C 
HETATM    2  C   UNL     1     -45.121  55.876 -59.816  1.00  0.00    -0.015 A 
HETATM    3  C   UNL     1     -44.419  56.595 -58.695  1.00  0.00     0.144 A 
HETATM    4  N   UNL     1     -43.570  55.947 -57.962  1.00  0.00    -0.217 NA
HETATM    5  N   UNL     1     -44.728  57.932 -58.510  1.00  0.00    -0.272 N 
HETATM    6  C   UNL     1     -44.074  58.656 -57.527  1.00  0.00     0.266 A 
HETATM    7  O   UNL     1     -44.316  59.836 -57.258  1.00  0.00    -0.267 OA
HETATM    8  C   UNL     1     -43.019  57.929 -56.762  1.00  0.00     0.074 A 
HETATM    9  C   UNL     1     -42.882  56.601 -56.979  1.00  0.00     0.121 A 
HETATM   10  C   UNL     1     -45.708  58.556 -59.273  1.00  0.00     0.102 A 
HETATM   11  C   UNL     1     -46.368  57.908 -60.239  1.00  0.00     0.018 A 
HETATM   12  C   UNL     1     -46.048  56.536 -60.529  1.00  0.00     0.012 A 
ENDROOT
BRANCH   8  13
HETATM   13  C   UNL     1     -42.200  58.699 -55.833  1.00  0.00     0.045 C 
BRANCH  13  14
HETATM   14  C   UNL     1     -42.157  58.529 -54.504  1.00  0.00     0.077 A 
HETATM   15  S   UNL     1     -40.808  58.066 -53.549  1.00  0.00    -0.055 SA
HETATM   16  C   UNL     1     -41.772  57.923 -52.087  1.00  0.00     0.149 A 
HETATM   17  S   UNL     1     -41.121  57.328 -50.671  1.00  0.00    -0.052 SA
HETATM   18  N   UNL     1     -43.064  58.335 -52.337  1.00  0.00    -0.294 N 
HETATM   19  C   UNL     1     -43.360  58.680 -53.647  1.00  0.00     0.266 A 
HETATM   20  O   UNL     1     -44.458  59.001 -54.080  1.00  0.00    -0.266 OA
BRANCH  18  21
HETATM   21  C   UNL     1     -44.134  58.372 -51.344  1.00  0.00     0.172 C 
BRANCH  21  22
HETATM   22  C   UNL     1     -44.281  59.735 -50.702  1.00  0.00    -0.037 A 
HETATM   23  C   UNL     1     -45.500  60.109 -50.109  1.00  0.00     0.048 A 
HETATM   24  C   UNL     1     -45.590  61.361 -49.536  1.00  0.00     0.105 A 
HETATM   25  C   UNL     1     -44.533  62.238 -49.540  1.00  0.00     0.105 A 
HETATM   26  O   UNL     1     -46.686  61.872 -48.913  1.00  0.00    -0.323 OA
HETATM   27  O   UNL     1     -44.830  63.414 -48.923  1.00  0.00    -0.323 OA
HETATM   28  C   UNL     1     -43.325  61.914 -50.114  1.00  0.00     0.040 A 
HETATM   29  C   UNL     1     -46.194  63.171 -48.521  1.00  0.00     0.352 A 
HETATM   30  C   UNL     1     -43.201  60.648 -50.697  1.00  0.00     0.012 A 
ENDBRANCH  21  22
ENDBRANCH  18  21
ENDBRANCH  13  14
ENDBRANCH   8  13
BRANCH   9  31
HETATM   31  N   UNL     1     -41.999  55.803 -56.261  1.00  0.00    -0.274 NA
HETATM   32  H   UNL     1     -41.197  55.611 -56.871  1.00  0.00     0.129 HD
BRANCH  31  33
HETATM   33  C   UNL     1     -42.408  54.604 -55.518  1.00  0.00     0.130 C 
BRANCH  33  34
HETATM   34  C   UNL     1     -41.962  54.679 -54.036  1.00  0.00     0.164 C 
BRANCH  34  35
HETATM   35  O   UNL     1     -43.112  54.785 -53.182  1.00  0.00    -0.390 OA
HETATM   36  H   UNL     1     -42.795  54.866 -52.266  1.00  0.00     0.210 HD
ENDBRANCH  34  35
BRANCH  34  37
HETATM   37  C   UNL     1     -41.091  53.557 -53.507  1.00  0.00    -0.029 A 
HETATM   38  C   UNL     1     -40.630  52.492 -54.295  1.00  0.00     0.010 A 
HETATM   39  C   UNL     1     -39.823  51.490 -53.748  1.00  0.00     0.001 A 
HETATM   40  C   UNL     1     -39.465  51.534 -52.403  1.00  0.00     0.000 A 
HETATM   41  C   UNL     1     -39.921  52.577 -51.600  1.00  0.00     0.001 A 
HETATM   42  C   UNL     1     -40.727  53.577 -52.148  1.00  0.00     0.010 A 
ENDBRANCH  34  37
ENDBRANCH  33  34
ENDBRANCH  31  33
ENDBRANCH   9  31
TORSDOF 9
ENDMDL
MODEL 6
REMARK VINA RESULT:      -8.4      2.706      8.003
REMARK  9 active torsions:
REMARK  status: ('A' for Active; 'I' for Inactive)
REMARK    1  A    between atoms: C_8  and  C_9 
REMARK    2  A    between atoms: C_9  and  C_10 
REMARK    3  A    between atoms: N_14  and  C_15 
REMARK    4  A    between atoms: C_15  and  C_16 
REMARK    5  A    between atoms: C_27  and  N_28 
REMARK    6  A    between atoms: N_28  and  C_29 
REMARK    7  A    between atoms: C_29  and  C_30 
REMARK    8  A    between atoms: C_30  and  O_31 
REMARK    9  A    between atoms: C_30  and  C_32 
ROOT
HETATM    1  C   UNL     1     -40.918  56.193 -49.886  1.00  0.00     0.052 C 
HETATM    2  C   UNL     1     -41.227  57.474 -50.594  1.00  0.00    -0.015 A 
HETATM    3  C   UNL     1     -42.004  57.391 -51.880  1.00  0.00     0.144 A 
HETATM    4  N   UNL     1     -42.289  56.228 -52.374  1.00  0.00    -0.217 NA
HETATM    5  N   UNL     1     -42.377  58.586 -52.472  1.00  0.00    -0.272 N 
HETATM    6  C   UNL     1     -43.140  58.569 -53.628  1.00  0.00     0.266 A 
HETATM    7  O   UNL     1     -43.478  59.581 -54.249  1.00  0.00    -0.267 OA
HETATM    8  C   UNL     1     -43.554  57.226 -54.127  1.00  0.00     0.074 A 
HETATM    9  C   UNL     1     -43.044  56.137 -53.509  1.00  0.00     0.121 A 
HETATM   10  C   UNL     1     -41.974  59.807 -51.942  1.00  0.00     0.102 A 
HETATM   11  C   UNL     1     -41.243  59.883 -50.825  1.00  0.00     0.018 A 
HETATM   12  C   UNL     1     -40.879  58.682 -50.124  1.00  0.00     0.012 A 
ENDROOT
BRANCH   8  13
HETATM   13  C   UNL     1     -44.488  57.175 -55.246  1.00  0.00     0.045 C 
BRANCH  13  14
HETATM   14  C   UNL     1     -44.186  57.426 -56.528  1.00  0.00     0.077 A 
HETATM   15  S   UNL     1     -42.795  56.919 -57.396  1.00  0.00    -0.055 SA
HETATM   16  C   UNL     1     -43.214  57.876 -58.810  1.00  0.00     0.149 A 
HETATM   17  S   UNL     1     -42.174  58.008 -60.109  1.00  0.00    -0.052 SA
HETATM   18  N   UNL     1     -44.447  58.464 -58.628  1.00  0.00    -0.294 N 
HETATM   19  C   UNL     1     -45.048  58.270 -57.394  1.00  0.00     0.266 A 
HETATM   20  O   UNL     1     -46.102  58.764 -57.016  1.00  0.00    -0.266 OA
BRANCH  18  21
HETATM   21  C   UNL     1     -45.119  59.311 -59.609  1.00  0.00     0.172 C 
BRANCH  21  22
HETATM   22  C   UNL     1     -46.206  58.574 -60.363  1.00  0.00    -0.037 A 
HETATM   23  C   UNL     1     -47.165  59.290 -61.101  1.00  0.00     0.048 A 
HETATM   24  C   UNL     1     -48.138  58.578 -61.771  1.00  0.00     0.105 A 
HETATM   25  C   UNL     1     -48.192  57.206 -61.729  1.00  0.00     0.105 A 
HETATM   26  O   UNL     1     -49.127  59.112 -62.536  1.00  0.00    -0.323 OA
HETATM   27  O   UNL     1     -49.223  56.703 -62.458  1.00  0.00    -0.323 OA
HETATM   28  C   UNL     1     -47.276  56.467 -61.015  1.00  0.00     0.040 A 
HETATM   29  C   UNL     1     -49.807  57.917 -62.974  1.00  0.00     0.352 A 
HETATM   30  C   UNL     1     -46.273  57.161 -60.329  1.00  0.00     0.012 A 
ENDBRANCH  21  22
ENDBRANCH  18  21
ENDBRANCH  13  14
ENDBRANCH   8  13
BRANCH   9  31
HETATM   31  N   UNL     1     -43.286  54.838 -53.941  1.00  0.00    -0.274 NA
HETATM   32  H   UNL     1     -43.190  54.222 -53.127  1.00  0.00     0.129 HD
BRANCH  31  33
HETATM   33  C   UNL     1     -42.663  54.250 -55.135  1.00  0.00     0.130 C 
BRANCH  33  34
HETATM   34  C   UNL     1     -41.124  54.147 -54.975  1.00  0.00     0.164 C 
BRANCH  34  35
HETATM   35  O   UNL     1     -40.569  55.444 -54.712  1.00  0.00    -0.390 OA
HETATM   36  H   UNL     1     -40.620  55.601 -53.754  1.00  0.00     0.210 HD
ENDBRANCH  34  35
BRANCH  34  37
HETATM   37  C   UNL     1     -40.592  53.191 -53.925  1.00  0.00    -0.029 A 
HETATM   38  C   UNL     1     -40.416  53.535 -52.577  1.00  0.00     0.010 A 
HETATM   39  C   UNL     1     -39.926  52.604 -51.656  1.00  0.00     0.001 A 
HETATM   40  C   UNL     1     -39.600  51.315 -52.068  1.00  0.00     0.000 A 
HETATM   41  C   UNL     1     -39.758  50.956 -53.404  1.00  0.00     0.001 A 
HETATM   42  C   UNL     1     -40.247  51.886 -54.323  1.00  0.00     0.010 A 
ENDBRANCH  34  37
ENDBRANCH  33  34
ENDBRANCH  31  33
ENDBRANCH   9  31
TORSDOF 9
ENDMDL
MODEL 7
REMARK VINA RESULT:      -8.3      2.474      8.494
REMARK  9 active torsions:
REMARK  status: ('A' for Active; 'I' for Inactive)
REMARK    1  A    between atoms: C_8  and  C_9 
REMARK    2  A    between atoms: C_9  and  C_10 
REMARK    3  A    between atoms: N_14  and  C_15 
REMARK    4  A    between atoms: C_15  and  C_16 
REMARK    5  A    between atoms: C_27  and  N_28 
REMARK    6  A    between atoms: N_28  and  C_29 
REMARK    7  A    between atoms: C_29  and  C_30 
REMARK    8  A    between atoms: C_30  and  O_31 
REMARK    9  A    between atoms: C_30  and  C_32 
ROOT
HETATM    1  C   UNL     1     -41.506  54.940 -49.461  1.00  0.00     0.052 C 
HETATM    2  C   UNL     1     -40.994  54.012 -50.517  1.00  0.00    -0.015 A 
HETATM    3  C   UNL     1     -41.652  54.062 -51.870  1.00  0.00     0.144 A 
HETATM    4  N   UNL     1     -42.687  54.823 -52.042  1.00  0.00    -0.217 NA
HETATM    5  N   UNL     1     -41.103  53.278 -52.870  1.00  0.00    -0.272 N 
HETATM    6  C   UNL     1     -41.635  53.325 -54.147  1.00  0.00     0.266 A 
HETATM    7  O   UNL     1     -41.242  52.629 -55.087  1.00  0.00    -0.267 OA
HETATM    8  C   UNL     1     -42.756  54.285 -54.361  1.00  0.00     0.074 A 
HETATM    9  C   UNL     1     -43.259  54.922 -53.279  1.00  0.00     0.121 A 
HETATM   10  C   UNL     1     -40.042  52.418 -52.608  1.00  0.00     0.102 A 
HETATM   11  C   UNL     1     -39.485  52.336 -51.395  1.00  0.00     0.018 A 
HETATM   12  C   UNL     1     -39.964  53.172 -50.328  1.00  0.00     0.012 A 
ENDROOT
BRANCH   8  13
HETATM   13  C   UNL     1     -43.234  54.480 -55.725  1.00  0.00     0.045 C 
BRANCH  13  14
HETATM   14  C   UNL     1     -42.902  55.498 -56.532  1.00  0.00     0.077 A 
HETATM   15  S   UNL     1     -42.127  56.968 -56.101  1.00  0.00    -0.055 SA
HETATM   16  C   UNL     1     -42.333  57.655 -57.705  1.00  0.00     0.149 A 
HETATM   17  S   UNL     1     -41.921  59.239 -58.030  1.00  0.00    -0.052 SA
HETATM   18  N   UNL     1     -42.882  56.715 -58.550  1.00  0.00    -0.294 N 
HETATM   19  C   UNL     1     -43.230  55.500 -57.981  1.00  0.00     0.266 A 
HETATM   20  O   UNL     1     -43.790  54.570 -58.544  1.00  0.00    -0.266 OA
BRANCH  18  21
HETATM   21  C   UNL     1     -43.170  56.934 -59.965  1.00  0.00     0.172 C 
BRANCH  21  22
HETATM   22  C   UNL     1     -44.559  57.493 -60.193  1.00  0.00    -0.037 A 
HETATM   23  C   UNL     1     -44.754  58.882 -60.293  1.00  0.00     0.048 A 
HETATM   24  C   UNL     1     -46.036  59.347 -60.500  1.00  0.00     0.105 A 
HETATM   25  C   UNL     1     -47.109  58.496 -60.601  1.00  0.00     0.105 A 
HETATM   26  O   UNL     1     -46.395  60.652 -60.632  1.00  0.00    -0.323 OA
HETATM   27  O   UNL     1     -48.281  59.157 -60.805  1.00  0.00    -0.323 OA
HETATM   28  C   UNL     1     -46.963  57.132 -60.503  1.00  0.00     0.040 A 
HETATM   29  C   UNL     1     -47.818  60.524 -60.833  1.00  0.00     0.352 A 
HETATM   30  C   UNL     1     -45.673  56.628 -60.300  1.00  0.00     0.012 A 
ENDBRANCH  21  22
ENDBRANCH  18  21
ENDBRANCH  13  14
ENDBRANCH   8  13
BRANCH   9  31
HETATM   31  N   UNL     1     -44.360  55.769 -53.342  1.00  0.00    -0.274 NA
HETATM   32  H   UNL     1     -44.986  55.402 -54.065  1.00  0.00     0.129 HD
BRANCH  31  33
HETATM   33  C   UNL     1     -44.255  57.233 -53.414  1.00  0.00     0.130 C 
BRANCH  33  34
HETATM   34  C   UNL     1     -44.438  57.880 -52.017  1.00  0.00     0.164 C 
BRANCH  34  35
HETATM   35  O   UNL     1     -44.937  56.907 -51.086  1.00  0.00    -0.390 OA
HETATM   36  H   UNL     1     -45.064  56.072 -51.569  1.00  0.00     0.210 HD
ENDBRANCH  34  35
BRANCH  34  37
HETATM   37  C   UNL     1     -43.230  58.548 -51.390  1.00  0.00    -0.029 A 
HETATM   38  C   UNL     1     -41.996  57.908 -51.205  1.00  0.00     0.010 A 
HETATM   39  C   UNL     1     -40.917  58.583 -50.625  1.00  0.00     0.001 A 
HETATM   40  C   UNL     1     -41.055  59.908 -50.218  1.00  0.00     0.000 A 
HETATM   41  C   UNL     1     -42.275  60.558 -50.384  1.00  0.00     0.001 A 
HETATM   42  C   UNL     1     -43.352  59.883 -50.963  1.00  0.00     0.010 A 
ENDBRANCH  34  37
ENDBRANCH  33  34
ENDBRANCH  31  33
ENDBRANCH   9  31
TORSDOF 9
ENDMDL
MODEL 8
REMARK VINA RESULT:      -8.3      2.913      6.240
REMARK  9 active torsions:
REMARK  status: ('A' for Active; 'I' for Inactive)
REMARK    1  A    between atoms: C_8  and  C_9 
REMARK    2  A    between atoms: C_9  and  C_10 
REMARK    3  A    between atoms: N_14  and  C_15 
REMARK    4  A    between atoms: C_15  and  C_16 
REMARK    5  A    between atoms: C_27  and  N_28 
REMARK    6  A    between atoms: N_28  and  C_29 
REMARK    7  A    between atoms: C_29  and  C_30 
REMARK    8  A    between atoms: C_30  and  O_31 
REMARK    9  A    between atoms: C_30  and  C_32 
ROOT
HETATM    1  C   UNL     1     -47.783  59.415 -59.807  1.00  0.00     0.052 C 
HETATM    2  C   UNL     1     -46.970  58.171 -59.981  1.00  0.00    -0.015 A 
HETATM    3  C   UNL     1     -45.667  58.079 -59.233  1.00  0.00     0.144 A 
HETATM    4  N   UNL     1     -45.253  59.101 -58.554  1.00  0.00    -0.217 NA
HETATM    5  N   UNL     1     -44.974  56.883 -59.315  1.00  0.00    -0.272 N 
HETATM    6  C   UNL     1     -43.796  56.723 -58.604  1.00  0.00     0.266 A 
HETATM    7  O   UNL     1     -43.088  55.714 -58.654  1.00  0.00    -0.267 OA
HETATM    8  C   UNL     1     -43.385  57.867 -57.740  1.00  0.00     0.074 A 
HETATM    9  C   UNL     1     -44.101  59.012 -57.823  1.00  0.00     0.121 A 
HETATM   10  C   UNL     1     -45.423  55.846 -60.125  1.00  0.00     0.102 A 
HETATM   11  C   UNL     1     -46.556  55.942 -60.828  1.00  0.00     0.018 A 
HETATM   12  C   UNL     1     -47.359  57.131 -60.735  1.00  0.00     0.012 A 
ENDROOT
BRANCH   8  13
HETATM   13  C   UNL     1     -42.241  57.676 -56.856  1.00  0.00     0.045 C 
BRANCH  13  14
HETATM   14  C   UNL     1     -42.297  57.544 -55.523  1.00  0.00     0.077 A 
HETATM   15  S   UNL     1     -41.735  58.647 -54.334  1.00  0.00    -0.055 SA
HETATM   16  C   UNL     1     -42.051  57.530 -53.014  1.00  0.00     0.149 A 
HETATM   17  S   UNL     1     -41.587  57.881 -51.450  1.00  0.00    -0.052 SA
HETATM   18  N   UNL     1     -42.674  56.399 -53.497  1.00  0.00    -0.294 N 
HETATM   19  C   UNL     1     -42.842  56.325 -54.871  1.00  0.00     0.266 A 
HETATM   20  O   UNL     1     -43.305  55.380 -55.494  1.00  0.00    -0.266 OA
BRANCH  18  21
HETATM   21  C   UNL     1     -43.104  55.271 -52.676  1.00  0.00     0.172 C 
BRANCH  21  22
HETATM   22  C   UNL     1     -42.022  54.222 -52.522  1.00  0.00    -0.037 A 
HETATM   23  C   UNL     1     -41.728  53.349 -53.585  1.00  0.00     0.048 A 
HETATM   24  C   UNL     1     -40.735  52.409 -53.400  1.00  0.00     0.105 A 
HETATM   25  C   UNL     1     -40.044  52.305 -52.218  1.00  0.00     0.105 A 
HETATM   26  O   UNL     1     -40.320  51.501 -54.325  1.00  0.00    -0.323 OA
HETATM   27  O   UNL     1     -39.110  51.318 -52.246  1.00  0.00    -0.323 OA
HETATM   28  C   UNL     1     -40.304  53.136 -51.152  1.00  0.00     0.040 A 
HETATM   29  C   UNL     1     -39.284  50.818 -53.588  1.00  0.00     0.352 A 
HETATM   30  C   UNL     1     -41.302  54.105 -51.311  1.00  0.00     0.012 A 
ENDBRANCH  21  22
ENDBRANCH  18  21
ENDBRANCH  13  14
ENDBRANCH   8  13
BRANCH   9  31
HETATM   31  N   UNL     1     -43.761  60.171 -57.136  1.00  0.00    -0.274 NA
HETATM   32  H   UNL     1     -44.373  60.231 -56.316  1.00  0.00     0.129 HD
BRANCH  31  33
HETATM   33  C   UNL     1     -43.598  61.480 -57.782  1.00  0.00     0.130 C 
BRANCH  33  34
HETATM   34  C   UNL     1     -42.124  61.956 -57.730  1.00  0.00     0.164 C 
BRANCH  34  35
HETATM   35  O   UNL     1     -41.337  61.033 -56.961  1.00  0.00    -0.390 OA
HETATM   36  H   UNL     1     -41.721  60.989 -56.068  1.00  0.00     0.210 HD
ENDBRANCH  34  35
BRANCH  34  37
HETATM   37  C   UNL     1     -41.414  62.185 -59.050  1.00  0.00    -0.029 A 
HETATM   38  C   UNL     1     -40.206  62.887 -59.172  1.00  0.00     0.010 A 
HETATM   39  C   UNL     1     -39.598  63.059 -60.420  1.00  0.00     0.001 A 
HETATM   40  C   UNL     1     -40.189  62.534 -61.566  1.00  0.00     0.000 A 
HETATM   41  C   UNL     1     -41.394  61.842 -61.468  1.00  0.00     0.001 A 
HETATM   42  C   UNL     1     -42.000  61.672 -60.221  1.00  0.00     0.010 A 
ENDBRANCH  34  37
ENDBRANCH  33  34
ENDBRANCH  31  33
ENDBRANCH   9  31
TORSDOF 9
ENDMDL
MODEL 9
REMARK VINA RESULT:      -8.2      2.216      6.767
REMARK  9 active torsions:
REMARK  status: ('A' for Active; 'I' for Inactive)
REMARK    1  A    between atoms: C_8  and  C_9 
REMARK    2  A    between atoms: C_9  and  C_10 
REMARK    3  A    between atoms: N_14  and  C_15 
REMARK    4  A    between atoms: C_15  and  C_16 
REMARK    5  A    between atoms: C_27  and  N_28 
REMARK    6  A    between atoms: N_28  and  C_29 
REMARK    7  A    between atoms: C_29  and  C_30 
REMARK    8  A    between atoms: C_30  and  O_31 
REMARK    9  A    between atoms: C_30  and  C_32 
ROOT
HETATM    1  C   UNL     1     -43.834  53.909 -51.462  1.00  0.00     0.052 C 
HETATM    2  C   UNL     1     -42.714  54.781 -50.987  1.00  0.00    -0.015 A 
HETATM    3  C   UNL     1     -42.433  56.041 -51.762  1.00  0.00     0.144 A 
HETATM    4  N   UNL     1     -43.093  56.273 -52.852  1.00  0.00    -0.217 NA
HETATM    5  N   UNL     1     -41.468  56.893 -51.253  1.00  0.00    -0.272 N 
HETATM    6  C   UNL     1     -41.206  58.091 -51.896  1.00  0.00     0.266 A 
HETATM    7  O   UNL     1     -40.333  58.890 -51.544  1.00  0.00    -0.267 OA
HETATM    8  C   UNL     1     -42.047  58.400 -53.088  1.00  0.00     0.074 A 
HETATM    9  C   UNL     1     -42.889  57.440 -53.534  1.00  0.00     0.121 A 
HETATM   10  C   UNL     1     -40.732  56.554 -50.123  1.00  0.00     0.102 A 
HETATM   11  C   UNL     1     -40.947  55.413 -49.459  1.00  0.00     0.018 A 
HETATM   12  C   UNL     1     -41.981  54.514 -49.895  1.00  0.00     0.012 A 
ENDROOT
BRANCH   8  13
HETATM   13  C   UNL     1     -41.911  59.720 -53.694  1.00  0.00     0.045 C 
BRANCH  13  14
HETATM   14  C   UNL     1     -42.745  60.255 -54.597  1.00  0.00     0.077 A 
HETATM   15  S   UNL     1     -44.311  60.903 -54.324  1.00  0.00    -0.055 SA
HETATM   16  C   UNL     1     -44.623  61.119 -56.040  1.00  0.00     0.149 A 
HETATM   17  S   UNL     1     -46.118  61.611 -56.596  1.00  0.00    -0.052 SA
HETATM   18  N   UNL     1     -43.495  60.799 -56.764  1.00  0.00    -0.294 N 
HETATM   19  C   UNL     1     -42.417  60.308 -56.044  1.00  0.00     0.266 A 
HETATM   20  O   UNL     1     -41.360  59.905 -56.509  1.00  0.00    -0.266 OA
BRANCH  18  21
HETATM   21  C   UNL     1     -43.387  60.884 -58.218  1.00  0.00     0.172 C 
BRANCH  21  22
HETATM   22  C   UNL     1     -43.411  59.523 -58.880  1.00  0.00    -0.037 A 
HETATM   23  C   UNL     1     -44.498  58.655 -58.674  1.00  0.00     0.048 A 
HETATM   24  C   UNL     1     -44.478  57.424 -59.297  1.00  0.00     0.105 A 
HETATM   25  C   UNL     1     -43.432  57.031 -60.095  1.00  0.00     0.105 A 
HETATM   26  O   UNL     1     -45.450  56.476 -59.213  1.00  0.00    -0.323 OA
HETATM   27  O   UNL     1     -43.610  55.786 -60.613  1.00  0.00    -0.323 OA
HETATM   28  C   UNL     1     -42.346  57.847 -60.319  1.00  0.00     0.040 A 
HETATM   29  C   UNL     1     -44.896  55.444 -60.056  1.00  0.00     0.352 A 
HETATM   30  C   UNL     1     -42.341  59.106 -59.706  1.00  0.00     0.012 A 
ENDBRANCH  21  22
ENDBRANCH  18  21
ENDBRANCH  13  14
ENDBRANCH   8  13
BRANCH   9  31
HETATM   31  N   UNL     1     -43.655  57.579 -54.686  1.00  0.00    -0.274 NA
HETATM   32  H   UNL     1     -44.436  58.204 -54.460  1.00  0.00     0.129 HD
BRANCH  31  33
HETATM   33  C   UNL     1     -44.096  56.444 -55.508  1.00  0.00     0.130 C 
BRANCH  33  34
HETATM   34  C   UNL     1     -42.908  55.808 -56.275  1.00  0.00     0.164 C 
BRANCH  34  35
HETATM   35  O   UNL     1     -42.029  56.835 -56.759  1.00  0.00    -0.390 OA
HETATM   36  H   UNL     1     -42.577  57.594 -57.025  1.00  0.00     0.210 HD
ENDBRANCH  34  35
BRANCH  34  37
HETATM   37  C   UNL     1     -42.065  54.785 -55.538  1.00  0.00    -0.029 A 
HETATM   38  C   UNL     1     -42.578  53.595 -55.002  1.00  0.00     0.010 A 
HETATM   39  C   UNL     1     -41.746  52.689 -54.338  1.00  0.00     0.001 A 
HETATM   40  C   UNL     1     -40.387  52.958 -54.196  1.00  0.00     0.000 A 
HETATM   41  C   UNL     1     -39.859  54.139 -54.713  1.00  0.00     0.001 A 
HETATM   42  C   UNL     1     -40.692  55.043 -55.375  1.00  0.00     0.010 A 
ENDBRANCH  34  37
ENDBRANCH  33  34
ENDBRANCH  31  33
ENDBRANCH   9  31
TORSDOF 9
ENDMDL
MODEL 10
REMARK VINA RESULT:      -8.2      3.277      3.981
REMARK  9 active torsions:
REMARK  status: ('A' for Active; 'I' for Inactive)
REMARK    1  A    between atoms: C_8  and  C_9 
REMARK    2  A    between atoms: C_9  and  C_10 
REMARK    3  A    between atoms: N_14  and  C_15 
REMARK    4  A    between atoms: C_15  and  C_16 
REMARK    5  A    between atoms: C_27  and  N_28 
REMARK    6  A    between atoms: N_28  and  C_29 
REMARK    7  A    between atoms: C_29  and  C_30 
REMARK    8  A    between atoms: C_30  and  O_31 
REMARK    9  A    between atoms: C_30  and  C_32 
ROOT
HETATM    1  C   UNL     1     -42.177  56.133 -59.672  1.00  0.00     0.052 C 
HETATM    2  C   UNL     1     -43.261  57.123 -59.383  1.00  0.00    -0.015 A 
HETATM    3  C   UNL     1     -43.691  57.290 -57.950  1.00  0.00     0.144 A 
HETATM    4  N   UNL     1     -43.187  56.514 -57.044  1.00  0.00    -0.217 NA
HETATM    5  N   UNL     1     -44.618  58.283 -57.680  1.00  0.00    -0.272 N 
HETATM    6  C   UNL     1     -45.009  58.516 -56.372  1.00  0.00     0.266 A 
HETATM    7  O   UNL     1     -45.862  59.345 -56.041  1.00  0.00    -0.267 OA
HETATM    8  C   UNL     1     -44.342  57.691 -55.324  1.00  0.00     0.074 A 
HETATM    9  C   UNL     1     -43.525  56.692 -55.731  1.00  0.00     0.121 A 
HETATM   10  C   UNL     1     -45.187  59.033 -58.702  1.00  0.00     0.102 A 
HETATM   11  C   UNL     1     -44.842  58.855 -59.983  1.00  0.00     0.018 A 
HETATM   12  C   UNL     1     -43.837  57.887 -60.326  1.00  0.00     0.012 A 
ENDROOT
BRANCH   8  13
HETATM   13  C   UNL     1     -44.608  58.017 -53.928  1.00  0.00     0.045 C 
BRANCH  13  14
HETATM   14  C   UNL     1     -43.802  58.724 -53.124  1.00  0.00     0.077 A 
HETATM   15  S   UNL     1     -42.354  58.200 -52.366  1.00  0.00    -0.055 SA
HETATM   16  C   UNL     1     -42.197  59.680 -51.432  1.00  0.00     0.149 A 
HETATM   17  S   UNL     1     -41.011  59.853 -50.270  1.00  0.00    -0.052 SA
HETATM   18  N   UNL     1     -43.181  60.573 -51.800  1.00  0.00    -0.294 N 
HETATM   19  C   UNL     1     -44.110  60.121 -52.724  1.00  0.00     0.266 A 
HETATM   20  O   UNL     1     -45.092  60.733 -53.121  1.00  0.00    -0.266 OA
BRANCH  18  21
HETATM   21  C   UNL     1     -43.339  61.914 -51.245  1.00  0.00     0.172 C 
BRANCH  21  22
HETATM   22  C   UNL     1     -44.423  61.979 -50.189  1.00  0.00    -0.037 A 
HETATM   23  C   UNL     1     -44.315  61.211 -49.016  1.00  0.00     0.048 A 
HETATM   24  C   UNL     1     -45.326  61.300 -48.082  1.00  0.00     0.105 A 
HETATM   25  C   UNL     1     -46.422  62.105 -48.274  1.00  0.00     0.105 A 
HETATM   26  O   UNL     1     -45.371  60.638 -46.895  1.00  0.00    -0.323 OA
HETATM   27  O   UNL     1     -47.297  62.050 -47.235  1.00  0.00    -0.323 OA
HETATM   28  C   UNL     1     -46.570  62.868 -49.409  1.00  0.00     0.040 A 
HETATM   29  C   UNL     1     -46.619  61.124 -46.360  1.00  0.00     0.352 A 
HETATM   30  C   UNL     1     -45.557  62.805 -50.373  1.00  0.00     0.012 A 
ENDBRANCH  21  22
ENDBRANCH  18  21
ENDBRANCH  13  14
ENDBRANCH   8  13
BRANCH   9  31
HETATM   31  N   UNL     1     -42.920  55.802 -54.852  1.00  0.00    -0.274 NA
HETATM   32  H   UNL     1     -42.004  56.191 -54.604  1.00  0.00     0.129 HD
BRANCH  31  33
HETATM   33  C   UNL     1     -42.841  54.354 -55.089  1.00  0.00     0.130 C 
BRANCH  33  34
HETATM   34  C   UNL     1     -41.371  53.888 -55.248  1.00  0.00     0.164 C 
BRANCH  34  35
HETATM   35  O   UNL     1     -40.523  55.018 -55.507  1.00  0.00    -0.390 OA
HETATM   36  H   UNL     1     -40.099  54.879 -56.371  1.00  0.00     0.210 HD
ENDBRANCH  34  35
BRANCH  34  37
HETATM   37  C   UNL     1     -40.759  53.098 -54.108  1.00  0.00    -0.029 A 
HETATM   38  C   UNL     1     -40.233  51.806 -54.252  1.00  0.00     0.010 A 
HETATM   39  C   UNL     1     -39.676  51.132 -53.160  1.00  0.00     0.001 A 
HETATM   40  C   UNL     1     -39.638  51.738 -51.907  1.00  0.00     0.000 A 
HETATM   41  C   UNL     1     -40.163  53.017 -51.741  1.00  0.00     0.001 A 
HETATM   42  C   UNL     1     -40.720  53.688 -52.832  1.00  0.00     0.010 A 
ENDBRANCH  34  37
ENDBRANCH  33  34
ENDBRANCH  31  33
ENDBRANCH   9  31
TORSDOF 9
ENDMDL
