MODEL 1
REMARK VINA RESULT:      -7.3      0.000      0.000
REMARK  4 active torsions:
REMARK  status: ('A' for Active; 'I' for Inactive)
REMARK    1  A    between atoms: O_2  and  C_3 
REMARK    2  A    between atoms: C_4  and  O_5 
REMARK    3  A    between atoms: C_9  and  N_10 
REMARK    4  A    between atoms: N_10  and  C_11 
ROOT
HETATM    1  C   UNL     1     -40.098  52.164 -51.880  1.00  0.00     0.102 A 
HETATM    2  C   UNL     1     -40.557  53.443 -51.546  1.00  0.00     0.118 A 
HETATM    3  C   UNL     1     -40.838  54.319 -52.591  1.00  0.00     0.085 A 
HETATM    4  C   UNL     1     -40.653  53.984 -53.921  1.00  0.00     0.005 A 
HETATM    5  C   UNL     1     -41.033  55.128 -54.775  1.00  0.00     0.245 A 
HETATM    6  O   UNL     1     -41.439  56.131 -53.832  1.00  0.00    -0.291 OA
HETATM    7  C   UNL     1     -41.351  55.683 -52.540  1.00  0.00     0.298 A 
HETATM    8  O   UNL     1     -41.672  56.355 -51.585  1.00  0.00    -0.259 OA
HETATM    9  C   UNL     1     -40.158  52.739 -54.265  1.00  0.00     0.015 A 
HETATM   10  C   UNL     1     -39.880  51.835 -53.236  1.00  0.00     0.040 A 
ENDROOT
BRANCH   5  11
HETATM   11  N   UNL     1     -42.140  54.792 -55.653  1.00  0.00    -0.248 NA
HETATM   12  H   UNL     1     -42.111  53.804 -55.901  1.00  0.00     0.132 HD
BRANCH  11  13
HETATM   13  C   UNL     1     -42.457  55.592 -56.747  1.00  0.00     0.082 A 
HETATM   14  N   UNL     1     -42.160  56.905 -56.772  1.00  0.00    -0.355 N 
HETATM   15  H   UNL     1     -41.669  57.293 -55.964  1.00  0.00     0.166 HD
HETATM   16  C   UNL     1     -42.518  57.733 -57.765  1.00  0.00     0.108 A 
HETATM   17  C   UNL     1     -43.255  57.251 -58.835  1.00  0.00     0.026 A 
HETATM   18 BR   UNL     1     -43.760  58.404 -60.236  1.00  0.00    -0.050 Br
HETATM   19  C   UNL     1     -43.631  55.915 -58.848  1.00  0.00     0.024 A 
HETATM   20  C   UNL     1     -43.246  55.088 -57.791  1.00  0.00     0.043 A 
ENDBRANCH  11  13
ENDBRANCH   5  11
BRANCH   2  21
HETATM   21  O   UNL     1     -40.786  53.810 -50.254  1.00  0.00    -0.352 OA
HETATM   22  C   UNL     1     -39.605  54.295 -49.609  1.00  0.00     0.210 C 
ENDBRANCH   2  21
BRANCH   1  23
HETATM   23  O   UNL     1     -39.772  51.146 -51.026  1.00  0.00    -0.353 OA
HETATM   24  C   UNL     1     -39.555  49.857 -51.590  1.00  0.00     0.210 C 
ENDBRANCH   1  23
TORSDOF 4
ENDMDL
MODEL 2
REMARK VINA RESULT:      -7.2      1.746      2.956
REMARK  4 active torsions:
REMARK  status: ('A' for Active; 'I' for Inactive)
REMARK    1  A    between atoms: O_2  and  C_3 
REMARK    2  A    between atoms: C_4  and  O_5 
REMARK    3  A    between atoms: C_9  and  N_10 
REMARK    4  A    between atoms: N_10  and  C_11 
ROOT
HETATM    1  C   UNL     1     -41.094  53.491 -50.417  1.00  0.00     0.102 A 
HETATM    2  C   UNL     1     -40.601  53.091 -51.664  1.00  0.00     0.118 A 
HETATM    3  C   UNL     1     -41.329  53.458 -52.792  1.00  0.00     0.085 A 
HETATM    4  C   UNL     1     -42.517  54.164 -52.721  1.00  0.00     0.005 A 
HETATM    5  C   UNL     1     -43.041  54.386 -54.085  1.00  0.00     0.245 A 
HETATM    6  O   UNL     1     -42.068  53.751 -54.927  1.00  0.00    -0.291 OA
HETATM    7  C   UNL     1     -41.041  53.207 -54.200  1.00  0.00     0.298 A 
HETATM    8  O   UNL     1     -40.095  52.649 -54.710  1.00  0.00    -0.259 OA
HETATM    9  C   UNL     1     -43.040  54.528 -51.493  1.00  0.00     0.015 A 
HETATM   10  C   UNL     1     -42.322  54.183 -50.345  1.00  0.00     0.040 A 
ENDROOT
BRANCH   5  11
HETATM   11  N   UNL     1     -43.124  55.801 -54.399  1.00  0.00    -0.248 NA
HETATM   12  H   UNL     1     -43.898  56.233 -53.896  1.00  0.00     0.132 HD
BRANCH  11  13
HETATM   13  C   UNL     1     -43.044  56.252 -55.713  1.00  0.00     0.082 A 
HETATM   14  N   UNL     1     -43.344  55.451 -56.754  1.00  0.00    -0.355 N 
HETATM   15  H   UNL     1     -43.657  54.501 -56.543  1.00  0.00     0.166 HD
HETATM   16  C   UNL     1     -43.204  55.811 -58.038  1.00  0.00     0.108 A 
HETATM   17  C   UNL     1     -42.705  57.065 -58.354  1.00  0.00     0.026 A 
HETATM   18 BR   UNL     1     -42.507  57.582 -60.154  1.00  0.00    -0.050 Br
HETATM   19  C   UNL     1     -42.335  57.923 -57.327  1.00  0.00     0.024 A 
HETATM   20  C   UNL     1     -42.489  57.506 -56.002  1.00  0.00     0.043 A 
ENDBRANCH  11  13
ENDBRANCH   5  11
BRANCH   2  21
HETATM   21  O   UNL     1     -39.420  52.423 -51.789  1.00  0.00    -0.352 OA
HETATM   22  C   UNL     1     -39.569  51.014 -51.593  1.00  0.00     0.210 C 
ENDBRANCH   2  21
BRANCH   1  23
HETATM   23  O   UNL     1     -40.543  53.252 -49.188  1.00  0.00    -0.353 OA
HETATM   24  C   UNL     1     -40.535  54.325 -48.252  1.00  0.00     0.210 C 
ENDBRANCH   1  23
TORSDOF 4
ENDMDL
MODEL 3
REMARK VINA RESULT:      -7.0      3.483      4.428
REMARK  4 active torsions:
REMARK  status: ('A' for Active; 'I' for Inactive)
REMARK    1  A    between atoms: O_2  and  C_3 
REMARK    2  A    between atoms: C_4  and  O_5 
REMARK    3  A    between atoms: C_9  and  N_10 
REMARK    4  A    between atoms: N_10  and  C_11 
ROOT
HETATM    1  C   UNL     1     -39.710  51.693 -53.317  1.00  0.00     0.102 A 
HETATM    2  C   UNL     1     -39.742  51.990 -51.950  1.00  0.00     0.118 A 
HETATM    3  C   UNL     1     -40.388  53.159 -51.561  1.00  0.00     0.085 A 
HETATM    4  C   UNL     1     -40.961  54.037 -52.466  1.00  0.00     0.005 A 
HETATM    5  C   UNL     1     -41.553  55.179 -51.738  1.00  0.00     0.245 A 
HETATM    6  O   UNL     1     -41.269  54.884 -50.362  1.00  0.00    -0.291 OA
HETATM    7  C   UNL     1     -40.598  53.698 -50.222  1.00  0.00     0.298 A 
HETATM    8  O   UNL     1     -40.284  53.240 -49.146  1.00  0.00    -0.259 OA
HETATM    9  C   UNL     1     -40.897  53.780 -53.823  1.00  0.00     0.015 A 
HETATM   10  C   UNL     1     -40.266  52.604 -54.241  1.00  0.00     0.040 A 
ENDROOT
BRANCH   5  11
HETATM   11  N   UNL     1     -42.988  55.254 -51.945  1.00  0.00    -0.248 NA
HETATM   12  H   UNL     1     -43.272  54.635 -52.704  1.00  0.00     0.132 HD
BRANCH  11  13
HETATM   13  C   UNL     1     -43.642  56.481 -52.006  1.00  0.00     0.082 A 
HETATM   14  N   UNL     1     -44.175  57.052 -50.909  1.00  0.00    -0.355 N 
HETATM   15  H   UNL     1     -44.063  56.560 -50.019  1.00  0.00     0.166 HD
HETATM   16  C   UNL     1     -44.884  58.191 -50.929  1.00  0.00     0.108 A 
HETATM   17  C   UNL     1     -45.121  58.836 -52.132  1.00  0.00     0.026 A 
HETATM   18 BR   UNL     1     -46.114  60.436 -52.172  1.00  0.00    -0.050 Br
HETATM   19  C   UNL     1     -44.635  58.276 -53.306  1.00  0.00     0.024 A 
HETATM   20  C   UNL     1     -43.909  57.085 -53.243  1.00  0.00     0.043 A 
ENDBRANCH  11  13
ENDBRANCH   5  11
BRANCH   2  21
HETATM   21  O   UNL     1     -39.222  51.143 -51.019  1.00  0.00    -0.352 OA
HETATM   22  C   UNL     1     -40.107  50.062 -50.712  1.00  0.00     0.210 C 
ENDBRANCH   2  21
BRANCH   1  23
HETATM   23  O   UNL     1     -39.144  50.602 -53.920  1.00  0.00    -0.353 OA
HETATM   24  C   UNL     1     -39.983  49.794 -54.739  1.00  0.00     0.210 C 
ENDBRANCH   1  23
TORSDOF 4
ENDMDL
MODEL 4
REMARK VINA RESULT:      -6.8      1.296      1.378
REMARK  4 active torsions:
REMARK  status: ('A' for Active; 'I' for Inactive)
REMARK    1  A    between atoms: O_2  and  C_3 
REMARK    2  A    between atoms: C_4  and  O_5 
REMARK    3  A    between atoms: C_9  and  N_10 
REMARK    4  A    between atoms: N_10  and  C_11 
ROOT
HETATM    1  C   UNL     1     -39.903  52.050 -52.970  1.00  0.00     0.102 A 
HETATM    2  C   UNL     1     -40.109  53.108 -52.078  1.00  0.00     0.118 A 
HETATM    3  C   UNL     1     -40.670  54.276 -52.585  1.00  0.00     0.085 A 
HETATM    4  C   UNL     1     -40.995  54.435 -53.921  1.00  0.00     0.005 A 
HETATM    5  C   UNL     1     -41.559  55.784 -54.135  1.00  0.00     0.245 A 
HETATM    6  O   UNL     1     -41.523  56.375 -52.828  1.00  0.00    -0.291 OA
HETATM    7  C   UNL     1     -41.019  55.511 -51.890  1.00  0.00     0.298 A 
HETATM    8  O   UNL     1     -40.926  55.791 -50.716  1.00  0.00    -0.259 OA
HETATM    9  C   UNL     1     -40.755  53.414 -54.823  1.00  0.00     0.015 A 
HETATM   10  C   UNL     1     -40.205  52.224 -54.339  1.00  0.00     0.040 A 
ENDROOT
BRANCH   5  11
HETATM   11  N   UNL     1     -42.927  55.718 -54.615  1.00  0.00    -0.248 NA
HETATM   12  H   UNL     1     -43.330  54.803 -54.420  1.00  0.00     0.132 HD
BRANCH  11  13
HETATM   13  C   UNL     1     -43.266  56.175 -55.885  1.00  0.00     0.082 A 
HETATM   14  N   UNL     1     -44.112  57.207 -56.062  1.00  0.00    -0.355 N 
HETATM   15  H   UNL     1     -44.483  57.663 -55.225  1.00  0.00     0.166 HD
HETATM   16  C   UNL     1     -44.533  57.631 -57.264  1.00  0.00     0.108 A 
HETATM   17  C   UNL     1     -44.111  56.980 -58.412  1.00  0.00     0.026 A 
HETATM   18 BR   UNL     1     -44.693  57.567 -60.104  1.00  0.00    -0.050 Br
HETATM   19  C   UNL     1     -43.272  55.880 -58.296  1.00  0.00     0.024 A 
HETATM   20  C   UNL     1     -42.863  55.466 -57.026  1.00  0.00     0.043 A 
ENDBRANCH  11  13
ENDBRANCH   5  11
BRANCH   2  21
HETATM   21  O   UNL     1     -39.836  52.991 -50.749  1.00  0.00    -0.352 OA
HETATM   22  C   UNL     1     -40.601  51.956 -50.126  1.00  0.00     0.210 C 
ENDBRANCH   2  21
BRANCH   1  23
HETATM   23  O   UNL     1     -39.378  50.817 -52.694  1.00  0.00    -0.353 OA
HETATM   24  C   UNL     1     -39.647  49.766 -53.616  1.00  0.00     0.210 C 
ENDBRANCH   1  23
TORSDOF 4
ENDMDL
MODEL 5
REMARK VINA RESULT:      -6.7      3.746      5.155
REMARK  4 active torsions:
REMARK  status: ('A' for Active; 'I' for Inactive)
REMARK    1  A    between atoms: O_2  and  C_3 
REMARK    2  A    between atoms: C_4  and  O_5 
REMARK    3  A    between atoms: C_9  and  N_10 
REMARK    4  A    between atoms: N_10  and  C_11 
ROOT
HETATM    1  C   UNL     1     -39.796  51.805 -51.533  1.00  0.00     0.102 A 
HETATM    2  C   UNL     1     -39.982  52.434 -52.769  1.00  0.00     0.118 A 
HETATM    3  C   UNL     1     -40.606  53.678 -52.771  1.00  0.00     0.085 A 
HETATM    4  C   UNL     1     -41.067  54.288 -51.617  1.00  0.00     0.005 A 
HETATM    5  C   UNL     1     -41.683  55.587 -51.958  1.00  0.00     0.245 A 
HETATM    6  O   UNL     1     -41.542  55.662 -53.384  1.00  0.00    -0.291 OA
HETATM    7  C   UNL     1     -40.900  54.563 -53.892  1.00  0.00     0.298 A 
HETATM    8  O   UNL     1     -40.648  54.431 -55.069  1.00  0.00    -0.259 OA
HETATM    9  C   UNL     1     -40.930  53.658 -50.392  1.00  0.00     0.015 A 
HETATM   10  C   UNL     1     -40.295  52.414 -50.361  1.00  0.00     0.040 A 
ENDROOT
BRANCH   5  11
HETATM   11  N   UNL     1     -40.981  56.691 -51.329  1.00  0.00    -0.248 NA
HETATM   12  H   UNL     1     -40.543  56.385 -50.460  1.00  0.00     0.132 HD
BRANCH  11  13
HETATM   13  C   UNL     1     -41.578  57.941 -51.197  1.00  0.00     0.082 A 
HETATM   14  N   UNL     1     -42.583  58.331 -52.002  1.00  0.00    -0.355 N 
HETATM   15  H   UNL     1     -42.912  57.665 -52.705  1.00  0.00     0.166 HD
HETATM   16  C   UNL     1     -43.136  59.554 -51.970  1.00  0.00     0.108 A 
HETATM   17  C   UNL     1     -42.656  60.504 -51.083  1.00  0.00     0.026 A 
HETATM   18 BR   UNL     1     -43.425  62.223 -51.026  1.00  0.00    -0.050 Br
HETATM   19  C   UNL     1     -41.591  60.179 -50.254  1.00  0.00     0.024 A 
HETATM   20  C   UNL     1     -41.039  58.897 -50.325  1.00  0.00     0.043 A 
ENDBRANCH  11  13
ENDBRANCH   5  11
BRANCH   2  21
HETATM   21  O   UNL     1     -39.519  51.890 -53.929  1.00  0.00    -0.352 OA
HETATM   22  C   UNL     1     -40.358  50.836 -54.409  1.00  0.00     0.210 C 
ENDBRANCH   2  21
BRANCH   1  23
HETATM   23  O   UNL     1     -39.204  50.595 -51.294  1.00  0.00    -0.353 OA
HETATM   24  C   UNL     1     -40.008  49.571 -50.718  1.00  0.00     0.210 C 
ENDBRANCH   1  23
TORSDOF 4
ENDMDL
MODEL 6
REMARK VINA RESULT:      -6.7      3.630      7.297
REMARK  4 active torsions:
REMARK  status: ('A' for Active; 'I' for Inactive)
REMARK    1  A    between atoms: O_2  and  C_3 
REMARK    2  A    between atoms: C_4  and  O_5 
REMARK    3  A    between atoms: C_9  and  N_10 
REMARK    4  A    between atoms: N_10  and  C_11 
ROOT
HETATM    1  C   UNL     1     -43.250  57.047 -57.921  1.00  0.00     0.102 A 
HETATM    2  C   UNL     1     -42.830  57.902 -56.896  1.00  0.00     0.118 A 
HETATM    3  C   UNL     1     -42.355  57.320 -55.725  1.00  0.00     0.085 A 
HETATM    4  C   UNL     1     -42.316  55.949 -55.531  1.00  0.00     0.005 A 
HETATM    5  C   UNL     1     -41.772  55.657 -54.189  1.00  0.00     0.245 A 
HETATM    6  O   UNL     1     -41.513  56.957 -53.640  1.00  0.00    -0.291 OA
HETATM    7  C   UNL     1     -41.831  57.957 -54.522  1.00  0.00     0.298 A 
HETATM    8  O   UNL     1     -41.665  59.131 -54.277  1.00  0.00    -0.259 OA
HETATM    9  C   UNL     1     -42.770  55.092 -56.517  1.00  0.00     0.015 A 
HETATM   10  C   UNL     1     -43.239  55.651 -57.709  1.00  0.00     0.040 A 
ENDROOT
BRANCH   5  11
HETATM   11  N   UNL     1     -40.538  54.895 -54.270  1.00  0.00    -0.248 NA
HETATM   12  H   UNL     1     -40.253  54.781 -55.242  1.00  0.00     0.132 HD
BRANCH  11  13
HETATM   13  C   UNL     1     -40.367  53.725 -53.538  1.00  0.00     0.082 A 
HETATM   14  N   UNL     1     -40.328  53.732 -52.192  1.00  0.00    -0.355 N 
HETATM   15  H   UNL     1     -40.452  54.632 -51.721  1.00  0.00     0.166 HD
HETATM   16  C   UNL     1     -40.084  52.645 -51.445  1.00  0.00     0.108 A 
HETATM   17  C   UNL     1     -39.831  51.429 -52.058  1.00  0.00     0.026 A 
HETATM   18 BR   UNL     1     -39.489  49.895 -51.020  1.00  0.00    -0.050 Br
HETATM   19  C   UNL     1     -39.813  51.362 -53.445  1.00  0.00     0.024 A 
HETATM   20  C   UNL     1     -40.064  52.519 -54.186  1.00  0.00     0.043 A 
ENDBRANCH  11  13
ENDBRANCH   5  11
BRANCH   2  21
HETATM   21  O   UNL     1     -42.819  59.256 -57.050  1.00  0.00    -0.352 OA
HETATM   22  C   UNL     1     -41.769  59.696 -57.915  1.00  0.00     0.210 C 
ENDBRANCH   2  21
BRANCH   1  23
HETATM   23  O   UNL     1     -43.739  57.396 -59.150  1.00  0.00    -0.353 OA
HETATM   24  C   UNL     1     -43.640  56.433 -60.194  1.00  0.00     0.210 C 
ENDBRANCH   1  23
TORSDOF 4
ENDMDL
MODEL 7
REMARK VINA RESULT:      -6.6      2.360      2.992
REMARK  4 active torsions:
REMARK  status: ('A' for Active; 'I' for Inactive)
REMARK    1  A    between atoms: O_2  and  C_3 
REMARK    2  A    between atoms: C_4  and  O_5 
REMARK    3  A    between atoms: C_9  and  N_10 
REMARK    4  A    between atoms: N_10  and  C_11 
ROOT
HETATM    1  C   UNL     1     -39.922  52.093 -53.352  1.00  0.00     0.102 A 
HETATM    2  C   UNL     1     -40.044  52.705 -52.100  1.00  0.00     0.118 A 
HETATM    3  C   UNL     1     -40.761  53.896 -52.033  1.00  0.00     0.085 A 
HETATM    4  C   UNL     1     -41.319  54.499 -53.146  1.00  0.00     0.005 A 
HETATM    5  C   UNL     1     -42.001  55.746 -52.742  1.00  0.00     0.245 A 
HETATM    6  O   UNL     1     -41.782  55.805 -51.325  1.00  0.00    -0.291 OA
HETATM    7  C   UNL     1     -41.069  54.725 -50.873  1.00  0.00     0.298 A 
HETATM    8  O   UNL     1     -40.796  54.556 -49.706  1.00  0.00    -0.259 OA
HETATM    9  C   UNL     1     -41.169  53.929 -54.398  1.00  0.00     0.015 A 
HETATM   10  C   UNL     1     -40.465  52.726 -54.492  1.00  0.00     0.040 A 
ENDROOT
BRANCH   5  11
HETATM   11  N   UNL     1     -43.424  55.690 -53.025  1.00  0.00    -0.248 NA
HETATM   12  H   UNL     1     -43.702  54.741 -53.270  1.00  0.00     0.132 HD
BRANCH  11  13
HETATM   13  C   UNL     1     -44.031  56.636 -53.845  1.00  0.00     0.082 A 
HETATM   14  N   UNL     1     -44.010  56.526 -55.186  1.00  0.00    -0.355 N 
HETATM   15  H   UNL     1     -43.548  55.705 -55.585  1.00  0.00     0.166 HD
HETATM   16  C   UNL     1     -44.508  57.451 -56.021  1.00  0.00     0.108 A 
HETATM   17  C   UNL     1     -45.066  58.612 -55.510  1.00  0.00     0.026 A 
HETATM   18 BR   UNL     1     -45.771  59.916 -56.672  1.00  0.00    -0.050 Br
HETATM   19  C   UNL     1     -45.081  58.807 -54.136  1.00  0.00     0.024 A 
HETATM   20  C   UNL     1     -44.544  57.823 -53.302  1.00  0.00     0.043 A 
ENDBRANCH  11  13
ENDBRANCH   5  11
BRANCH   2  21
HETATM   21  O   UNL     1     -39.541  52.135 -50.969  1.00  0.00    -0.352 OA
HETATM   22  C   UNL     1     -40.365  51.073 -50.482  1.00  0.00     0.210 C 
ENDBRANCH   2  21
BRANCH   1  23
HETATM   23  O   UNL     1     -39.276  50.924 -53.649  1.00  0.00    -0.353 OA
HETATM   24  C   UNL     1     -40.011  49.927 -54.353  1.00  0.00     0.210 C 
ENDBRANCH   1  23
TORSDOF 4
ENDMDL
MODEL 8
REMARK VINA RESULT:      -6.4      1.508      2.040
REMARK  4 active torsions:
REMARK  status: ('A' for Active; 'I' for Inactive)
REMARK    1  A    between atoms: O_2  and  C_3 
REMARK    2  A    between atoms: C_4  and  O_5 
REMARK    3  A    between atoms: C_9  and  N_10 
REMARK    4  A    between atoms: N_10  and  C_11 
ROOT
HETATM    1  C   UNL     1     -41.126  53.626 -51.977  1.00  0.00     0.102 A 
HETATM    2  C   UNL     1     -41.787  54.859 -52.000  1.00  0.00     0.118 A 
HETATM    3  C   UNL     1     -41.865  55.524 -53.220  1.00  0.00     0.085 A 
HETATM    4  C   UNL     1     -41.295  55.032 -54.382  1.00  0.00     0.005 A 
HETATM    5  C   UNL     1     -41.548  55.974 -55.492  1.00  0.00     0.245 A 
HETATM    6  O   UNL     1     -42.293  57.032 -54.873  1.00  0.00    -0.291 OA
HETATM    7  C   UNL     1     -42.510  56.793 -53.541  1.00  0.00     0.298 A 
HETATM    8  O   UNL     1     -43.144  57.541 -52.830  1.00  0.00    -0.259 OA
HETATM    9  C   UNL     1     -40.600  53.836 -54.365  1.00  0.00     0.015 A 
HETATM   10  C   UNL     1     -40.518  53.141 -53.156  1.00  0.00     0.040 A 
ENDROOT
BRANCH   5  11
HETATM   11  N   UNL     1     -42.336  55.357 -56.544  1.00  0.00    -0.248 NA
HETATM   12  H   UNL     1     -41.788  54.649 -57.031  1.00  0.00     0.132 HD
BRANCH  11  13
HETATM   13  C   UNL     1     -43.087  56.129 -57.425  1.00  0.00     0.082 A 
HETATM   14  N   UNL     1     -44.072  56.938 -56.992  1.00  0.00    -0.355 N 
HETATM   15  H   UNL     1     -44.236  56.984 -55.984  1.00  0.00     0.166 HD
HETATM   16  C   UNL     1     -44.877  57.637 -57.806  1.00  0.00     0.108 A 
HETATM   17  C   UNL     1     -44.731  57.531 -59.180  1.00  0.00     0.026 A 
HETATM   18 BR   UNL     1     -45.853  58.510 -60.333  1.00  0.00    -0.050 Br
HETATM   19  C   UNL     1     -43.761  56.679 -59.692  1.00  0.00     0.024 A 
HETATM   20  C   UNL     1     -42.950  55.962 -58.810  1.00  0.00     0.043 A 
ENDBRANCH  11  13
ENDBRANCH   5  11
BRANCH   2  21
HETATM   21  O   UNL     1     -42.392  55.370 -50.892  1.00  0.00    -0.352 OA
HETATM   22  C   UNL     1     -43.659  54.760 -50.633  1.00  0.00     0.210 C 
ENDBRANCH   2  21
BRANCH   1  23
HETATM   23  O   UNL     1     -40.938  52.800 -50.902  1.00  0.00    -0.353 OA
HETATM   24  C   UNL     1     -40.080  53.259 -49.863  1.00  0.00     0.210 C 
ENDBRANCH   1  23
TORSDOF 4
ENDMDL
MODEL 9
REMARK VINA RESULT:      -6.3      2.568      3.570
REMARK  4 active torsions:
REMARK  status: ('A' for Active; 'I' for Inactive)
REMARK    1  A    between atoms: O_2  and  C_3 
REMARK    2  A    between atoms: C_4  and  O_5 
REMARK    3  A    between atoms: C_9  and  N_10 
REMARK    4  A    between atoms: N_10  and  C_11 
ROOT
HETATM    1  C   UNL     1     -40.215  53.999 -50.548  1.00  0.00     0.102 A 
HETATM    2  C   UNL     1     -40.129  53.083 -51.602  1.00  0.00     0.118 A 
HETATM    3  C   UNL     1     -40.882  53.342 -52.743  1.00  0.00     0.085 A 
HETATM    4  C   UNL     1     -41.722  54.438 -52.856  1.00  0.00     0.005 A 
HETATM    5  C   UNL     1     -42.381  54.420 -54.178  1.00  0.00     0.245 A 
HETATM    6  O   UNL     1     -41.858  53.237 -54.798  1.00  0.00    -0.291 OA
HETATM    7  C   UNL     1     -40.964  52.587 -53.988  1.00  0.00     0.298 A 
HETATM    8  O   UNL     1     -40.379  51.582 -54.324  1.00  0.00    -0.259 OA
HETATM    9  C   UNL     1     -41.851  55.328 -51.804  1.00  0.00     0.015 A 
HETATM   10  C   UNL     1     -41.095  55.098 -50.652  1.00  0.00     0.040 A 
ENDROOT
BRANCH   5  11
HETATM   11  N   UNL     1     -42.031  55.591 -54.962  1.00  0.00    -0.248 NA
HETATM   12  H   UNL     1     -41.038  55.802 -54.864  1.00  0.00     0.132 HD
BRANCH  11  13
HETATM   13  C   UNL     1     -42.812  56.741 -54.924  1.00  0.00     0.082 A 
HETATM   14  N   UNL     1     -42.270  57.968 -55.048  1.00  0.00    -0.355 N 
HETATM   15  H   UNL     1     -41.260  58.024 -55.195  1.00  0.00     0.166 HD
HETATM   16  C   UNL     1     -42.968  59.108 -54.936  1.00  0.00     0.108 A 
HETATM   17  C   UNL     1     -44.325  59.063 -54.656  1.00  0.00     0.026 A 
HETATM   18 BR   UNL     1     -45.315  60.657 -54.499  1.00  0.00    -0.050 Br
HETATM   19  C   UNL     1     -44.936  57.830 -54.474  1.00  0.00     0.024 A 
HETATM   20  C   UNL     1     -44.172  56.666 -54.591  1.00  0.00     0.043 A 
ENDBRANCH  11  13
ENDBRANCH   5  11
BRANCH   2  21
HETATM   21  O   UNL     1     -39.294  52.008 -51.553  1.00  0.00    -0.352 OA
HETATM   22  C   UNL     1     -39.885  50.890 -50.888  1.00  0.00     0.210 C 
ENDBRANCH   2  21
BRANCH   1  23
HETATM   23  O   UNL     1     -39.561  53.952 -49.347  1.00  0.00    -0.353 OA
HETATM   24  C   UNL     1     -40.355  53.978 -48.165  1.00  0.00     0.210 C 
ENDBRANCH   1  23
TORSDOF 4
ENDMDL
MODEL 10
REMARK VINA RESULT:      -6.3     13.774     15.496
REMARK  4 active torsions:
REMARK  status: ('A' for Active; 'I' for Inactive)
REMARK    1  A    between atoms: O_2  and  C_3 
REMARK    2  A    between atoms: C_4  and  O_5 
REMARK    3  A    between atoms: C_9  and  N_10 
REMARK    4  A    between atoms: N_10  and  C_11 
ROOT
HETATM    1  C   UNL     1     -33.056  39.544 -54.872  1.00  0.00     0.102 A 
HETATM    2  C   UNL     1     -33.602  40.158 -53.739  1.00  0.00     0.118 A 
HETATM    3  C   UNL     1     -34.627  41.077 -53.937  1.00  0.00     0.085 A 
HETATM    4  C   UNL     1     -35.096  41.421 -55.193  1.00  0.00     0.005 A 
HETATM    5  C   UNL     1     -36.174  42.423 -55.061  1.00  0.00     0.245 A 
HETATM    6  O   UNL     1     -36.275  42.622 -53.644  1.00  0.00    -0.291 OA
HETATM    7  C   UNL     1     -35.391  41.836 -52.952  1.00  0.00     0.298 A 
HETATM    8  O   UNL     1     -35.326  41.821 -51.743  1.00  0.00    -0.259 OA
HETATM    9  C   UNL     1     -34.535  40.856 -56.325  1.00  0.00     0.015 A 
HETATM   10  C   UNL     1     -33.512  39.919 -56.154  1.00  0.00     0.040 A 
ENDROOT
BRANCH   5  11
HETATM   11  N   UNL     1     -37.432  41.923 -55.586  1.00  0.00    -0.248 NA
HETATM   12  H   UNL     1     -37.890  41.323 -54.901  1.00  0.00     0.132 HD
BRANCH  11  13
HETATM   13  C   UNL     1     -37.516  41.400 -56.873  1.00  0.00     0.082 A 
HETATM   14  N   UNL     1     -37.783  40.098 -57.090  1.00  0.00    -0.355 N 
HETATM   15  H   UNL     1     -37.944  39.507 -56.272  1.00  0.00     0.166 HD
HETATM   16  C   UNL     1     -37.794  39.531 -58.306  1.00  0.00     0.108 A 
HETATM   17  C   UNL     1     -37.498  40.292 -59.426  1.00  0.00     0.026 A 
HETATM   18 BR   UNL     1     -37.513  39.506 -61.138  1.00  0.00    -0.050 Br
HETATM   19  C   UNL     1     -37.172  41.632 -59.265  1.00  0.00     0.024 A 
HETATM   20  C   UNL     1     -37.164  42.182 -57.982  1.00  0.00     0.043 A 
ENDBRANCH  11  13
ENDBRANCH   5  11
BRANCH   2  21
HETATM   21  O   UNL     1     -33.198  39.830 -52.480  1.00  0.00    -0.352 OA
HETATM   22  C   UNL     1     -32.035  40.556 -52.075  1.00  0.00     0.210 C 
ENDBRANCH   2  21
BRANCH   1  23
HETATM   23  O   UNL     1     -32.056  38.611 -54.914  1.00  0.00    -0.353 OA
HETATM   24  C   UNL     1     -30.803  39.015 -55.457  1.00  0.00     0.210 C 
ENDBRANCH   1  23
TORSDOF 4
ENDMDL
