MODEL 1
REMARK VINA RESULT:      -6.8      0.000      0.000
REMARK  6 active torsions:
REMARK  status: ('A' for Active; 'I' for Inactive)
REMARK    1  A    between atoms: C_2  and  O_3 
REMARK    2  A    between atoms: O_3  and  C_4 
REMARK    3  A    between atoms: C_4  and  C_5 
REMARK    4  A    between atoms: C_6  and  O_7 
REMARK    5  A    between atoms: C_12  and  O_13 
REMARK    6  A    between atoms: C_17  and  C_18 
ROOT
HETATM    1  C   UNL     1     -41.214  54.791 -52.369  1.00  0.00     0.133 C 
HETATM    2  C   UNL     1     -41.283  54.746 -50.796  1.00  0.00     0.073 C 
HETATM    3  C   UNL     1     -39.855  54.670 -50.210  1.00  0.00     0.047 C 
HETATM    4  C   UNL     1     -42.027  55.963 -50.183  1.00  0.00     0.097 C 
HETATM    5  C   UNL     1     -41.476  57.196 -50.781  1.00  0.00     0.042 A 
HETATM    6  C   UNL     1     -41.006  57.316 -52.069  1.00  0.00     0.030 A 
HETATM    7  C   UNL     1     -40.546  58.638 -52.122  1.00  0.00     0.190 A 
HETATM    8  N   UNL     1     -40.689  59.299 -50.980  1.00  0.00    -0.149 NA
HETATM    9  N   UNL     1     -41.276  58.399 -50.168  1.00  0.00    -0.279 N 
HETATM   10  H   UNL     1     -41.488  58.676 -49.215  1.00  0.00     0.189 HD
HETATM   11  C   UNL     1     -41.023  56.189 -53.049  1.00  0.00     0.074 C 
ENDROOT
BRANCH  11  12
HETATM   12  C   UNL     1     -42.027  56.598 -54.123  1.00  0.00    -0.048 A 
HETATM   13  C   UNL     1     -41.742  56.319 -55.470  1.00  0.00     0.009 A 
HETATM   14  C   UNL     1     -42.635  56.681 -56.482  1.00  0.00     0.024 A 
HETATM   15  C   UNL     1     -43.829  57.323 -56.163  1.00  0.00     0.034 A 
HETATM   16 CL   UNL     1     -44.928  57.763 -57.409  1.00  0.00    -0.084 Cl
HETATM   17  C   UNL     1     -44.140  57.600 -54.836  1.00  0.00     0.024 A 
HETATM   18  C   UNL     1     -43.251  57.231 -53.825  1.00  0.00     0.009 A 
ENDBRANCH  11  12
BRANCH   1  19
HETATM   19  C   UNL     1     -42.265  53.927 -53.032  1.00  0.00     0.267 C 
HETATM   20  O   UNL     1     -43.451  53.997 -52.723  1.00  0.00    -0.265 OA
BRANCH  19  21
HETATM   21  O   UNL     1     -41.760  53.113 -53.993  1.00  0.00    -0.321 OA
BRANCH  21  22
HETATM   22  C   UNL     1     -40.449  52.593 -53.724  1.00  0.00     0.174 C 
HETATM   23  C   UNL     1     -40.280  51.194 -54.290  1.00  0.00     0.034 C 
ENDBRANCH  21  22
ENDBRANCH  19  21
ENDBRANCH   1  19
BRANCH   2  24
HETATM   24  O   UNL     1     -41.946  53.559 -50.333  1.00  0.00    -0.389 OA
HETATM   25  H   UNL     1     -41.581  52.787 -50.801  1.00  0.00     0.210 HD
ENDBRANCH   2  24
BRANCH   7  26
HETATM   26  O   UNL     1     -40.002  59.310 -53.140  1.00  0.00    -0.343 OA
HETATM   27  H   UNL     1     -39.455  60.030 -52.795  1.00  0.00     0.219 HD
ENDBRANCH   7  26
TORSDOF 6
ENDMDL
MODEL 2
REMARK VINA RESULT:      -6.8      3.096      5.057
REMARK  6 active torsions:
REMARK  status: ('A' for Active; 'I' for Inactive)
REMARK    1  A    between atoms: C_2  and  O_3 
REMARK    2  A    between atoms: O_3  and  C_4 
REMARK    3  A    between atoms: C_4  and  C_5 
REMARK    4  A    between atoms: C_6  and  O_7 
REMARK    5  A    between atoms: C_12  and  O_13 
REMARK    6  A    between atoms: C_17  and  C_18 
ROOT
HETATM    1  C   UNL     1     -42.776  55.724 -54.559  1.00  0.00     0.133 C 
HETATM    2  C   UNL     1     -42.736  56.981 -55.507  1.00  0.00     0.073 C 
HETATM    3  C   UNL     1     -44.061  57.087 -56.295  1.00  0.00     0.047 C 
HETATM    4  C   UNL     1     -42.480  58.310 -54.747  1.00  0.00     0.097 C 
HETATM    5  C   UNL     1     -43.414  58.381 -53.604  1.00  0.00     0.042 A 
HETATM    6  C   UNL     1     -43.863  57.303 -52.876  1.00  0.00     0.030 A 
HETATM    7  C   UNL     1     -44.756  57.880 -51.964  1.00  0.00     0.190 A 
HETATM    8  N   UNL     1     -44.882  59.195 -52.101  1.00  0.00    -0.149 NA
HETATM    9  N   UNL     1     -44.038  59.487 -53.108  1.00  0.00    -0.279 N 
HETATM   10  H   UNL     1     -43.960  60.455 -53.406  1.00  0.00     0.189 HD
HETATM   11  C   UNL     1     -43.428  55.899 -53.146  1.00  0.00     0.074 C 
ENDROOT
BRANCH  11  12
HETATM   12  C   UNL     1     -42.603  55.487 -51.929  1.00  0.00    -0.048 A 
HETATM   13  C   UNL     1     -42.887  54.269 -51.290  1.00  0.00     0.009 A 
HETATM   14  C   UNL     1     -42.157  53.858 -50.171  1.00  0.00     0.024 A 
HETATM   15  C   UNL     1     -41.129  54.658 -49.677  1.00  0.00     0.034 A 
HETATM   16 CL   UNL     1     -40.229  54.149 -48.304  1.00  0.00    -0.084 Cl
HETATM   17  C   UNL     1     -40.821  55.863 -50.299  1.00  0.00     0.024 A 
HETATM   18  C   UNL     1     -41.546  56.268 -51.421  1.00  0.00     0.009 A 
ENDBRANCH  11  12
BRANCH   1  19
HETATM   19  C   UNL     1     -41.473  54.955 -54.540  1.00  0.00     0.267 C 
HETATM   20  O   UNL     1     -40.385  55.524 -54.518  1.00  0.00    -0.265 OA
BRANCH  19  21
HETATM   21  O   UNL     1     -41.645  53.609 -54.525  1.00  0.00    -0.321 OA
BRANCH  21  22
HETATM   22  C   UNL     1     -40.435  52.842 -54.421  1.00  0.00     0.174 C 
HETATM   23  C   UNL     1     -40.173  52.411 -52.988  1.00  0.00     0.034 C 
ENDBRANCH  21  22
ENDBRANCH  19  21
ENDBRANCH   1  19
BRANCH   2  24
HETATM   24  O   UNL     1     -41.711  56.854 -56.505  1.00  0.00    -0.389 OA
HETATM   25  H   UNL     1     -42.129  56.739 -57.378  1.00  0.00     0.210 HD
ENDBRANCH   2  24
BRANCH   7  26
HETATM   26  O   UNL     1     -45.474  57.306 -50.996  1.00  0.00    -0.343 OA
HETATM   27  H   UNL     1     -45.389  57.822 -50.181  1.00  0.00     0.219 HD
ENDBRANCH   7  26
TORSDOF 6
ENDMDL
MODEL 3
REMARK VINA RESULT:      -6.6      3.592      5.514
REMARK  6 active torsions:
REMARK  status: ('A' for Active; 'I' for Inactive)
REMARK    1  A    between atoms: C_2  and  O_3 
REMARK    2  A    between atoms: O_3  and  C_4 
REMARK    3  A    between atoms: C_4  and  C_5 
REMARK    4  A    between atoms: C_6  and  O_7 
REMARK    5  A    between atoms: C_12  and  O_13 
REMARK    6  A    between atoms: C_17  and  C_18 
ROOT
HETATM    1  C   UNL     1     -42.733  58.100 -53.916  1.00  0.00     0.133 C 
HETATM    2  C   UNL     1     -44.112  58.852 -54.030  1.00  0.00     0.073 C 
HETATM    3  C   UNL     1     -43.900  60.244 -54.669  1.00  0.00     0.047 C 
HETATM    4  C   UNL     1     -45.170  58.065 -54.850  1.00  0.00     0.097 C 
HETATM    5  C   UNL     1     -44.551  57.635 -56.121  1.00  0.00     0.042 A 
HETATM    6  C   UNL     1     -43.229  57.291 -56.285  1.00  0.00     0.030 A 
HETATM    7  C   UNL     1     -43.133  57.026 -57.657  1.00  0.00     0.190 A 
HETATM    8  N   UNL     1     -44.275  57.196 -58.313  1.00  0.00    -0.149 NA
HETATM    9  N   UNL     1     -45.140  57.560 -57.348  1.00  0.00    -0.279 N 
HETATM   10  H   UNL     1     -46.101  57.754 -57.611  1.00  0.00     0.189 HD
HETATM   11  C   UNL     1     -42.242  57.287 -55.163  1.00  0.00     0.074 C 
ENDROOT
BRANCH  11  12
HETATM   12  C   UNL     1     -41.872  55.822 -54.951  1.00  0.00    -0.048 A 
HETATM   13  C   UNL     1     -40.525  55.479 -54.748  1.00  0.00     0.009 A 
HETATM   14  C   UNL     1     -40.144  54.148 -54.555  1.00  0.00     0.024 A 
HETATM   15  C   UNL     1     -41.106  53.140 -54.558  1.00  0.00     0.034 A 
HETATM   16 CL   UNL     1     -40.637  51.505 -54.315  1.00  0.00    -0.084 Cl
HETATM   17  C   UNL     1     -42.448  53.455 -54.746  1.00  0.00     0.024 A 
HETATM   18  C   UNL     1     -42.827  54.786 -54.930  1.00  0.00     0.009 A 
ENDBRANCH  11  12
BRANCH   1  19
HETATM   19  C   UNL     1     -42.566  57.366 -52.604  1.00  0.00     0.267 C 
HETATM   20  O   UNL     1     -41.536  57.450 -51.941  1.00  0.00    -0.265 OA
BRANCH  19  21
HETATM   21  O   UNL     1     -43.662  56.651 -52.246  1.00  0.00    -0.321 OA
BRANCH  21  22
HETATM   22  C   UNL     1     -43.532  55.910 -51.023  1.00  0.00     0.174 C 
HETATM   23  C   UNL     1     -43.282  54.436 -51.291  1.00  0.00     0.034 C 
ENDBRANCH  21  22
ENDBRANCH  19  21
ENDBRANCH   1  19
BRANCH   2  24
HETATM   24  O   UNL     1     -44.678  59.112 -52.736  1.00  0.00    -0.389 OA
HETATM   25  H   UNL     1     -44.282  59.925 -52.373  1.00  0.00     0.210 HD
ENDBRANCH   2  24
BRANCH   7  26
HETATM   26  O   UNL     1     -42.081  56.628 -58.377  1.00  0.00    -0.343 OA
HETATM   27  H   UNL     1     -41.767  55.774 -58.045  1.00  0.00     0.219 HD
ENDBRANCH   7  26
TORSDOF 6
ENDMDL
MODEL 4
REMARK VINA RESULT:      -6.3     15.766     17.738
REMARK  6 active torsions:
REMARK  status: ('A' for Active; 'I' for Inactive)
REMARK    1  A    between atoms: C_2  and  O_3 
REMARK    2  A    between atoms: O_3  and  C_4 
REMARK    3  A    between atoms: C_4  and  C_5 
REMARK    4  A    between atoms: C_6  and  O_7 
REMARK    5  A    between atoms: C_12  and  O_13 
REMARK    6  A    between atoms: C_17  and  C_18 
ROOT
HETATM    1  C   UNL     1     -32.895  40.411 -54.300  1.00  0.00     0.133 C 
HETATM    2  C   UNL     1     -32.612  39.457 -53.079  1.00  0.00     0.073 C 
HETATM    3  C   UNL     1     -32.052  40.275 -51.893  1.00  0.00     0.047 C 
HETATM    4  C   UNL     1     -33.868  38.671 -52.616  1.00  0.00     0.097 C 
HETATM    5  C   UNL     1     -34.984  39.627 -52.457  1.00  0.00     0.042 A 
HETATM    6  C   UNL     1     -35.180  40.755 -53.221  1.00  0.00     0.030 A 
HETATM    7  C   UNL     1     -36.315  41.340 -52.644  1.00  0.00     0.190 A 
HETATM    8  N   UNL     1     -36.792  40.666 -51.605  1.00  0.00    -0.149 NA
HETATM    9  N   UNL     1     -35.967  39.606 -51.512  1.00  0.00    -0.279 N 
HETATM   10  H   UNL     1     -36.131  38.931 -50.772  1.00  0.00     0.189 HD
HETATM   11  C   UNL     1     -34.278  41.143 -54.347  1.00  0.00     0.074 C 
ENDROOT
BRANCH  11  12
HETATM   12  C   UNL     1     -35.118  40.992 -55.612  1.00  0.00    -0.048 A 
HETATM   13  C   UNL     1     -35.033  41.974 -56.612  1.00  0.00     0.009 A 
HETATM   14  C   UNL     1     -35.788  41.873 -57.784  1.00  0.00     0.024 A 
HETATM   15  C   UNL     1     -36.638  40.786 -57.974  1.00  0.00     0.034 A 
HETATM   16 CL   UNL     1     -37.563  40.660 -59.417  1.00  0.00    -0.084 Cl
HETATM   17  C   UNL     1     -36.732  39.794 -57.004  1.00  0.00     0.024 A 
HETATM   18  C   UNL     1     -35.970  39.892 -55.838  1.00  0.00     0.009 A 
ENDBRANCH  11  12
BRANCH   1  19
HETATM   19  C   UNL     1     -32.473  39.815 -55.626  1.00  0.00     0.267 C 
HETATM   20  O   UNL     1     -31.782  40.439 -56.426  1.00  0.00    -0.265 OA
BRANCH  19  21
HETATM   21  O   UNL     1     -32.913  38.545 -55.807  1.00  0.00    -0.321 OA
BRANCH  21  22
HETATM   22  C   UNL     1     -32.535  37.942 -57.054  1.00  0.00     0.174 C 
HETATM   23  C   UNL     1     -33.690  37.938 -58.041  1.00  0.00     0.034 C 
ENDBRANCH  21  22
ENDBRANCH  19  21
ENDBRANCH   1  19
BRANCH   2  24
HETATM   24  O   UNL     1     -31.593  38.494 -53.390  1.00  0.00    -0.389 OA
HETATM   25  H   UNL     1     -31.567  38.357 -54.354  1.00  0.00     0.210 HD
ENDBRANCH   2  24
BRANCH   7  26
HETATM   26  O   UNL     1     -36.970  42.450 -52.991  1.00  0.00    -0.343 OA
HETATM   27  H   UNL     1     -36.455  43.225 -52.727  1.00  0.00     0.219 HD
ENDBRANCH   7  26
TORSDOF 6
ENDMDL
MODEL 5
REMARK VINA RESULT:      -6.2      3.119      5.322
REMARK  6 active torsions:
REMARK  status: ('A' for Active; 'I' for Inactive)
REMARK    1  A    between atoms: C_2  and  O_3 
REMARK    2  A    between atoms: O_3  and  C_4 
REMARK    3  A    between atoms: C_4  and  C_5 
REMARK    4  A    between atoms: C_6  and  O_7 
REMARK    5  A    between atoms: C_12  and  O_13 
REMARK    6  A    between atoms: C_17  and  C_18 
ROOT
HETATM    1  C   UNL     1     -41.328  57.301 -53.917  1.00  0.00     0.133 C 
HETATM    2  C   UNL     1     -41.583  55.934 -54.656  1.00  0.00     0.073 C 
HETATM    3  C   UNL     1     -40.291  55.086 -54.653  1.00  0.00     0.047 C 
HETATM    4  C   UNL     1     -42.742  55.111 -54.031  1.00  0.00     0.097 C 
HETATM    5  C   UNL     1     -42.527  55.036 -52.571  1.00  0.00     0.042 A 
HETATM    6  C   UNL     1     -41.955  56.022 -51.800  1.00  0.00     0.030 A 
HETATM    7  C   UNL     1     -41.924  55.453 -50.521  1.00  0.00     0.190 A 
HETATM    8  N   UNL     1     -42.413  54.219 -50.475  1.00  0.00    -0.149 NA
HETATM    9  N   UNL     1     -42.791  53.984 -51.745  1.00  0.00    -0.279 N 
HETATM   10  H   UNL     1     -43.201  53.082 -51.967  1.00  0.00     0.189 HD
HETATM   11  C   UNL     1     -41.493  57.328 -52.359  1.00  0.00     0.074 C 
ENDROOT
BRANCH  11  12
HETATM   12  C   UNL     1     -42.426  58.379 -51.764  1.00  0.00    -0.048 A 
HETATM   13  C   UNL     1     -41.889  59.598 -51.319  1.00  0.00     0.009 A 
HETATM   14  C   UNL     1     -42.711  60.584 -50.764  1.00  0.00     0.024 A 
HETATM   15  C   UNL     1     -44.082  60.366 -50.650  1.00  0.00     0.034 A 
HETATM   16 CL   UNL     1     -45.091  61.582 -49.972  1.00  0.00    -0.084 Cl
HETATM   17  C   UNL     1     -44.639  59.172 -51.094  1.00  0.00     0.024 A 
HETATM   18  C   UNL     1     -43.819  58.192 -51.655  1.00  0.00     0.009 A 
ENDBRANCH  11  12
BRANCH   1  19
HETATM   19  C   UNL     1     -41.963  58.482 -54.619  1.00  0.00     0.267 C 
HETATM   20  O   UNL     1     -41.348  59.525 -54.817  1.00  0.00    -0.265 OA
BRANCH  19  21
HETATM   21  O   UNL     1     -43.240  58.247 -55.013  1.00  0.00    -0.321 OA
BRANCH  21  22
HETATM   22  C   UNL     1     -43.896  59.359 -55.643  1.00  0.00     0.174 C 
HETATM   23  C   UNL     1     -44.878  60.031 -54.699  1.00  0.00     0.034 C 
ENDBRANCH  21  22
ENDBRANCH  19  21
ENDBRANCH   1  19
BRANCH   2  24
HETATM   24  O   UNL     1     -41.900  56.137 -56.042  1.00  0.00    -0.389 OA
HETATM   25  H   UNL     1     -42.834  55.903 -56.193  1.00  0.00     0.210 HD
ENDBRANCH   2  24
BRANCH   7  26
HETATM   26  O   UNL     1     -41.488  55.969 -49.369  1.00  0.00    -0.343 OA
HETATM   27  H   UNL     1     -41.355  55.257 -48.726  1.00  0.00     0.219 HD
ENDBRANCH   7  26
TORSDOF 6
ENDMDL
MODEL 6
REMARK VINA RESULT:      -6.1      2.742      4.725
REMARK  6 active torsions:
REMARK  status: ('A' for Active; 'I' for Inactive)
REMARK    1  A    between atoms: C_2  and  O_3 
REMARK    2  A    between atoms: O_3  and  C_4 
REMARK    3  A    between atoms: C_4  and  C_5 
REMARK    4  A    between atoms: C_6  and  O_7 
REMARK    5  A    between atoms: C_12  and  O_13 
REMARK    6  A    between atoms: C_17  and  C_18 
ROOT
HETATM    1  C   UNL     1     -44.130  58.186 -53.073  1.00  0.00     0.133 C 
HETATM    2  C   UNL     1     -43.915  59.746 -53.130  1.00  0.00     0.073 C 
HETATM    3  C   UNL     1     -44.696  60.426 -51.982  1.00  0.00     0.047 C 
HETATM    4  C   UNL     1     -42.421  60.158 -53.051  1.00  0.00     0.097 C 
HETATM    5  C   UNL     1     -41.801  59.452 -51.911  1.00  0.00     0.042 A 
HETATM    6  C   UNL     1     -42.140  58.191 -51.477  1.00  0.00     0.030 A 
HETATM    7  C   UNL     1     -41.324  58.007 -50.353  1.00  0.00     0.190 A 
HETATM    8  N   UNL     1     -40.548  59.050 -50.082  1.00  0.00    -0.149 NA
HETATM    9  N   UNL     1     -40.846  59.925 -51.060  1.00  0.00    -0.279 N 
HETATM   10  H   UNL     1     -40.372  60.823 -51.064  1.00  0.00     0.189 HD
HETATM   11  C   UNL     1     -43.186  57.355 -52.140  1.00  0.00     0.074 C 
ENDROOT
BRANCH  11  12
HETATM   12  C   UNL     1     -42.436  56.179 -52.758  1.00  0.00    -0.048 A 
HETATM   13  C   UNL     1     -42.956  54.882 -52.612  1.00  0.00     0.009 A 
HETATM   14  C   UNL     1     -42.296  53.778 -53.161  1.00  0.00     0.024 A 
HETATM   15  C   UNL     1     -41.108  53.956 -53.867  1.00  0.00     0.034 A 
HETATM   16 CL   UNL     1     -40.301  52.598 -54.545  1.00  0.00    -0.084 Cl
HETATM   17  C   UNL     1     -40.579  55.230 -54.035  1.00  0.00     0.024 A 
HETATM   18  C   UNL     1     -41.243  56.333 -53.494  1.00  0.00     0.009 A 
ENDBRANCH  11  12
BRANCH   1  19
HETATM   19  C   UNL     1     -44.340  57.568 -54.438  1.00  0.00     0.267 C 
HETATM   20  O   UNL     1     -45.267  56.796 -54.664  1.00  0.00    -0.265 OA
BRANCH  19  21
HETATM   21  O   UNL     1     -43.429  57.976 -55.357  1.00  0.00    -0.321 OA
BRANCH  21  22
HETATM   22  C   UNL     1     -43.610  57.436 -56.675  1.00  0.00     0.174 C 
HETATM   23  C   UNL     1     -42.788  56.174 -56.876  1.00  0.00     0.034 C 
ENDBRANCH  21  22
ENDBRANCH  19  21
ENDBRANCH   1  19
BRANCH   2  24
HETATM   24  O   UNL     1     -44.453  60.307 -54.338  1.00  0.00    -0.389 OA
HETATM   25  H   UNL     1     -44.900  59.604 -54.844  1.00  0.00     0.210 HD
ENDBRANCH   2  24
BRANCH   7  26
HETATM   26  O   UNL     1     -41.215  56.951 -49.543  1.00  0.00    -0.343 OA
HETATM   27  H   UNL     1     -41.079  56.152 -50.071  1.00  0.00     0.219 HD
ENDBRANCH   7  26
TORSDOF 6
ENDMDL
MODEL 7
REMARK VINA RESULT:      -6.0      2.716      4.011
REMARK  6 active torsions:
REMARK  status: ('A' for Active; 'I' for Inactive)
REMARK    1  A    between atoms: C_2  and  O_3 
REMARK    2  A    between atoms: O_3  and  C_4 
REMARK    3  A    between atoms: C_4  and  C_5 
REMARK    4  A    between atoms: C_6  and  O_7 
REMARK    5  A    between atoms: C_12  and  O_13 
REMARK    6  A    between atoms: C_17  and  C_18 
ROOT
HETATM    1  C   UNL     1     -42.025  55.854 -53.824  1.00  0.00     0.133 C 
HETATM    2  C   UNL     1     -41.845  54.303 -53.622  1.00  0.00     0.073 C 
HETATM    3  C   UNL     1     -40.342  53.944 -53.622  1.00  0.00     0.047 C 
HETATM    4  C   UNL     1     -42.499  53.779 -52.314  1.00  0.00     0.097 C 
HETATM    5  C   UNL     1     -42.063  54.641 -51.197  1.00  0.00     0.042 A 
HETATM    6  C   UNL     1     -41.804  55.990 -51.287  1.00  0.00     0.030 A 
HETATM    7  C   UNL     1     -41.373  56.322 -49.996  1.00  0.00     0.190 A 
HETATM    8  N   UNL     1     -41.343  55.289 -49.162  1.00  0.00    -0.149 NA
HETATM    9  N   UNL     1     -41.784  54.264 -49.916  1.00  0.00    -0.279 N 
HETATM   10  H   UNL     1     -41.847  53.345 -49.490  1.00  0.00     0.189 HD
HETATM   11  C   UNL     1     -41.960  56.767 -52.553  1.00  0.00     0.074 C 
ENDROOT
BRANCH  11  12
HETATM   12  C   UNL     1     -43.126  57.720 -52.305  1.00  0.00    -0.048 A 
HETATM   13  C   UNL     1     -43.070  59.021 -52.831  1.00  0.00     0.009 A 
HETATM   14  C   UNL     1     -44.117  59.924 -52.623  1.00  0.00     0.024 A 
HETATM   15  C   UNL     1     -45.236  59.539 -51.888  1.00  0.00     0.034 A 
HETATM   16 CL   UNL     1     -46.523  60.649 -51.637  1.00  0.00    -0.084 Cl
HETATM   17  C   UNL     1     -45.320  58.252 -51.367  1.00  0.00     0.024 A 
HETATM   18  C   UNL     1     -44.278  57.348 -51.583  1.00  0.00     0.009 A 
ENDBRANCH  11  12
BRANCH   1  19
HETATM   19  C   UNL     1     -43.156  56.200 -54.768  1.00  0.00     0.267 C 
HETATM   20  O   UNL     1     -44.291  55.759 -54.609  1.00  0.00    -0.265 OA
BRANCH  19  21
HETATM   21  O   UNL     1     -42.785  57.046 -55.762  1.00  0.00    -0.321 OA
BRANCH  21  22
HETATM   22  C   UNL     1     -43.561  56.947 -56.967  1.00  0.00     0.174 C 
HETATM   23  C   UNL     1     -43.087  55.798 -57.840  1.00  0.00     0.034 C 
ENDBRANCH  21  22
ENDBRANCH  19  21
ENDBRANCH   1  19
BRANCH   2  24
HETATM   24  O   UNL     1     -42.412  53.560 -54.712  1.00  0.00    -0.389 OA
HETATM   25  H   UNL     1     -43.284  53.936 -54.934  1.00  0.00     0.210 HD
ENDBRANCH   2  24
BRANCH   7  26
HETATM   26  O   UNL     1     -41.005  57.505 -49.498  1.00  0.00    -0.343 OA
HETATM   27  H   UNL     1     -41.522  58.207 -49.918  1.00  0.00     0.219 HD
ENDBRANCH   7  26
TORSDOF 6
ENDMDL
MODEL 8
REMARK VINA RESULT:      -6.0      3.300      5.407
REMARK  6 active torsions:
REMARK  status: ('A' for Active; 'I' for Inactive)
REMARK    1  A    between atoms: C_2  and  O_3 
REMARK    2  A    between atoms: O_3  and  C_4 
REMARK    3  A    between atoms: C_4  and  C_5 
REMARK    4  A    between atoms: C_6  and  O_7 
REMARK    5  A    between atoms: C_12  and  O_13 
REMARK    6  A    between atoms: C_17  and  C_18 
ROOT
HETATM    1  C   UNL     1     -42.722  57.902 -53.866  1.00  0.00     0.133 C 
HETATM    2  C   UNL     1     -42.563  59.409 -54.297  1.00  0.00     0.073 C 
HETATM    3  C   UNL     1     -43.812  59.866 -55.083  1.00  0.00     0.047 C 
HETATM    4  C   UNL     1     -42.332  60.365 -53.096  1.00  0.00     0.097 C 
HETATM    5  C   UNL     1     -43.356  60.081 -52.070  1.00  0.00     0.042 A 
HETATM    6  C   UNL     1     -43.899  58.844 -51.808  1.00  0.00     0.030 A 
HETATM    7  C   UNL     1     -44.848  59.113 -50.813  1.00  0.00     0.190 A 
HETATM    8  N   UNL     1     -44.921  60.396 -50.479  1.00  0.00    -0.149 NA
HETATM    9  N   UNL     1     -43.986  60.976 -51.255  1.00  0.00    -0.279 N 
HETATM   10  H   UNL     1     -43.853  61.979 -51.181  1.00  0.00     0.189 HD
HETATM   11  C   UNL     1     -43.486  57.604 -52.532  1.00  0.00     0.074 C 
ENDROOT
BRANCH  11  12
HETATM   12  C   UNL     1     -42.781  56.739 -51.490  1.00  0.00    -0.048 A 
HETATM   13  C   UNL     1     -41.687  57.270 -50.788  1.00  0.00     0.009 A 
HETATM   14  C   UNL     1     -41.013  56.509 -49.828  1.00  0.00     0.024 A 
HETATM   15  C   UNL     1     -41.425  55.207 -49.555  1.00  0.00     0.034 A 
HETATM   16 CL   UNL     1     -40.598  54.274 -48.372  1.00  0.00    -0.084 Cl
HETATM   17  C   UNL     1     -42.514  54.663 -50.228  1.00  0.00     0.024 A 
HETATM   18  C   UNL     1     -43.191  55.427 -51.180  1.00  0.00     0.009 A 
ENDBRANCH  11  12
BRANCH   1  19
HETATM   19  C   UNL     1     -41.450  57.100 -54.035  1.00  0.00     0.267 C 
HETATM   20  O   UNL     1     -40.348  57.570 -53.767  1.00  0.00    -0.265 OA
BRANCH  19  21
HETATM   21  O   UNL     1     -41.668  55.837 -54.478  1.00  0.00    -0.321 OA
BRANCH  21  22
HETATM   22  C   UNL     1     -42.620  55.722 -55.547  1.00  0.00     0.174 C 
HETATM   23  C   UNL     1     -43.261  54.345 -55.574  1.00  0.00     0.034 C 
ENDBRANCH  21  22
ENDBRANCH  19  21
ENDBRANCH   1  19
BRANCH   2  24
HETATM   24  O   UNL     1     -41.461  59.583 -55.202  1.00  0.00    -0.389 OA
HETATM   25  H   UNL     1     -41.808  59.770 -56.094  1.00  0.00     0.210 HD
ENDBRANCH   2  24
BRANCH   7  26
HETATM   26  O   UNL     1     -45.664  58.277 -50.166  1.00  0.00    -0.343 OA
HETATM   27  H   UNL     1     -46.555  58.345 -50.536  1.00  0.00     0.219 HD
ENDBRANCH   7  26
TORSDOF 6
ENDMDL
MODEL 9
REMARK VINA RESULT:      -5.9      3.777      6.319
REMARK  6 active torsions:
REMARK  status: ('A' for Active; 'I' for Inactive)
REMARK    1  A    between atoms: C_2  and  O_3 
REMARK    2  A    between atoms: O_3  and  C_4 
REMARK    3  A    between atoms: C_4  and  C_5 
REMARK    4  A    between atoms: C_6  and  O_7 
REMARK    5  A    between atoms: C_12  and  O_13 
REMARK    6  A    between atoms: C_17  and  C_18 
ROOT
HETATM    1  C   UNL     1     -43.327  58.512 -53.069  1.00  0.00     0.133 C 
HETATM    2  C   UNL     1     -44.485  58.577 -54.134  1.00  0.00     0.073 C 
HETATM    3  C   UNL     1     -44.046  59.443 -55.336  1.00  0.00     0.047 C 
HETATM    4  C   UNL     1     -44.925  57.177 -54.641  1.00  0.00     0.097 C 
HETATM    5  C   UNL     1     -43.718  56.421 -55.031  1.00  0.00     0.042 A 
HETATM    6  C   UNL     1     -42.485  56.525 -54.429  1.00  0.00     0.030 A 
HETATM    7  C   UNL     1     -41.681  55.667 -55.191  1.00  0.00     0.190 A 
HETATM    8  N   UNL     1     -42.326  55.083 -56.193  1.00  0.00    -0.149 NA
HETATM    9  N   UNL     1     -43.583  55.549 -56.071  1.00  0.00    -0.279 N 
HETATM   10  H   UNL     1     -44.279  55.240 -56.743  1.00  0.00     0.189 HD
HETATM   11  C   UNL     1     -42.221  57.419 -53.261  1.00  0.00     0.074 C 
ENDROOT
BRANCH  11  12
HETATM   12  C   UNL     1     -41.938  56.485 -52.088  1.00  0.00    -0.048 A 
HETATM   13  C   UNL     1     -40.979  56.858 -51.132  1.00  0.00     0.009 A 
HETATM   14  C   UNL     1     -40.688  56.028 -50.045  1.00  0.00     0.024 A 
HETATM   15  C   UNL     1     -41.354  54.814 -49.897  1.00  0.00     0.034 A 
HETATM   16 CL   UNL     1     -40.999  53.797 -48.558  1.00  0.00    -0.084 Cl
HETATM   17  C   UNL     1     -42.317  54.427 -50.823  1.00  0.00     0.024 A 
HETATM   18  C   UNL     1     -42.612  55.261 -51.904  1.00  0.00     0.009 A 
ENDBRANCH  11  12
BRANCH   1  19
HETATM   19  C   UNL     1     -43.824  58.635 -51.645  1.00  0.00     0.267 C 
HETATM   20  O   UNL     1     -44.740  57.939 -51.216  1.00  0.00    -0.265 OA
BRANCH  19  21
HETATM   21  O   UNL     1     -43.143  59.555 -50.917  1.00  0.00    -0.321 OA
BRANCH  21  22
HETATM   22  C   UNL     1     -43.009  60.844 -51.537  1.00  0.00     0.174 C 
HETATM   23  C   UNL     1     -44.273  61.671 -51.375  1.00  0.00     0.034 C 
ENDBRANCH  21  22
ENDBRANCH  19  21
ENDBRANCH   1  19
BRANCH   2  24
HETATM   24  O   UNL     1     -45.651  59.227 -53.603  1.00  0.00    -0.389 OA
HETATM   25  H   UNL     1     -45.774  60.080 -54.058  1.00  0.00     0.210 HD
ENDBRANCH   2  24
BRANCH   7  26
HETATM   26  O   UNL     1     -40.389  55.360 -55.048  1.00  0.00    -0.343 OA
HETATM   27  H   UNL     1     -40.281  54.398 -55.078  1.00  0.00     0.219 HD
ENDBRANCH   7  26
TORSDOF 6
ENDMDL
MODEL 10
REMARK VINA RESULT:      -5.8      3.012      5.019
REMARK  6 active torsions:
REMARK  status: ('A' for Active; 'I' for Inactive)
REMARK    1  A    between atoms: C_2  and  O_3 
REMARK    2  A    between atoms: O_3  and  C_4 
REMARK    3  A    between atoms: C_4  and  C_5 
REMARK    4  A    between atoms: C_6  and  O_7 
REMARK    5  A    between atoms: C_12  and  O_13 
REMARK    6  A    between atoms: C_17  and  C_18 
ROOT
HETATM    1  C   UNL     1     -41.511  56.566 -54.395  1.00  0.00     0.133 C 
HETATM    2  C   UNL     1     -41.509  55.087 -54.935  1.00  0.00     0.073 C 
HETATM    3  C   UNL     1     -40.060  54.554 -55.005  1.00  0.00     0.047 C 
HETATM    4  C   UNL     1     -42.371  54.123 -54.075  1.00  0.00     0.097 C 
HETATM    5  C   UNL     1     -41.998  54.304 -52.657  1.00  0.00     0.042 A 
HETATM    6  C   UNL     1     -41.599  55.490 -52.084  1.00  0.00     0.030 A 
HETATM    7  C   UNL     1     -41.305  55.127 -50.763  1.00  0.00     0.190 A 
HETATM    8  N   UNL     1     -41.482  53.835 -50.514  1.00  0.00    -0.149 NA
HETATM    9  N   UNL     1     -41.921  53.346 -51.689  1.00  0.00    -0.279 N 
HETATM   10  H   UNL     1     -42.127  52.354 -51.752  1.00  0.00     0.189 HD
HETATM   11  C   UNL     1     -41.518  56.775 -52.843  1.00  0.00     0.074 C 
ENDROOT
BRANCH  11  12
HETATM   12  C   UNL     1     -42.608  57.666 -52.253  1.00  0.00    -0.048 A 
HETATM   13  C   UNL     1     -43.884  57.125 -52.022  1.00  0.00     0.009 A 
HETATM   14  C   UNL     1     -44.909  57.910 -51.486  1.00  0.00     0.024 A 
HETATM   15  C   UNL     1     -44.673  59.246 -51.171  1.00  0.00     0.034 A 
HETATM   16 CL   UNL     1     -45.934  60.208 -50.508  1.00  0.00    -0.084 Cl
HETATM   17  C   UNL     1     -43.416  59.801 -51.379  1.00  0.00     0.024 A 
HETATM   18  C   UNL     1     -42.390  59.014 -51.907  1.00  0.00     0.009 A 
ENDBRANCH  11  12
BRANCH   1  19
HETATM   19  C   UNL     1     -42.474  57.466 -55.138  1.00  0.00     0.267 C 
HETATM   20  O   UNL     1     -43.598  57.088 -55.458  1.00  0.00    -0.265 OA
BRANCH  19  21
HETATM   21  O   UNL     1     -41.976  58.705 -55.376  1.00  0.00    -0.321 OA
BRANCH  21  22
HETATM   22  C   UNL     1     -42.308  59.259 -56.658  1.00  0.00     0.174 C 
HETATM   23  C   UNL     1     -43.172  60.501 -56.519  1.00  0.00     0.034 C 
ENDBRANCH  21  22
ENDBRANCH  19  21
ENDBRANCH   1  19
BRANCH   2  24
HETATM   24  O   UNL     1     -42.004  55.018 -56.282  1.00  0.00    -0.389 OA
HETATM   25  H   UNL     1     -41.905  55.892 -56.702  1.00  0.00     0.210 HD
ENDBRANCH   2  24
BRANCH   7  26
HETATM   26  O   UNL     1     -40.890  55.883 -49.744  1.00  0.00    -0.343 OA
HETATM   27  H   UNL     1     -41.656  56.223 -49.261  1.00  0.00     0.219 HD
ENDBRANCH   7  26
TORSDOF 6
ENDMDL
