MODEL 1
REMARK VINA RESULT:      -9.0      0.000      0.000
REMARK  6 active torsions:
REMARK  status: ('A' for Active; 'I' for Inactive)
REMARK    1  A    between atoms: C_5  and  C_6 
REMARK    2  A    between atoms: C_6  and  N_7 
REMARK    3  A    between atoms: C_6  and  C_11 
REMARK       I    between atoms: N_7  and  C_8 
REMARK    4  A    between atoms: C_11  and  C_12 
REMARK       I    between atoms: C_12  and  N_13 
REMARK    5  A    between atoms: N_13  and  C_14 
REMARK    6  A    between atoms: C_16  and  C_17 
ROOT
HETATM    1  C   UNL     1     -42.544  55.539 -52.400  1.00  0.00     0.224 C 
HETATM    2  N   UNL     1     -43.494  55.331 -53.385  1.00  0.00    -0.327 N 
HETATM    3  O   UNL     1     -41.808  56.516 -52.290  1.00  0.00    -0.273 OA
HETATM    4  H   UNL     1     -44.053  54.489 -53.296  1.00  0.00     0.169 HD
ENDROOT
BRANCH   1   5
HETATM    5  C   UNL     1     -42.423  54.367 -51.450  1.00  0.00     0.133 C 
BRANCH   5   6
HETATM    6  C   UNL     1     -40.953  54.008 -51.203  1.00  0.00     0.126 C 
BRANCH   6   7
HETATM    7  C   UNL     1     -40.518  52.892 -52.142  1.00  0.00    -0.035 A 
HETATM    8  C   UNL     1     -39.864  51.742 -51.675  1.00  0.00     0.010 A 
HETATM    9  C   UNL     1     -39.523  50.708 -52.551  1.00  0.00     0.007 A 
HETATM   10  C   UNL     1     -39.833  50.797 -53.912  1.00  0.00    -0.062 A 
HETATM   11  C   UNL     1     -39.512  49.659 -54.835  1.00  0.00     0.048 C 
HETATM   12  C   UNL     1     -40.501  51.931 -54.381  1.00  0.00     0.007 A 
HETATM   13  C   UNL     1     -40.836  52.970 -53.507  1.00  0.00     0.010 A 
ENDBRANCH   6   7
BRANCH   6  14
HETATM   14  N   UNL     1     -40.581  53.718 -49.817  1.00  0.00    -0.352 N 
HETATM   15  C   UNL     1     -40.734  54.559 -48.742  1.00  0.00     0.214 C 
HETATM   16  C   UNL     1     -40.300  53.943 -47.439  1.00  0.00     0.117 C 
HETATM   17  O   UNL     1     -41.187  55.697 -48.806  1.00  0.00    -0.274 OA
HETATM   18  H   UNL     1     -40.300  52.764 -49.633  1.00  0.00     0.163 HD
ENDBRANCH   6  14
ENDBRANCH   5   6
ENDBRANCH   1   5
BRANCH   2  19
HETATM   19  C   UNL     1     -43.829  56.178 -54.459  1.00  0.00     0.035 A 
HETATM   20  C   UNL     1     -43.228  56.121 -55.720  1.00  0.00     0.042 A 
HETATM   21  C   UNL     1     -43.608  57.004 -56.746  1.00  0.00    -0.021 A 
HETATM   22  C   UNL     1     -44.621  57.938 -56.494  1.00  0.00     0.012 A 
HETATM   23  C   UNL     1     -45.228  58.002 -55.239  1.00  0.00     0.003 A 
HETATM   24  C   UNL     1     -44.826  57.132 -54.226  1.00  0.00     0.029 A 
BRANCH  21  25
HETATM   25  C   UNL     1     -42.949  56.941 -58.042  1.00  0.00     0.010 A 
HETATM   26  C   UNL     1     -42.993  55.953 -59.057  1.00  0.00     0.152 A 
HETATM   27  N   UNL     1     -42.220  56.252 -60.105  1.00  0.00    -0.187 NA
HETATM   28  N   UNL     1     -41.669  57.426 -59.763  1.00  0.00    -0.289 N 
HETATM   29  H   UNL     1     -41.020  57.859 -60.412  1.00  0.00     0.188 HD
HETATM   30  C   UNL     1     -42.071  57.881 -58.541  1.00  0.00     0.123 A 
ENDBRANCH  21  25
ENDBRANCH   2  19
TORSDOF 6
ENDMDL
MODEL 2
REMARK VINA RESULT:      -8.8      2.135      3.221
REMARK  6 active torsions:
REMARK  status: ('A' for Active; 'I' for Inactive)
REMARK    1  A    between atoms: C_5  and  C_6 
REMARK    2  A    between atoms: C_6  and  N_7 
REMARK    3  A    between atoms: C_6  and  C_11 
REMARK       I    between atoms: N_7  and  C_8 
REMARK    4  A    between atoms: C_11  and  C_12 
REMARK       I    between atoms: C_12  and  N_13 
REMARK    5  A    between atoms: N_13  and  C_14 
REMARK    6  A    between atoms: C_16  and  C_17 
ROOT
HETATM    1  C   UNL     1     -41.770  54.996 -55.367  1.00  0.00     0.224 C 
HETATM    2  N   UNL     1     -41.772  56.207 -56.036  1.00  0.00    -0.327 N 
HETATM    3  O   UNL     1     -42.703  54.201 -55.292  1.00  0.00    -0.273 OA
HETATM    4  H   UNL     1     -40.895  56.717 -56.040  1.00  0.00     0.169 HD
ENDROOT
BRANCH   1   5
HETATM    5  C   UNL     1     -40.473  54.739 -54.630  1.00  0.00     0.133 C 
BRANCH   5   6
HETATM    6  C   UNL     1     -40.690  54.753 -53.113  1.00  0.00     0.126 C 
BRANCH   6   7
HETATM    7  C   UNL     1     -40.403  53.378 -52.526  1.00  0.00    -0.035 A 
HETATM    8  C   UNL     1     -39.975  52.305 -53.322  1.00  0.00     0.010 A 
HETATM    9  C   UNL     1     -39.666  51.068 -52.750  1.00  0.00     0.007 A 
HETATM   10  C   UNL     1     -39.773  50.877 -51.368  1.00  0.00    -0.062 A 
HETATM   11  C   UNL     1     -39.388  49.563 -50.756  1.00  0.00     0.048 C 
HETATM   12  C   UNL     1     -40.181  51.947 -50.566  1.00  0.00     0.007 A 
HETATM   13  C   UNL     1     -40.497  53.182 -51.139  1.00  0.00     0.010 A 
ENDBRANCH   6   7
BRANCH   6  14
HETATM   14  N   UNL     1     -41.975  55.276 -52.646  1.00  0.00    -0.352 N 
HETATM   15  C   UNL     1     -42.171  56.443 -51.947  1.00  0.00     0.214 C 
HETATM   16  C   UNL     1     -43.621  56.727 -51.660  1.00  0.00     0.117 C 
HETATM   17  O   UNL     1     -41.275  57.201 -51.591  1.00  0.00    -0.274 OA
HETATM   18  H   UNL     1     -42.792  54.786 -52.983  1.00  0.00     0.163 HD
ENDBRANCH   6  14
ENDBRANCH   5   6
ENDBRANCH   1   5
BRANCH   2  19
HETATM   19  C   UNL     1     -42.823  56.790 -56.772  1.00  0.00     0.035 A 
HETATM   20  C   UNL     1     -43.370  56.234 -57.932  1.00  0.00     0.042 A 
HETATM   21  C   UNL     1     -44.415  56.875 -58.620  1.00  0.00    -0.021 A 
HETATM   22  C   UNL     1     -44.921  58.079 -58.113  1.00  0.00     0.012 A 
HETATM   23  C   UNL     1     -44.383  58.640 -56.955  1.00  0.00     0.003 A 
HETATM   24  C   UNL     1     -43.333  58.002 -56.294  1.00  0.00     0.029 A 
BRANCH  21  25
HETATM   25  C   UNL     1     -44.951  56.289 -59.840  1.00  0.00     0.010 A 
HETATM   26  C   UNL     1     -44.437  55.275 -60.684  1.00  0.00     0.152 A 
HETATM   27  N   UNL     1     -45.223  55.028 -61.736  1.00  0.00    -0.187 NA
HETATM   28  N   UNL     1     -46.238  55.890 -61.578  1.00  0.00    -0.289 N 
HETATM   29  H   UNL     1     -46.974  55.898 -62.276  1.00  0.00     0.188 HD
HETATM   30  C   UNL     1     -46.124  56.666 -60.462  1.00  0.00     0.123 A 
ENDBRANCH  21  25
ENDBRANCH   2  19
TORSDOF 6
ENDMDL
MODEL 3
REMARK VINA RESULT:      -8.5      3.904      8.337
REMARK  6 active torsions:
REMARK  status: ('A' for Active; 'I' for Inactive)
REMARK    1  A    between atoms: C_5  and  C_6 
REMARK    2  A    between atoms: C_6  and  N_7 
REMARK    3  A    between atoms: C_6  and  C_11 
REMARK       I    between atoms: N_7  and  C_8 
REMARK    4  A    between atoms: C_11  and  C_12 
REMARK       I    between atoms: C_12  and  N_13 
REMARK    5  A    between atoms: N_13  and  C_14 
REMARK    6  A    between atoms: C_16  and  C_17 
ROOT
HETATM    1  C   UNL     1     -43.060  56.383 -52.412  1.00  0.00     0.224 C 
HETATM    2  N   UNL     1     -41.821  55.798 -52.223  1.00  0.00    -0.327 N 
HETATM    3  O   UNL     1     -43.844  56.154 -53.329  1.00  0.00    -0.273 OA
HETATM    4  H   UNL     1     -41.324  56.066 -51.380  1.00  0.00     0.169 HD
ENDROOT
BRANCH   1   5
HETATM    5  C   UNL     1     -43.369  57.445 -51.378  1.00  0.00     0.133 C 
BRANCH   5   6
HETATM    6  C   UNL     1     -42.790  58.802 -51.792  1.00  0.00     0.126 C 
BRANCH   6   7
HETATM    7  C   UNL     1     -43.440  59.920 -50.990  1.00  0.00    -0.035 A 
HETATM    8  C   UNL     1     -42.773  61.124 -50.719  1.00  0.00     0.010 A 
HETATM    9  C   UNL     1     -43.413  62.156 -50.027  1.00  0.00     0.007 A 
HETATM   10  C   UNL     1     -44.734  62.010 -49.593  1.00  0.00    -0.062 A 
HETATM   11  C   UNL     1     -45.431  63.142 -48.899  1.00  0.00     0.048 C 
HETATM   12  C   UNL     1     -45.411  60.820 -49.876  1.00  0.00     0.007 A 
HETATM   13  C   UNL     1     -44.770  59.784 -50.561  1.00  0.00     0.010 A 
ENDBRANCH   6   7
BRANCH   6  14
HETATM   14  N   UNL     1     -42.795  59.098 -53.226  1.00  0.00    -0.352 N 
HETATM   15  C   UNL     1     -41.695  59.379 -54.000  1.00  0.00     0.214 C 
HETATM   16  C   UNL     1     -42.030  59.589 -55.453  1.00  0.00     0.117 C 
HETATM   17  O   UNL     1     -40.545  59.446 -53.580  1.00  0.00    -0.274 OA
HETATM   18  H   UNL     1     -43.679  58.960 -53.695  1.00  0.00     0.163 HD
ENDBRANCH   6  14
ENDBRANCH   5   6
ENDBRANCH   1   5
BRANCH   2  19
HETATM   19  C   UNL     1     -41.191  54.823 -53.022  1.00  0.00     0.035 A 
HETATM   20  C   UNL     1     -40.867  53.537 -52.579  1.00  0.00     0.042 A 
HETATM   21  C   UNL     1     -40.231  52.616 -53.430  1.00  0.00    -0.021 A 
HETATM   22  C   UNL     1     -39.943  52.998 -54.747  1.00  0.00     0.012 A 
HETATM   23  C   UNL     1     -40.265  54.278 -55.198  1.00  0.00     0.003 A 
HETATM   24  C   UNL     1     -40.878  55.187 -54.336  1.00  0.00     0.029 A 
BRANCH  21  25
HETATM   25  C   UNL     1     -39.880  51.292 -52.938  1.00  0.00     0.010 A 
HETATM   26  C   UNL     1     -39.753  50.055 -53.616  1.00  0.00     0.152 A 
HETATM   27  N   UNL     1     -39.434  49.046 -52.800  1.00  0.00    -0.187 NA
HETATM   28  N   UNL     1     -39.365  49.629 -51.595  1.00  0.00    -0.289 N 
HETATM   29  H   UNL     1     -39.142  49.049 -50.792  1.00  0.00     0.188 HD
HETATM   30  C   UNL     1     -39.624  50.969 -51.621  1.00  0.00     0.123 A 
ENDBRANCH  21  25
ENDBRANCH   2  19
TORSDOF 6
ENDMDL
MODEL 4
REMARK VINA RESULT:      -8.4      2.595      4.096
REMARK  6 active torsions:
REMARK  status: ('A' for Active; 'I' for Inactive)
REMARK    1  A    between atoms: C_5  and  C_6 
REMARK    2  A    between atoms: C_6  and  N_7 
REMARK    3  A    between atoms: C_6  and  C_11 
REMARK       I    between atoms: N_7  and  C_8 
REMARK    4  A    between atoms: C_11  and  C_12 
REMARK       I    between atoms: C_12  and  N_13 
REMARK    5  A    between atoms: N_13  and  C_14 
REMARK    6  A    between atoms: C_16  and  C_17 
ROOT
HETATM    1  C   UNL     1     -42.038  54.836 -55.861  1.00  0.00     0.224 C 
HETATM    2  N   UNL     1     -42.051  55.837 -56.816  1.00  0.00    -0.327 N 
HETATM    3  O   UNL     1     -42.987  54.133 -55.526  1.00  0.00    -0.273 OA
HETATM    4  H   UNL     1     -41.161  56.287 -57.005  1.00  0.00     0.169 HD
ENDROOT
BRANCH   1   5
HETATM    5  C   UNL     1     -40.699  54.712 -55.164  1.00  0.00     0.133 C 
BRANCH   5   6
HETATM    6  C   UNL     1     -40.855  54.837 -53.645  1.00  0.00     0.126 C 
BRANCH   6   7
HETATM    7  C   UNL     1     -40.514  53.518 -52.968  1.00  0.00    -0.035 A 
HETATM    8  C   UNL     1     -40.111  52.391 -53.700  1.00  0.00     0.010 A 
HETATM    9  C   UNL     1     -39.751  51.207 -53.050  1.00  0.00     0.007 A 
HETATM   10  C   UNL     1     -39.781  51.124 -51.654  1.00  0.00    -0.062 A 
HETATM   11  C   UNL     1     -39.342  49.868 -50.963  1.00  0.00     0.048 C 
HETATM   12  C   UNL     1     -40.164  52.249 -50.918  1.00  0.00     0.007 A 
HETATM   13  C   UNL     1     -40.532  53.431 -51.567  1.00  0.00     0.010 A 
ENDBRANCH   6   7
BRANCH   6  14
HETATM   14  N   UNL     1     -42.132  55.370 -53.166  1.00  0.00    -0.352 N 
HETATM   15  C   UNL     1     -42.326  56.582 -52.548  1.00  0.00     0.214 C 
HETATM   16  C   UNL     1     -43.770  56.859 -52.224  1.00  0.00     0.117 C 
HETATM   17  O   UNL     1     -41.434  57.383 -52.288  1.00  0.00    -0.274 OA
HETATM   18  H   UNL     1     -42.951  54.840 -53.430  1.00  0.00     0.163 HD
ENDBRANCH   6  14
ENDBRANCH   5   6
ENDBRANCH   1   5
BRANCH   2  19
HETATM   19  C   UNL     1     -43.134  56.264 -57.610  1.00  0.00     0.035 A 
HETATM   20  C   UNL     1     -43.971  57.334 -57.283  1.00  0.00     0.042 A 
HETATM   21  C   UNL     1     -45.040  57.701 -58.120  1.00  0.00    -0.021 A 
HETATM   22  C   UNL     1     -45.245  56.987 -59.308  1.00  0.00     0.012 A 
HETATM   23  C   UNL     1     -44.413  55.919 -59.643  1.00  0.00     0.003 A 
HETATM   24  C   UNL     1     -43.369  55.555 -58.793  1.00  0.00     0.029 A 
BRANCH  21  25
HETATM   25  C   UNL     1     -45.913  58.803 -57.745  1.00  0.00     0.010 A 
HETATM   26  C   UNL     1     -45.620  60.065 -57.172  1.00  0.00     0.152 A 
HETATM   27  N   UNL     1     -46.713  60.801 -56.951  1.00  0.00    -0.187 NA
HETATM   28  N   UNL     1     -47.712  60.012 -57.371  1.00  0.00    -0.289 N 
HETATM   29  H   UNL     1     -48.663  60.358 -57.292  1.00  0.00     0.188 HD
HETATM   30  C   UNL     1     -47.289  58.808 -57.854  1.00  0.00     0.123 A 
ENDBRANCH  21  25
ENDBRANCH   2  19
TORSDOF 6
ENDMDL
MODEL 5
REMARK VINA RESULT:      -8.4      2.355      8.301
REMARK  6 active torsions:
REMARK  status: ('A' for Active; 'I' for Inactive)
REMARK    1  A    between atoms: C_5  and  C_6 
REMARK    2  A    between atoms: C_6  and  N_7 
REMARK    3  A    between atoms: C_6  and  C_11 
REMARK       I    between atoms: N_7  and  C_8 
REMARK    4  A    between atoms: C_11  and  C_12 
REMARK       I    between atoms: C_12  and  N_13 
REMARK    5  A    between atoms: N_13  and  C_14 
REMARK    6  A    between atoms: C_16  and  C_17 
ROOT
HETATM    1  C   UNL     1     -42.543  54.535 -55.348  1.00  0.00     0.224 C 
HETATM    2  N   UNL     1     -41.246  54.170 -55.037  1.00  0.00    -0.327 N 
HETATM    3  O   UNL     1     -43.540  54.351 -54.655  1.00  0.00    -0.273 OA
HETATM    4  H   UNL     1     -40.531  54.447 -55.702  1.00  0.00     0.169 HD
ENDROOT
BRANCH   1   5
HETATM    5  C   UNL     1     -42.661  55.156 -56.724  1.00  0.00     0.133 C 
BRANCH   5   6
HETATM    6  C   UNL     1     -43.281  56.555 -56.646  1.00  0.00     0.126 C 
BRANCH   6   7
HETATM    7  C   UNL     1     -42.851  57.391 -57.843  1.00  0.00    -0.035 A 
HETATM    8  C   UNL     1     -42.936  56.906 -59.156  1.00  0.00     0.010 A 
HETATM    9  C   UNL     1     -42.585  57.714 -60.241  1.00  0.00     0.007 A 
HETATM   10  C   UNL     1     -42.145  59.026 -60.038  1.00  0.00    -0.062 A 
HETATM   11  C   UNL     1     -41.822  59.904 -61.210  1.00  0.00     0.048 C 
HETATM   12  C   UNL     1     -42.076  59.522 -58.733  1.00  0.00     0.007 A 
HETATM   13  C   UNL     1     -42.419  58.712 -57.647  1.00  0.00     0.010 A 
ENDBRANCH   6   7
BRANCH   6  14
HETATM   14  N   UNL     1     -43.089  57.281 -55.389  1.00  0.00    -0.352 N 
HETATM   15  C   UNL     1     -44.081  57.767 -54.573  1.00  0.00     0.214 C 
HETATM   16  C   UNL     1     -43.554  58.422 -53.323  1.00  0.00     0.117 C 
HETATM   17  O   UNL     1     -45.282  57.681 -54.806  1.00  0.00    -0.274 OA
HETATM   18  H   UNL     1     -42.139  57.310 -55.045  1.00  0.00     0.163 HD
ENDBRANCH   6  14
ENDBRANCH   5   6
ENDBRANCH   1   5
BRANCH   2  19
HETATM   19  C   UNL     1     -40.782  53.521 -53.875  1.00  0.00     0.035 A 
HETATM   20  C   UNL     1     -40.960  54.012 -52.579  1.00  0.00     0.042 A 
HETATM   21  C   UNL     1     -40.464  53.313 -51.464  1.00  0.00    -0.021 A 
HETATM   22  C   UNL     1     -39.800  52.097 -51.668  1.00  0.00     0.012 A 
HETATM   23  C   UNL     1     -39.619  51.598 -52.958  1.00  0.00     0.003 A 
HETATM   24  C   UNL     1     -40.100  52.312 -54.055  1.00  0.00     0.029 A 
BRANCH  21  25
HETATM   25  C   UNL     1     -40.640  53.858 -50.126  1.00  0.00     0.010 A 
HETATM   26  C   UNL     1     -41.122  55.118 -49.694  1.00  0.00     0.152 A 
HETATM   27  N   UNL     1     -41.110  55.250 -48.364  1.00  0.00    -0.187 NA
HETATM   28  N   UNL     1     -40.611  54.081 -47.938  1.00  0.00    -0.289 N 
HETATM   29  H   UNL     1     -40.494  53.943 -46.939  1.00  0.00     0.188 HD
HETATM   30  C   UNL     1     -40.314  53.214 -48.949  1.00  0.00     0.123 A 
ENDBRANCH  21  25
ENDBRANCH   2  19
TORSDOF 6
ENDMDL
MODEL 6
REMARK VINA RESULT:      -8.3      2.616      4.016
REMARK  6 active torsions:
REMARK  status: ('A' for Active; 'I' for Inactive)
REMARK    1  A    between atoms: C_5  and  C_6 
REMARK    2  A    between atoms: C_6  and  N_7 
REMARK    3  A    between atoms: C_6  and  C_11 
REMARK       I    between atoms: N_7  and  C_8 
REMARK    4  A    between atoms: C_11  and  C_12 
REMARK       I    between atoms: C_12  and  N_13 
REMARK    5  A    between atoms: N_13  and  C_14 
REMARK    6  A    between atoms: C_16  and  C_17 
ROOT
HETATM    1  C   UNL     1     -43.486  57.032 -55.232  1.00  0.00     0.224 C 
HETATM    2  N   UNL     1     -42.586  56.655 -56.213  1.00  0.00    -0.327 N 
HETATM    3  O   UNL     1     -44.497  57.710 -55.390  1.00  0.00    -0.273 OA
HETATM    4  H   UNL     1     -41.829  56.047 -55.916  1.00  0.00     0.169 HD
ENDROOT
BRANCH   1   5
HETATM    5  C   UNL     1     -43.068  56.575 -53.850  1.00  0.00     0.133 C 
BRANCH   5   6
HETATM    6  C   UNL     1     -41.542  56.564 -53.712  1.00  0.00     0.126 C 
BRANCH   6   7
HETATM    7  C   UNL     1     -41.026  55.132 -53.675  1.00  0.00    -0.035 A 
HETATM    8  C   UNL     1     -41.097  54.347 -52.514  1.00  0.00     0.010 A 
HETATM    9  C   UNL     1     -40.666  53.018 -52.523  1.00  0.00     0.007 A 
HETATM   10  C   UNL     1     -40.158  52.442 -53.692  1.00  0.00    -0.062 A 
HETATM   11  C   UNL     1     -39.749  50.999 -53.706  1.00  0.00     0.048 C 
HETATM   12  C   UNL     1     -40.102  53.212 -54.857  1.00  0.00     0.007 A 
HETATM   13  C   UNL     1     -40.526  54.544 -54.848  1.00  0.00     0.010 A 
ENDBRANCH   6   7
BRANCH   6  14
HETATM   14  N   UNL     1     -40.983  57.362 -52.619  1.00  0.00    -0.352 N 
HETATM   15  C   UNL     1     -40.585  58.675 -52.694  1.00  0.00     0.214 C 
HETATM   16  C   UNL     1     -40.103  59.225 -51.379  1.00  0.00     0.117 C 
HETATM   17  O   UNL     1     -40.620  59.357 -53.713  1.00  0.00    -0.274 OA
HETATM   18  H   UNL     1     -41.014  56.931 -51.705  1.00  0.00     0.163 HD
ENDBRANCH   6  14
ENDBRANCH   5   6
ENDBRANCH   1   5
BRANCH   2  19
HETATM   19  C   UNL     1     -42.627  56.954 -57.589  1.00  0.00     0.035 A 
HETATM   20  C   UNL     1     -42.282  58.195 -58.132  1.00  0.00     0.042 A 
HETATM   21  C   UNL     1     -42.353  58.427 -59.517  1.00  0.00    -0.021 A 
HETATM   22  C   UNL     1     -42.758  57.381 -60.357  1.00  0.00     0.012 A 
HETATM   23  C   UNL     1     -43.102  56.139 -59.824  1.00  0.00     0.003 A 
HETATM   24  C   UNL     1     -43.045  55.931 -58.447  1.00  0.00     0.029 A 
BRANCH  21  25
HETATM   25  C   UNL     1     -42.014  59.735 -60.055  1.00  0.00     0.010 A 
HETATM   26  C   UNL     1     -41.959  60.202 -61.392  1.00  0.00     0.152 A 
HETATM   27  N   UNL     1     -41.576  61.479 -61.480  1.00  0.00    -0.187 NA
HETATM   28  N   UNL     1     -41.373  61.833 -60.203  1.00  0.00    -0.289 N 
HETATM   29  H   UNL     1     -41.059  62.779 -60.011  1.00  0.00     0.188 HD
HETATM   30  C   UNL     1     -41.620  60.829 -59.312  1.00  0.00     0.123 A 
ENDBRANCH  21  25
ENDBRANCH   2  19
TORSDOF 6
ENDMDL
MODEL 7
REMARK VINA RESULT:      -8.1      2.471      9.012
REMARK  6 active torsions:
REMARK  status: ('A' for Active; 'I' for Inactive)
REMARK    1  A    between atoms: C_5  and  C_6 
REMARK    2  A    between atoms: C_6  and  N_7 
REMARK    3  A    between atoms: C_6  and  C_11 
REMARK       I    between atoms: N_7  and  C_8 
REMARK    4  A    between atoms: C_11  and  C_12 
REMARK       I    between atoms: C_12  and  N_13 
REMARK    5  A    between atoms: N_13  and  C_14 
REMARK    6  A    between atoms: C_16  and  C_17 
ROOT
HETATM    1  C   UNL     1     -42.786  56.520 -55.578  1.00  0.00     0.224 C 
HETATM    2  N   UNL     1     -41.509  56.013 -55.416  1.00  0.00    -0.327 N 
HETATM    3  O   UNL     1     -43.805  56.124 -55.019  1.00  0.00    -0.273 OA
HETATM    4  H   UNL     1     -40.770  56.494 -55.917  1.00  0.00     0.169 HD
ENDROOT
BRANCH   1   5
HETATM    5  C   UNL     1     -42.849  57.623 -56.613  1.00  0.00     0.133 C 
BRANCH   5   6
HETATM    6  C   UNL     1     -42.156  57.200 -57.912  1.00  0.00     0.126 C 
BRANCH   6   7
HETATM    7  C   UNL     1     -41.975  58.400 -58.829  1.00  0.00    -0.035 A 
HETATM    8  C   UNL     1     -41.991  58.277 -60.226  1.00  0.00     0.010 A 
HETATM    9  C   UNL     1     -41.877  59.403 -61.045  1.00  0.00     0.007 A 
HETATM   10  C   UNL     1     -41.747  60.679 -60.487  1.00  0.00    -0.062 A 
HETATM   11  C   UNL     1     -41.679  61.888 -61.372  1.00  0.00     0.048 C 
HETATM   12  C   UNL     1     -41.748  60.812 -59.095  1.00  0.00     0.007 A 
HETATM   13  C   UNL     1     -41.855  59.685 -58.275  1.00  0.00     0.010 A 
ENDBRANCH   6   7
BRANCH   6  14
HETATM   14  N   UNL     1     -42.750  56.066 -58.625  1.00  0.00    -0.352 N 
HETATM   15  C   UNL     1     -44.058  55.958 -59.029  1.00  0.00     0.214 C 
HETATM   16  C   UNL     1     -44.342  54.688 -59.787  1.00  0.00     0.117 C 
HETATM   17  O   UNL     1     -44.926  56.799 -58.820  1.00  0.00    -0.274 OA
HETATM   18  H   UNL     1     -42.097  55.365 -58.946  1.00  0.00     0.163 HD
ENDBRANCH   6  14
ENDBRANCH   5   6
ENDBRANCH   1   5
BRANCH   2  19
HETATM   19  C   UNL     1     -41.096  54.951 -54.586  1.00  0.00     0.035 A 
HETATM   20  C   UNL     1     -41.201  54.959 -53.193  1.00  0.00     0.042 A 
HETATM   21  C   UNL     1     -40.761  53.865 -52.426  1.00  0.00    -0.021 A 
HETATM   22  C   UNL     1     -40.229  52.748 -53.084  1.00  0.00     0.012 A 
HETATM   23  C   UNL     1     -40.122  52.731 -54.474  1.00  0.00     0.003 A 
HETATM   24  C   UNL     1     -40.544  53.831 -55.219  1.00  0.00     0.029 A 
BRANCH  21  25
HETATM   25  C   UNL     1     -40.859  53.907 -50.975  1.00  0.00     0.010 A 
HETATM   26  C   UNL     1     -41.527  54.815 -50.116  1.00  0.00     0.152 A 
HETATM   27  N   UNL     1     -41.358  54.526 -48.823  1.00  0.00    -0.187 NA
HETATM   28  N   UNL     1     -40.573  53.439 -48.845  1.00  0.00    -0.289 N 
HETATM   29  H   UNL     1     -40.292  53.031 -47.959  1.00  0.00     0.188 HD
HETATM   30  C   UNL     1     -40.246  53.029 -50.105  1.00  0.00     0.123 A 
ENDBRANCH  21  25
ENDBRANCH   2  19
TORSDOF 6
ENDMDL
MODEL 8
REMARK VINA RESULT:      -8.1      2.771      8.435
REMARK  6 active torsions:
REMARK  status: ('A' for Active; 'I' for Inactive)
REMARK    1  A    between atoms: C_5  and  C_6 
REMARK    2  A    between atoms: C_6  and  N_7 
REMARK    3  A    between atoms: C_6  and  C_11 
REMARK       I    between atoms: N_7  and  C_8 
REMARK    4  A    between atoms: C_11  and  C_12 
REMARK       I    between atoms: C_12  and  N_13 
REMARK    5  A    between atoms: N_13  and  C_14 
REMARK    6  A    between atoms: C_16  and  C_17 
ROOT
HETATM    1  C   UNL     1     -42.590  55.029 -56.146  1.00  0.00     0.224 C 
HETATM    2  N   UNL     1     -41.395  55.117 -55.454  1.00  0.00    -0.327 N 
HETATM    3  O   UNL     1     -43.576  54.374 -55.820  1.00  0.00    -0.273 OA
HETATM    4  H   UNL     1     -40.700  55.748 -55.840  1.00  0.00     0.169 HD
ENDROOT
BRANCH   1   5
HETATM    5  C   UNL     1     -42.565  55.793 -57.453  1.00  0.00     0.133 C 
BRANCH   5   6
HETATM    6  C   UNL     1     -43.562  56.956 -57.430  1.00  0.00     0.126 C 
BRANCH   6   7
HETATM    7  C   UNL     1     -43.121  58.049 -58.393  1.00  0.00    -0.035 A 
HETATM    8  C   UNL     1     -42.201  59.040 -58.020  1.00  0.00     0.010 A 
HETATM    9  C   UNL     1     -41.772  60.000 -58.941  1.00  0.00     0.007 A 
HETATM   10  C   UNL     1     -42.249  59.989 -60.255  1.00  0.00    -0.062 A 
HETATM   11  C   UNL     1     -41.742  60.989 -61.251  1.00  0.00     0.048 C 
HETATM   12  C   UNL     1     -43.152  58.993 -60.639  1.00  0.00     0.007 A 
HETATM   13  C   UNL     1     -43.588  58.037 -59.717  1.00  0.00     0.010 A 
ENDBRANCH   6   7
BRANCH   6  14
HETATM   14  N   UNL     1     -43.890  57.504 -56.112  1.00  0.00    -0.352 N 
HETATM   15  C   UNL     1     -45.067  58.117 -55.757  1.00  0.00     0.214 C 
HETATM   16  C   UNL     1     -45.112  58.524 -54.308  1.00  0.00     0.117 C 
HETATM   17  O   UNL     1     -46.008  58.315 -56.519  1.00  0.00    -0.274 OA
HETATM   18  H   UNL     1     -43.227  57.296 -55.377  1.00  0.00     0.163 HD
ENDBRANCH   6  14
ENDBRANCH   5   6
ENDBRANCH   1   5
BRANCH   2  19
HETATM   19  C   UNL     1     -41.047  54.491 -54.241  1.00  0.00     0.035 A 
HETATM   20  C   UNL     1     -40.613  53.166 -54.138  1.00  0.00     0.042 A 
HETATM   21  C   UNL     1     -40.289  52.603 -52.891  1.00  0.00    -0.021 A 
HETATM   22  C   UNL     1     -40.388  53.400 -51.743  1.00  0.00     0.012 A 
HETATM   23  C   UNL     1     -40.818  54.723 -51.836  1.00  0.00     0.003 A 
HETATM   24  C   UNL     1     -41.155  55.262 -53.077  1.00  0.00     0.029 A 
BRANCH  21  25
HETATM   25  C   UNL     1     -39.864  51.214 -52.808  1.00  0.00     0.010 A 
HETATM   26  C   UNL     1     -39.717  50.227 -53.814  1.00  0.00     0.152 A 
HETATM   27  N   UNL     1     -39.321  49.047 -53.329  1.00  0.00    -0.187 NA
HETATM   28  N   UNL     1     -39.223  49.267 -52.010  1.00  0.00    -0.289 N 
HETATM   29  H   UNL     1     -38.942  48.496 -51.414  1.00  0.00     0.188 HD
HETATM   30  C   UNL     1     -39.536  50.545 -51.646  1.00  0.00     0.123 A 
ENDBRANCH  21  25
ENDBRANCH   2  19
TORSDOF 6
ENDMDL
MODEL 9
REMARK VINA RESULT:      -8.0      3.368      8.972
REMARK  6 active torsions:
REMARK  status: ('A' for Active; 'I' for Inactive)
REMARK    1  A    between atoms: C_5  and  C_6 
REMARK    2  A    between atoms: C_6  and  N_7 
REMARK    3  A    between atoms: C_6  and  C_11 
REMARK       I    between atoms: N_7  and  C_8 
REMARK    4  A    between atoms: C_11  and  C_12 
REMARK       I    between atoms: C_12  and  N_13 
REMARK    5  A    between atoms: N_13  and  C_14 
REMARK    6  A    between atoms: C_16  and  C_17 
ROOT
HETATM    1  C   UNL     1     -42.932  55.915 -58.275  1.00  0.00     0.224 C 
HETATM    2  N   UNL     1     -42.234  56.163 -57.106  1.00  0.00    -0.327 N 
HETATM    3  O   UNL     1     -43.802  55.065 -58.440  1.00  0.00    -0.273 OA
HETATM    4  H   UNL     1     -41.584  56.941 -57.129  1.00  0.00     0.169 HD
ENDROOT
BRANCH   1   5
HETATM    5  C   UNL     1     -42.464  56.778 -59.427  1.00  0.00     0.133 C 
BRANCH   5   6
HETATM    6  C   UNL     1     -43.383  57.989 -59.618  1.00  0.00     0.126 C 
BRANCH   6   7
HETATM    7  C   UNL     1     -42.593  59.281 -59.469  1.00  0.00    -0.035 A 
HETATM    8  C   UNL     1     -42.101  59.712 -58.228  1.00  0.00     0.010 A 
HETATM    9  C   UNL     1     -41.332  60.874 -58.128  1.00  0.00     0.007 A 
HETATM   10  C   UNL     1     -41.033  61.630 -59.266  1.00  0.00    -0.062 A 
HETATM   11  C   UNL     1     -40.161  62.846 -59.158  1.00  0.00     0.048 C 
HETATM   12  C   UNL     1     -41.503  61.196 -60.509  1.00  0.00     0.007 A 
HETATM   13  C   UNL     1     -42.280  60.038 -60.609  1.00  0.00     0.010 A 
ENDBRANCH   6   7
BRANCH   6  14
HETATM   14  N   UNL     1     -44.603  58.011 -58.807  1.00  0.00    -0.352 N 
HETATM   15  C   UNL     1     -45.891  57.925 -59.276  1.00  0.00     0.214 C 
HETATM   16  C   UNL     1     -46.923  57.923 -58.180  1.00  0.00     0.117 C 
HETATM   17  O   UNL     1     -46.198  57.843 -60.461  1.00  0.00    -0.274 OA
HETATM   18  H   UNL     1     -44.461  57.964 -57.807  1.00  0.00     0.163 HD
ENDBRANCH   6  14
ENDBRANCH   5   6
ENDBRANCH   1   5
BRANCH   2  19
HETATM   19  C   UNL     1     -42.365  55.512 -55.863  1.00  0.00     0.035 A 
HETATM   20  C   UNL     1     -41.494  54.521 -55.402  1.00  0.00     0.042 A 
HETATM   21  C   UNL     1     -41.689  53.907 -54.152  1.00  0.00    -0.021 A 
HETATM   22  C   UNL     1     -42.766  54.320 -53.357  1.00  0.00     0.012 A 
HETATM   23  C   UNL     1     -43.640  55.309 -53.808  1.00  0.00     0.003 A 
HETATM   24  C   UNL     1     -43.444  55.895 -55.059  1.00  0.00     0.029 A 
BRANCH  21  25
HETATM   25  C   UNL     1     -40.783  52.860 -53.705  1.00  0.00     0.010 A 
HETATM   26  C   UNL     1     -40.312  51.698 -54.365  1.00  0.00     0.152 A 
HETATM   27  N   UNL     1     -39.499  50.962 -53.601  1.00  0.00    -0.187 NA
HETATM   28  N   UNL     1     -39.454  51.642 -52.447  1.00  0.00    -0.289 N 
HETATM   29  H   UNL     1     -38.894  51.265 -51.689  1.00  0.00     0.188 HD
HETATM   30  C   UNL     1     -40.203  52.782 -52.456  1.00  0.00     0.123 A 
ENDBRANCH  21  25
ENDBRANCH   2  19
TORSDOF 6
ENDMDL
MODEL 10
REMARK VINA RESULT:      -7.9      3.037      7.086
REMARK  6 active torsions:
REMARK  status: ('A' for Active; 'I' for Inactive)
REMARK    1  A    between atoms: C_5  and  C_6 
REMARK    2  A    between atoms: C_6  and  N_7 
REMARK    3  A    between atoms: C_6  and  C_11 
REMARK       I    between atoms: N_7  and  C_8 
REMARK    4  A    between atoms: C_11  and  C_12 
REMARK       I    between atoms: C_12  and  N_13 
REMARK    5  A    between atoms: N_13  and  C_14 
REMARK    6  A    between atoms: C_16  and  C_17 
ROOT
HETATM    1  C   UNL     1     -43.015  56.406 -51.668  1.00  0.00     0.224 C 
HETATM    2  N   UNL     1     -43.124  55.432 -52.645  1.00  0.00    -0.327 N 
HETATM    3  O   UNL     1     -41.973  56.882 -51.224  1.00  0.00    -0.273 OA
HETATM    4  H   UNL     1     -44.067  55.190 -52.931  1.00  0.00     0.169 HD
ENDROOT
BRANCH   1   5
HETATM    5  C   UNL     1     -44.357  56.818 -51.102  1.00  0.00     0.133 C 
BRANCH   5   6
HETATM    6  C   UNL     1     -44.731  58.236 -51.547  1.00  0.00     0.126 C 
BRANCH   6   7
HETATM    7  C   UNL     1     -44.414  58.427 -53.024  1.00  0.00    -0.035 A 
HETATM    8  C   UNL     1     -45.149  57.782 -54.030  1.00  0.00     0.010 A 
HETATM    9  C   UNL     1     -44.873  58.017 -55.379  1.00  0.00     0.007 A 
HETATM   10  C   UNL     1     -43.859  58.905 -55.754  1.00  0.00    -0.062 A 
HETATM   11  C   UNL     1     -43.605  59.192 -57.204  1.00  0.00     0.048 C 
HETATM   12  C   UNL     1     -43.136  59.565 -54.757  1.00  0.00     0.007 A 
HETATM   13  C   UNL     1     -43.406  59.325 -53.407  1.00  0.00     0.010 A 
ENDBRANCH   6   7
BRANCH   6  14
HETATM   14  N   UNL     1     -44.193  59.333 -50.738  1.00  0.00    -0.352 N 
HETATM   15  C   UNL     1     -44.924  60.311 -50.109  1.00  0.00     0.214 C 
HETATM   16  C   UNL     1     -44.076  61.264 -49.311  1.00  0.00     0.117 C 
HETATM   17  O   UNL     1     -46.145  60.413 -50.163  1.00  0.00    -0.274 OA
HETATM   18  H   UNL     1     -43.204  59.279 -50.536  1.00  0.00     0.163 HD
ENDBRANCH   6  14
ENDBRANCH   5   6
ENDBRANCH   1   5
BRANCH   2  19
HETATM   19  C   UNL     1     -42.086  54.781 -53.340  1.00  0.00     0.035 A 
HETATM   20  C   UNL     1     -41.639  53.489 -53.051  1.00  0.00     0.042 A 
HETATM   21  C   UNL     1     -40.591  52.902 -53.784  1.00  0.00    -0.021 A 
HETATM   22  C   UNL     1     -40.009  53.629 -54.831  1.00  0.00     0.012 A 
HETATM   23  C   UNL     1     -40.450  54.919 -55.128  1.00  0.00     0.003 A 
HETATM   24  C   UNL     1     -41.477  55.493 -54.379  1.00  0.00     0.029 A 
BRANCH  21  25
HETATM   25  C   UNL     1     -40.127  51.565 -53.447  1.00  0.00     0.010 A 
HETATM   26  C   UNL     1     -40.025  50.393 -54.237  1.00  0.00     0.152 A 
HETATM   27  N   UNL     1     -39.567  49.343 -53.549  1.00  0.00    -0.187 NA
HETATM   28  N   UNL     1     -39.384  49.833 -52.315  1.00  0.00    -0.289 N 
HETATM   29  H   UNL     1     -39.042  49.205 -51.594  1.00  0.00     0.188 HD
HETATM   30  C   UNL     1     -39.703  51.155 -52.200  1.00  0.00     0.123 A 
ENDBRANCH  21  25
ENDBRANCH   2  19
TORSDOF 6
ENDMDL
