MODEL 1
REMARK VINA RESULT:      -7.4      0.000      0.000
REMARK  3 active torsions:
REMARK  status: ('A' for Active; 'I' for Inactive)
REMARK    1  A    between atoms: C_2  and  N_3 
REMARK    2  A    between atoms: N_3  and  C_4 
REMARK    3  A    between atoms: C_12  and  C_13 
ROOT
HETATM    1  C   UNL     1     -42.000  56.757 -53.565  1.00  0.00     0.139 A 
HETATM    2  N   UNL     1     -42.170  57.608 -54.599  1.00  0.00    -0.224 NA
HETATM    3  C   UNL     1     -41.954  58.917 -54.425  1.00  0.00     0.236 A 
HETATM    4  N   UNL     1     -41.566  59.529 -53.310  1.00  0.00    -0.234 NA
HETATM    5  C   UNL     1     -41.369  58.667 -52.300  1.00  0.00     0.113 A 
HETATM    6  C   UNL     1     -41.542  57.287 -52.331  1.00  0.00     0.055 A 
HETATM    7  S   UNL     1     -40.851  59.248 -50.789  1.00  0.00    -0.081 SA
HETATM    8  C   UNL     1     -40.799  57.677 -50.140  1.00  0.00     0.062 A 
HETATM    9  C   UNL     1     -41.169  56.698 -51.048  1.00  0.00    -0.003 A 
ENDROOT
BRANCH   9  10
HETATM   10  C   UNL     1     -41.148  55.230 -50.688  1.00  0.00     0.188 C 
HETATM   11  O   UNL     1     -40.164  54.512 -51.456  1.00  0.00    -0.336 OA
HETATM   12  C   UNL     1     -40.128  53.194 -51.067  1.00  0.00     0.103 A 
HETATM   13  C   UNL     1     -40.615  52.752 -49.831  1.00  0.00     0.102 A 
HETATM   14  C   UNL     1     -39.584  52.286 -51.971  1.00  0.00     0.040 A 
HETATM   15  O   UNL     1     -41.155  53.586 -48.885  1.00  0.00    -0.345 OA
HETATM   16  C   UNL     1     -40.592  51.393 -49.521  1.00  0.00     0.039 A 
HETATM   17  C   UNL     1     -40.928  54.971 -49.195  1.00  0.00     0.213 C 
HETATM   18  C   UNL     1     -40.064  50.480 -50.435  1.00  0.00     0.003 A 
HETATM   19  C   UNL     1     -39.557  50.926 -51.657  1.00  0.00     0.003 A 
ENDBRANCH   9  10
BRANCH   1  20
HETATM   20  N   UNL     1     -42.260  55.404 -53.727  1.00  0.00    -0.366 N 
HETATM   21  H   UNL     1     -43.243  55.201 -53.548  1.00  0.00     0.162 HD
BRANCH  20  22
HETATM   22  C   UNL     1     -41.675  54.580 -54.796  1.00  0.00     0.021 C 
HETATM   23  C   UNL     1     -40.162  54.814 -54.921  1.00  0.00     0.037 C 
HETATM   24  C   UNL     1     -42.390  54.796 -56.137  1.00  0.00     0.037 C 
HETATM   25  C   UNL     1     -41.884  53.110 -54.374  1.00  0.00     0.037 C 
ENDBRANCH  20  22
ENDBRANCH   1  20
TORSDOF 3
ENDMDL
MODEL 2
REMARK VINA RESULT:      -7.2      2.794      5.682
REMARK  3 active torsions:
REMARK  status: ('A' for Active; 'I' for Inactive)
REMARK    1  A    between atoms: C_2  and  N_3 
REMARK    2  A    between atoms: N_3  and  C_4 
REMARK    3  A    between atoms: C_12  and  C_13 
ROOT
HETATM    1  C   UNL     1     -40.836  54.172 -53.947  1.00  0.00     0.139 A 
HETATM    2  N   UNL     1     -40.514  53.081 -54.675  1.00  0.00    -0.224 NA
HETATM    3  C   UNL     1     -40.096  51.970 -54.058  1.00  0.00     0.236 A 
HETATM    4  N   UNL     1     -39.953  51.780 -52.749  1.00  0.00    -0.234 NA
HETATM    5  C   UNL     1     -40.308  52.861 -52.038  1.00  0.00     0.113 A 
HETATM    6  C   UNL     1     -40.767  54.077 -52.533  1.00  0.00     0.055 A 
HETATM    7  S   UNL     1     -40.216  52.816 -50.341  1.00  0.00    -0.081 SA
HETATM    8  C   UNL     1     -40.824  54.399 -50.210  1.00  0.00     0.062 A 
HETATM    9  C   UNL     1     -41.105  54.980 -51.437  1.00  0.00    -0.003 A 
ENDROOT
BRANCH   9  10
HETATM   10  C   UNL     1     -41.697  56.367 -51.543  1.00  0.00     0.188 C 
HETATM   11  O   UNL     1     -43.092  56.374 -51.187  1.00  0.00    -0.336 OA
HETATM   12  C   UNL     1     -43.587  57.655 -51.238  1.00  0.00     0.103 A 
HETATM   13  C   UNL     1     -42.770  58.790 -51.178  1.00  0.00     0.102 A 
HETATM   14  C   UNL     1     -44.968  57.790 -51.361  1.00  0.00     0.040 A 
HETATM   15  O   UNL     1     -41.406  58.737 -51.047  1.00  0.00    -0.345 OA
HETATM   16  C   UNL     1     -43.336  60.059 -51.285  1.00  0.00     0.039 A 
HETATM   17  C   UNL     1     -40.946  57.416 -50.718  1.00  0.00     0.213 C 
HETATM   18  C   UNL     1     -44.718  60.195 -51.428  1.00  0.00     0.003 A 
HETATM   19  C   UNL     1     -45.533  59.062 -51.462  1.00  0.00     0.003 A 
ENDBRANCH   9  10
BRANCH   1  20
HETATM   20  N   UNL     1     -41.232  55.341 -54.583  1.00  0.00    -0.366 N 
HETATM   21  H   UNL     1     -40.495  55.684 -55.198  1.00  0.00     0.162 HD
BRANCH  20  22
HETATM   22  C   UNL     1     -42.589  55.570 -55.103  1.00  0.00     0.021 C 
HETATM   23  C   UNL     1     -43.636  54.773 -54.312  1.00  0.00     0.037 C 
HETATM   24  C   UNL     1     -42.678  55.279 -56.607  1.00  0.00     0.037 C 
HETATM   25  C   UNL     1     -42.887  57.070 -54.888  1.00  0.00     0.037 C 
ENDBRANCH  20  22
ENDBRANCH   1  20
TORSDOF 3
ENDMDL
MODEL 3
REMARK VINA RESULT:      -7.2      3.350      6.673
REMARK  3 active torsions:
REMARK  status: ('A' for Active; 'I' for Inactive)
REMARK    1  A    between atoms: C_2  and  N_3 
REMARK    2  A    between atoms: N_3  and  C_4 
REMARK    3  A    between atoms: C_12  and  C_13 
ROOT
HETATM    1  C   UNL     1     -40.591  52.112 -50.687  1.00  0.00     0.139 A 
HETATM    2  N   UNL     1     -40.091  51.001 -50.105  1.00  0.00    -0.224 NA
HETATM    3  C   UNL     1     -39.539  50.046 -50.861  1.00  0.00     0.236 A 
HETATM    4  N   UNL     1     -39.401  50.044 -52.184  1.00  0.00    -0.234 NA
HETATM    5  C   UNL     1     -39.872  51.168 -52.745  1.00  0.00     0.113 A 
HETATM    6  C   UNL     1     -40.462  52.246 -52.094  1.00  0.00     0.055 A 
HETATM    7  S   UNL     1     -39.773  51.371 -54.430  1.00  0.00    -0.081 SA
HETATM    8  C   UNL     1     -40.473  52.918 -54.341  1.00  0.00     0.062 A 
HETATM    9  C   UNL     1     -40.789  53.302 -53.047  1.00  0.00    -0.003 A 
ENDROOT
BRANCH   9  10
HETATM   10  C   UNL     1     -41.378  54.660 -52.742  1.00  0.00     0.188 C 
HETATM   11  O   UNL     1     -40.762  55.692 -53.535  1.00  0.00    -0.336 OA
HETATM   12  C   UNL     1     -41.355  56.905 -53.277  1.00  0.00     0.103 A 
HETATM   13  C   UNL     1     -42.631  57.024 -52.713  1.00  0.00     0.102 A 
HETATM   14  C   UNL     1     -40.622  58.044 -53.599  1.00  0.00     0.040 A 
HETATM   15  O   UNL     1     -43.416  55.949 -52.379  1.00  0.00    -0.345 OA
HETATM   16  C   UNL     1     -43.152  58.286 -52.434  1.00  0.00     0.039 A 
HETATM   17  C   UNL     1     -42.899  54.718 -52.909  1.00  0.00     0.213 C 
HETATM   18  C   UNL     1     -42.411  59.428 -52.737  1.00  0.00     0.003 A 
HETATM   19  C   UNL     1     -41.148  59.308 -53.323  1.00  0.00     0.003 A 
ENDBRANCH   9  10
BRANCH   1  20
HETATM   20  N   UNL     1     -41.201  53.089 -49.913  1.00  0.00    -0.366 N 
HETATM   21  H   UNL     1     -41.984  52.698 -49.389  1.00  0.00     0.162 HD
BRANCH  20  22
HETATM   22  C   UNL     1     -40.465  54.131 -49.180  1.00  0.00     0.021 C 
HETATM   23  C   UNL     1     -39.097  54.406 -49.820  1.00  0.00     0.037 C 
HETATM   24  C   UNL     1     -40.331  53.792 -47.690  1.00  0.00     0.037 C 
HETATM   25  C   UNL     1     -41.304  55.421 -49.304  1.00  0.00     0.037 C 
ENDBRANCH  20  22
ENDBRANCH   1  20
TORSDOF 3
ENDMDL
MODEL 4
REMARK VINA RESULT:      -7.0     15.164     17.029
REMARK  3 active torsions:
REMARK  status: ('A' for Active; 'I' for Inactive)
REMARK    1  A    between atoms: C_2  and  N_3 
REMARK    2  A    between atoms: N_3  and  C_4 
REMARK    3  A    between atoms: C_12  and  C_13 
ROOT
HETATM    1  C   UNL     1     -32.878  40.369 -52.907  1.00  0.00     0.139 A 
HETATM    2  N   UNL     1     -31.949  40.005 -51.997  1.00  0.00    -0.224 NA
HETATM    3  C   UNL     1     -32.312  39.793 -50.726  1.00  0.00     0.236 A 
HETATM    4  N   UNL     1     -33.533  39.891 -50.209  1.00  0.00    -0.234 NA
HETATM    5  C   UNL     1     -34.450  40.222 -51.131  1.00  0.00     0.113 A 
HETATM    6  C   UNL     1     -34.229  40.463 -52.484  1.00  0.00     0.055 A 
HETATM    7  S   UNL     1     -36.080  40.380 -50.676  1.00  0.00    -0.081 SA
HETATM    8  C   UNL     1     -36.550  40.734 -52.272  1.00  0.00     0.062 A 
HETATM    9  C   UNL     1     -35.490  40.736 -53.166  1.00  0.00    -0.003 A 
ENDROOT
BRANCH   9  10
HETATM   10  C   UNL     1     -35.697  40.982 -54.643  1.00  0.00     0.188 C 
HETATM   11  O   UNL     1     -36.996  40.536 -55.075  1.00  0.00    -0.336 OA
HETATM   12  C   UNL     1     -37.177  40.824 -56.407  1.00  0.00     0.103 A 
HETATM   13  C   UNL     1     -36.429  41.795 -57.085  1.00  0.00     0.102 A 
HETATM   14  C   UNL     1     -38.150  40.092 -57.082  1.00  0.00     0.040 A 
HETATM   15  O   UNL     1     -35.462  42.562 -56.486  1.00  0.00    -0.345 OA
HETATM   16  C   UNL     1     -36.631  42.001 -58.448  1.00  0.00     0.039 A 
HETATM   17  C   UNL     1     -35.487  42.442 -55.055  1.00  0.00     0.213 C 
HETATM   18  C   UNL     1     -37.593  41.254 -59.129  1.00  0.00     0.003 A 
HETATM   19  C   UNL     1     -38.355  40.303 -58.447  1.00  0.00     0.003 A 
ENDBRANCH   9  10
BRANCH   1  20
HETATM   20  N   UNL     1     -32.503  40.629 -54.218  1.00  0.00    -0.366 N 
HETATM   21  H   UNL     1     -31.816  41.381 -54.254  1.00  0.00     0.162 HD
BRANCH  20  22
HETATM   22  C   UNL     1     -32.285  39.583 -55.229  1.00  0.00     0.021 C 
HETATM   23  C   UNL     1     -33.131  38.335 -54.938  1.00  0.00     0.037 C 
HETATM   24  C   UNL     1     -30.798  39.233 -55.375  1.00  0.00     0.037 C 
HETATM   25  C   UNL     1     -32.772  40.171 -56.572  1.00  0.00     0.037 C 
ENDBRANCH  20  22
ENDBRANCH   1  20
TORSDOF 3
ENDMDL
MODEL 5
REMARK VINA RESULT:      -7.0      3.137      4.424
REMARK  3 active torsions:
REMARK  status: ('A' for Active; 'I' for Inactive)
REMARK    1  A    between atoms: C_2  and  N_3 
REMARK    2  A    between atoms: N_3  and  C_4 
REMARK    3  A    between atoms: C_12  and  C_13 
ROOT
HETATM    1  C   UNL     1     -42.143  58.874 -57.370  1.00  0.00     0.139 A 
HETATM    2  N   UNL     1     -41.915  59.751 -58.371  1.00  0.00    -0.224 NA
HETATM    3  C   UNL     1     -42.073  61.062 -58.153  1.00  0.00     0.236 A 
HETATM    4  N   UNL     1     -42.437  61.653 -57.019  1.00  0.00    -0.234 NA
HETATM    5  C   UNL     1     -42.627  60.772 -56.026  1.00  0.00     0.113 A 
HETATM    6  C   UNL     1     -42.494  59.389 -56.095  1.00  0.00     0.055 A 
HETATM    7  S   UNL     1     -43.080  61.328 -54.485  1.00  0.00    -0.081 SA
HETATM    8  C   UNL     1     -43.073  59.750 -53.850  1.00  0.00     0.062 A 
HETATM    9  C   UNL     1     -42.729  58.786 -54.786  1.00  0.00    -0.003 A 
ENDROOT
BRANCH   9  10
HETATM   10  C   UNL     1     -42.618  57.325 -54.418  1.00  0.00     0.188 C 
HETATM   11  O   UNL     1     -41.329  56.788 -54.770  1.00  0.00    -0.336 OA
HETATM   12  C   UNL     1     -41.238  55.476 -54.373  1.00  0.00     0.103 A 
HETATM   13  C   UNL     1     -42.061  54.919 -53.387  1.00  0.00     0.102 A 
HETATM   14  C   UNL     1     -40.275  54.693 -55.006  1.00  0.00     0.040 A 
HETATM   15  O   UNL     1     -43.023  55.629 -52.713  1.00  0.00    -0.345 OA
HETATM   16  C   UNL     1     -41.947  53.568 -53.068  1.00  0.00     0.039 A 
HETATM   17  C   UNL     1     -42.911  57.043 -52.942  1.00  0.00     0.213 C 
HETATM   18  C   UNL     1     -40.996  52.778 -53.716  1.00  0.00     0.003 A 
HETATM   19  C   UNL     1     -40.159  53.340 -54.682  1.00  0.00     0.003 A 
ENDBRANCH   9  10
BRANCH   1  20
HETATM   20  N   UNL     1     -42.020  57.510 -57.599  1.00  0.00    -0.366 N 
HETATM   21  H   UNL     1     -41.621  57.042 -56.785  1.00  0.00     0.162 HD
BRANCH  20  22
HETATM   22  C   UNL     1     -43.028  56.705 -58.305  1.00  0.00     0.021 C 
HETATM   23  C   UNL     1     -42.596  56.403 -59.747  1.00  0.00     0.037 C 
HETATM   24  C   UNL     1     -44.415  57.360 -58.258  1.00  0.00     0.037 C 
HETATM   25  C   UNL     1     -43.111  55.358 -57.554  1.00  0.00     0.037 C 
ENDBRANCH  20  22
ENDBRANCH   1  20
TORSDOF 3
ENDMDL
MODEL 6
REMARK VINA RESULT:      -6.9      2.228      3.238
REMARK  3 active torsions:
REMARK  status: ('A' for Active; 'I' for Inactive)
REMARK    1  A    between atoms: C_2  and  N_3 
REMARK    2  A    between atoms: N_3  and  C_4 
REMARK    3  A    between atoms: C_12  and  C_13 
ROOT
HETATM    1  C   UNL     1     -44.216  58.528 -52.482  1.00  0.00     0.139 A 
HETATM    2  N   UNL     1     -45.022  59.598 -52.656  1.00  0.00    -0.224 NA
HETATM    3  C   UNL     1     -44.721  60.759 -52.062  1.00  0.00     0.236 A 
HETATM    4  N   UNL     1     -43.674  61.020 -51.286  1.00  0.00    -0.234 NA
HETATM    5  C   UNL     1     -42.866  59.958 -51.149  1.00  0.00     0.113 A 
HETATM    6  C   UNL     1     -43.038  58.696 -51.708  1.00  0.00     0.055 A 
HETATM    7  S   UNL     1     -41.457  60.090 -50.208  1.00  0.00    -0.081 SA
HETATM    8  C   UNL     1     -41.010  58.485 -50.548  1.00  0.00     0.062 A 
HETATM    9  C   UNL     1     -41.912  57.830 -51.373  1.00  0.00    -0.003 A 
ENDROOT
BRANCH   9  10
HETATM   10  C   UNL     1     -41.680  56.410 -51.836  1.00  0.00     0.188 C 
HETATM   11  O   UNL     1     -40.926  56.371 -53.062  1.00  0.00    -0.336 OA
HETATM   12  C   UNL     1     -40.683  55.068 -53.427  1.00  0.00     0.103 A 
HETATM   13  C   UNL     1     -40.741  54.001 -52.523  1.00  0.00     0.102 A 
HETATM   14  C   UNL     1     -40.374  54.837 -54.765  1.00  0.00     0.040 A 
HETATM   15  O   UNL     1     -41.028  54.150 -51.190  1.00  0.00    -0.345 OA
HETATM   16  C   UNL     1     -40.530  52.698 -52.972  1.00  0.00     0.039 A 
HETATM   17  C   UNL     1     -41.002  55.528 -50.783  1.00  0.00     0.213 C 
HETATM   18  C   UNL     1     -40.240  52.464 -54.316  1.00  0.00     0.003 A 
HETATM   19  C   UNL     1     -40.159  53.532 -55.211  1.00  0.00     0.003 A 
ENDBRANCH   9  10
BRANCH   1  20
HETATM   20  N   UNL     1     -44.542  57.310 -53.062  1.00  0.00    -0.366 N 
HETATM   21  H   UNL     1     -45.441  56.974 -52.716  1.00  0.00     0.162 HD
BRANCH  20  22
HETATM   22  C   UNL     1     -44.298  56.985 -54.476  1.00  0.00     0.021 C 
HETATM   23  C   UNL     1     -44.090  55.477 -54.678  1.00  0.00     0.037 C 
HETATM   24  C   UNL     1     -43.130  57.796 -55.052  1.00  0.00     0.037 C 
HETATM   25  C   UNL     1     -45.579  57.384 -55.240  1.00  0.00     0.037 C 
ENDBRANCH  20  22
ENDBRANCH   1  20
TORSDOF 3
ENDMDL
MODEL 7
REMARK VINA RESULT:      -6.9      3.032      4.068
REMARK  3 active torsions:
REMARK  status: ('A' for Active; 'I' for Inactive)
REMARK    1  A    between atoms: C_2  and  N_3 
REMARK    2  A    between atoms: N_3  and  C_4 
REMARK    3  A    between atoms: C_12  and  C_13 
ROOT
HETATM    1  C   UNL     1     -44.886  58.356 -55.598  1.00  0.00     0.139 A 
HETATM    2  N   UNL     1     -45.400  59.375 -56.320  1.00  0.00    -0.224 NA
HETATM    3  C   UNL     1     -45.787  60.497 -55.702  1.00  0.00     0.236 A 
HETATM    4  N   UNL     1     -45.725  60.763 -54.401  1.00  0.00    -0.234 NA
HETATM    5  C   UNL     1     -45.183  59.755 -53.701  1.00  0.00     0.113 A 
HETATM    6  C   UNL     1     -44.727  58.539 -54.200  1.00  0.00     0.055 A 
HETATM    7  S   UNL     1     -44.996  59.905 -52.018  1.00  0.00    -0.081 SA
HETATM    8  C   UNL     1     -44.265  58.374 -51.906  1.00  0.00     0.062 A 
HETATM    9  C   UNL     1     -44.150  57.732 -53.129  1.00  0.00    -0.003 A 
ENDROOT
BRANCH   9  10
HETATM   10  C   UNL     1     -43.488  56.379 -53.258  1.00  0.00     0.188 C 
HETATM   11  O   UNL     1     -42.219  56.476 -53.934  1.00  0.00    -0.336 OA
HETATM   12  C   UNL     1     -41.616  55.242 -53.985  1.00  0.00     0.103 A 
HETATM   13  C   UNL     1     -41.952  54.192 -53.122  1.00  0.00     0.102 A 
HETATM   14  C   UNL     1     -40.635  55.063 -54.958  1.00  0.00     0.040 A 
HETATM   15  O   UNL     1     -42.899  54.296 -52.134  1.00  0.00    -0.345 OA
HETATM   16  C   UNL     1     -41.333  52.952 -53.263  1.00  0.00     0.039 A 
HETATM   17  C   UNL     1     -43.308  55.657 -51.921  1.00  0.00     0.213 C 
HETATM   18  C   UNL     1     -40.365  52.765 -54.249  1.00  0.00     0.003 A 
HETATM   19  C   UNL     1     -40.013  53.820 -55.094  1.00  0.00     0.003 A 
ENDBRANCH   9  10
BRANCH   1  20
HETATM   20  N   UNL     1     -44.518  57.174 -56.227  1.00  0.00    -0.366 N 
HETATM   21  H   UNL     1     -45.321  56.553 -56.325  1.00  0.00     0.162 HD
BRANCH  20  22
HETATM   22  C   UNL     1     -43.580  57.106 -57.358  1.00  0.00     0.021 C 
HETATM   23  C   UNL     1     -42.352  57.997 -57.123  1.00  0.00     0.037 C 
HETATM   24  C   UNL     1     -44.269  57.436 -58.689  1.00  0.00     0.037 C 
HETATM   25  C   UNL     1     -43.088  55.644 -57.425  1.00  0.00     0.037 C 
ENDBRANCH  20  22
ENDBRANCH   1  20
TORSDOF 3
ENDMDL
MODEL 8
REMARK VINA RESULT:      -6.7      4.116      6.248
REMARK  3 active torsions:
REMARK  status: ('A' for Active; 'I' for Inactive)
REMARK    1  A    between atoms: C_2  and  N_3 
REMARK    2  A    between atoms: N_3  and  C_4 
REMARK    3  A    between atoms: C_12  and  C_13 
ROOT
HETATM    1  C   UNL     1     -43.106  56.540 -56.774  1.00  0.00     0.139 A 
HETATM    2  N   UNL     1     -43.210  55.600 -57.737  1.00  0.00    -0.224 NA
HETATM    3  C   UNL     1     -42.971  55.926 -59.013  1.00  0.00     0.236 A 
HETATM    4  N   UNL     1     -42.616  57.116 -59.487  1.00  0.00    -0.234 NA
HETATM    5  C   UNL     1     -42.484  58.032 -58.515  1.00  0.00     0.113 A 
HETATM    6  C   UNL     1     -42.688  57.842 -57.152  1.00  0.00     0.055 A 
HETATM    7  S   UNL     1     -42.017  59.617 -58.912  1.00  0.00    -0.081 SA
HETATM    8  C   UNL     1     -42.032  60.091 -57.279  1.00  0.00     0.062 A 
HETATM    9  C   UNL     1     -42.386  59.065 -56.415  1.00  0.00    -0.003 A 
ENDROOT
BRANCH   9  10
HETATM   10  C   UNL     1     -42.415  59.262 -54.917  1.00  0.00     0.188 C 
HETATM   11  O   UNL     1     -41.104  59.119 -54.340  1.00  0.00    -0.336 OA
HETATM   12  C   UNL     1     -41.153  59.359 -52.988  1.00  0.00     0.103 A 
HETATM   13  C   UNL     1     -42.189  60.076 -52.378  1.00  0.00     0.102 A 
HETATM   14  C   UNL     1     -40.111  58.845 -52.220  1.00  0.00     0.040 A 
HETATM   15  O   UNL     1     -43.242  60.622 -53.068  1.00  0.00    -0.345 OA
HETATM   16  C   UNL     1     -42.200  60.240 -50.994  1.00  0.00     0.039 A 
HETATM   17  C   UNL     1     -43.026  60.599 -54.489  1.00  0.00     0.213 C 
HETATM   18  C   UNL     1     -41.167  59.708 -50.222  1.00  0.00     0.003 A 
HETATM   19  C   UNL     1     -40.122  59.014 -50.834  1.00  0.00     0.003 A 
ENDBRANCH   9  10
BRANCH   1  20
HETATM   20  N   UNL     1     -43.391  56.218 -55.454  1.00  0.00    -0.366 N 
HETATM   21  H   UNL     1     -44.377  55.980 -55.346  1.00  0.00     0.162 HD
BRANCH  20  22
HETATM   22  C   UNL     1     -42.497  55.431 -54.591  1.00  0.00     0.021 C 
HETATM   23  C   UNL     1     -41.022  55.672 -54.942  1.00  0.00     0.037 C 
HETATM   24  C   UNL     1     -42.846  53.937 -54.624  1.00  0.00     0.037 C 
HETATM   25  C   UNL     1     -42.722  55.943 -53.152  1.00  0.00     0.037 C 
ENDBRANCH  20  22
ENDBRANCH   1  20
TORSDOF 3
ENDMDL
MODEL 9
REMARK VINA RESULT:      -6.7      3.082      6.398
REMARK  3 active torsions:
REMARK  status: ('A' for Active; 'I' for Inactive)
REMARK    1  A    between atoms: C_2  and  N_3 
REMARK    2  A    between atoms: N_3  and  C_4 
REMARK    3  A    between atoms: C_12  and  C_13 
ROOT
HETATM    1  C   UNL     1     -41.215  56.981 -52.873  1.00  0.00     0.139 A 
HETATM    2  N   UNL     1     -41.141  56.525 -51.604  1.00  0.00    -0.224 NA
HETATM    3  C   UNL     1     -41.478  57.329 -50.589  1.00  0.00     0.236 A 
HETATM    4  N   UNL     1     -41.907  58.585 -50.663  1.00  0.00    -0.234 NA
HETATM    5  C   UNL     1     -42.007  59.014 -51.931  1.00  0.00     0.113 A 
HETATM    6  C   UNL     1     -41.705  58.297 -53.084  1.00  0.00     0.055 A 
HETATM    7  S   UNL     1     -42.557  60.591 -52.243  1.00  0.00    -0.081 SA
HETATM    8  C   UNL     1     -42.451  60.356 -53.924  1.00  0.00     0.062 A 
HETATM    9  C   UNL     1     -42.002  59.091 -54.272  1.00  0.00    -0.003 A 
ENDROOT
BRANCH   9  10
HETATM   10  C   UNL     1     -41.880  58.660 -55.715  1.00  0.00     0.188 C 
HETATM   11  O   UNL     1     -42.797  57.596 -56.028  1.00  0.00    -0.336 OA
HETATM   12  C   UNL     1     -42.703  57.265 -57.358  1.00  0.00     0.103 A 
HETATM   13  C   UNL     1     -42.164  58.126 -58.322  1.00  0.00     0.102 A 
HETATM   14  C   UNL     1     -43.168  56.005 -57.727  1.00  0.00     0.040 A 
HETATM   15  O   UNL     1     -41.697  59.384 -58.037  1.00  0.00    -0.345 OA
HETATM   16  C   UNL     1     -42.054  57.706 -59.646  1.00  0.00     0.039 A 
HETATM   17  C   UNL     1     -42.058  59.808 -56.713  1.00  0.00     0.213 C 
HETATM   18  C   UNL     1     -42.501  56.436 -60.012  1.00  0.00     0.003 A 
HETATM   19  C   UNL     1     -43.061  55.588 -59.055  1.00  0.00     0.003 A 
ENDBRANCH   9  10
BRANCH   1  20
HETATM   20  N   UNL     1     -40.831  56.167 -53.929  1.00  0.00    -0.366 N 
HETATM   21  H   UNL     1     -39.844  56.304 -54.150  1.00  0.00     0.162 HD
BRANCH  20  22
HETATM   22  C   UNL     1     -41.283  54.778 -54.099  1.00  0.00     0.021 C 
HETATM   23  C   UNL     1     -42.816  54.686 -54.125  1.00  0.00     0.037 C 
HETATM   24  C   UNL     1     -40.683  53.850 -53.035  1.00  0.00     0.037 C 
HETATM   25  C   UNL     1     -40.767  54.319 -55.479  1.00  0.00     0.037 C 
ENDBRANCH  20  22
ENDBRANCH   1  20
TORSDOF 3
ENDMDL
MODEL 10
REMARK VINA RESULT:      -6.7      1.953      3.149
REMARK  3 active torsions:
REMARK  status: ('A' for Active; 'I' for Inactive)
REMARK    1  A    between atoms: C_2  and  N_3 
REMARK    2  A    between atoms: N_3  and  C_4 
REMARK    3  A    between atoms: C_12  and  C_13 
ROOT
HETATM    1  C   UNL     1     -42.158  58.451 -55.057  1.00  0.00     0.139 A 
HETATM    2  N   UNL     1     -42.327  59.730 -55.455  1.00  0.00    -0.224 NA
HETATM    3  C   UNL     1     -42.531  60.688 -54.543  1.00  0.00     0.236 A 
HETATM    4  N   UNL     1     -42.587  60.544 -53.222  1.00  0.00    -0.234 NA
HETATM    5  C   UNL     1     -42.385  59.274 -52.840  1.00  0.00     0.113 A 
HETATM    6  C   UNL     1     -42.152  58.178 -53.664  1.00  0.00     0.055 A 
HETATM    7  S   UNL     1     -42.399  58.882 -51.186  1.00  0.00    -0.081 SA
HETATM    8  C   UNL     1     -42.053  57.249 -51.513  1.00  0.00     0.062 A 
HETATM    9  C   UNL     1     -41.922  56.978 -52.866  1.00  0.00    -0.003 A 
ENDROOT
BRANCH   9  10
HETATM   10  C   UNL     1     -41.569  55.597 -53.370  1.00  0.00     0.188 C 
HETATM   11  O   UNL     1     -40.963  54.797 -52.337  1.00  0.00    -0.336 OA
HETATM   12  C   UNL     1     -40.706  53.532 -52.808  1.00  0.00     0.103 A 
HETATM   13  C   UNL     1     -41.353  52.988 -53.924  1.00  0.00     0.102 A 
HETATM   14  C   UNL     1     -39.749  52.789 -52.122  1.00  0.00     0.040 A 
HETATM   15  O   UNL     1     -42.313  53.654 -54.644  1.00  0.00    -0.345 OA
HETATM   16  C   UNL     1     -41.008  51.716 -54.376  1.00  0.00     0.039 A 
HETATM   17  C   UNL     1     -42.758  54.846 -53.976  1.00  0.00     0.213 C 
HETATM   18  C   UNL     1     -40.034  50.978 -53.701  1.00  0.00     0.003 A 
HETATM   19  C   UNL     1     -39.408  51.512 -52.573  1.00  0.00     0.003 A 
ENDBRANCH   9  10
BRANCH   1  20
HETATM   20  N   UNL     1     -41.985  57.447 -55.999  1.00  0.00    -0.366 N 
HETATM   21  H   UNL     1     -41.706  56.574 -55.550  1.00  0.00     0.162 HD
BRANCH  20  22
HETATM   22  C   UNL     1     -42.864  57.255 -57.163  1.00  0.00     0.021 C 
HETATM   23  C   UNL     1     -42.313  57.966 -58.407  1.00  0.00     0.037 C 
HETATM   24  C   UNL     1     -44.306  57.684 -56.862  1.00  0.00     0.037 C 
HETATM   25  C   UNL     1     -42.868  55.739 -57.458  1.00  0.00     0.037 C 
ENDBRANCH  20  22
ENDBRANCH   1  20
TORSDOF 3
ENDMDL
