MODEL 1
REMARK VINA RESULT:      -8.7      0.000      0.000
REMARK  6 active torsions:
REMARK  status: ('A' for Active; 'I' for Inactive)
REMARK    1  A    between atoms: C_7  and  C_8 
REMARK    2  A    between atoms: N_9  and  N_10 
REMARK       I    between atoms: N_10  and  C_11 
REMARK    3  A    between atoms: C_11  and  C_12 
REMARK    4  A    between atoms: C_12  and  N_13 
REMARK       I    between atoms: N_13  and  C_14 
REMARK    5  A    between atoms: C_14  and  C_15 
REMARK    6  A    between atoms: C_16  and  O_17 
ROOT
HETATM    1  N   UNL     1     -42.634  56.106 -54.517  1.00  0.00    -0.246 N 
HETATM    2  C   UNL     1     -42.871  55.899 -55.866  1.00  0.00     0.255 C 
HETATM    3  O   UNL     1     -42.808  54.805 -56.429  1.00  0.00    -0.270 OA
HETATM    4  H   UNL     1     -42.659  57.041 -54.119  1.00  0.00     0.192 HD
ENDROOT
BRANCH   1   5
HETATM    5  N   UNL     1     -42.277  55.043 -53.741  1.00  0.00    -0.184 NA
HETATM    6  C   UNL     1     -41.050  55.012 -53.331  1.00  0.00     0.153 C 
BRANCH   6   7
HETATM    7  C   UNL     1     -40.593  53.888 -52.532  1.00  0.00     0.018 A 
HETATM    8  C   UNL     1     -40.376  53.876 -51.158  1.00  0.00     0.018 A 
HETATM    9  C   UNL     1     -40.521  54.946 -50.133  1.00  0.00     0.069 C 
HETATM   10  N   UNL     1     -39.971  52.612 -50.809  1.00  0.00    -0.358 N 
HETATM   11  H   UNL     1     -39.749  52.315 -49.871  1.00  0.00     0.166 HD
HETATM   12  C   UNL     1     -39.922  51.796 -51.913  1.00  0.00     0.043 A 
HETATM   13  C   UNL     1     -40.300  52.568 -53.012  1.00  0.00     0.004 A 
HETATM   14  C   UNL     1     -39.582  50.442 -52.013  1.00  0.00     0.030 A 
HETATM   15  C   UNL     1     -40.341  51.947 -54.280  1.00  0.00     0.014 A 
HETATM   16  C   UNL     1     -40.007  50.592 -54.398  1.00  0.00     0.001 A 
HETATM   17  C   UNL     1     -39.632  49.853 -53.279  1.00  0.00     0.002 A 
ENDBRANCH   6   7
ENDBRANCH   1   5
BRANCH   2  18
HETATM   18  C   UNL     1     -43.022  57.178 -56.689  1.00  0.00     0.227 C 
BRANCH  18  19
HETATM   19  N   UNL     1     -42.139  57.323 -57.840  1.00  0.00    -0.348 N 
HETATM   20  C   UNL     1     -42.390  57.169 -59.177  1.00  0.00     0.254 C 
HETATM   21  O   UNL     1     -41.518  57.429 -60.000  1.00  0.00    -0.268 OA
HETATM   22  H   UNL     1     -41.194  57.644 -57.653  1.00  0.00     0.163 HD
BRANCH  20  23
HETATM   23  C   UNL     1     -43.689  56.637 -59.627  1.00  0.00     0.065 A 
HETATM   24  C   UNL     1     -44.774  57.508 -59.777  1.00  0.00     0.084 A 
HETATM   25  C   UNL     1     -46.008  57.026 -60.212  1.00  0.00     0.038 A 
HETATM   26  C   UNL     1     -46.167  55.661 -60.459  1.00  0.00     0.003 A 
HETATM   27  C   UNL     1     -45.096  54.784 -60.273  1.00  0.00     0.001 A 
HETATM   28  C   UNL     1     -43.857  55.267 -59.849  1.00  0.00     0.020 A 
BRANCH  24  29
HETATM   29  O   UNL     1     -44.623  58.858 -59.588  1.00  0.00    -0.355 OA
HETATM   30  C   UNL     1     -45.547  59.311 -58.591  1.00  0.00     0.210 C 
ENDBRANCH  24  29
ENDBRANCH  20  23
ENDBRANCH  18  19
ENDBRANCH   2  18
TORSDOF 6
ENDMDL
MODEL 2
REMARK VINA RESULT:      -8.3      1.111      2.677
REMARK  6 active torsions:
REMARK  status: ('A' for Active; 'I' for Inactive)
REMARK    1  A    between atoms: C_7  and  C_8 
REMARK    2  A    between atoms: N_9  and  N_10 
REMARK       I    between atoms: N_10  and  C_11 
REMARK    3  A    between atoms: C_11  and  C_12 
REMARK    4  A    between atoms: C_12  and  N_13 
REMARK       I    between atoms: N_13  and  C_14 
REMARK    5  A    between atoms: C_14  and  C_15 
REMARK    6  A    between atoms: C_16  and  O_17 
ROOT
HETATM    1  N   UNL     1     -41.339  55.518 -55.799  1.00  0.00    -0.246 N 
HETATM    2  C   UNL     1     -42.217  56.587 -55.741  1.00  0.00     0.255 C 
HETATM    3  O   UNL     1     -42.538  57.176 -54.708  1.00  0.00    -0.270 OA
HETATM    4  H   UNL     1     -41.147  55.045 -56.678  1.00  0.00     0.192 HD
ENDROOT
BRANCH   1   5
HETATM    5  N   UNL     1     -40.800  55.046 -54.638  1.00  0.00    -0.184 NA
HETATM    6  C   UNL     1     -41.311  53.958 -54.163  1.00  0.00     0.153 C 
BRANCH   6   7
HETATM    7  C   UNL     1     -40.809  53.421 -52.909  1.00  0.00     0.018 A 
HETATM    8  C   UNL     1     -40.081  52.249 -52.737  1.00  0.00     0.018 A 
HETATM    9  C   UNL     1     -39.624  51.225 -53.717  1.00  0.00     0.069 C 
HETATM   10  N   UNL     1     -39.791  52.128 -51.401  1.00  0.00    -0.358 N 
HETATM   11  H   UNL     1     -39.265  51.372 -50.989  1.00  0.00     0.166 HD
HETATM   12  C   UNL     1     -40.301  53.191 -50.696  1.00  0.00     0.043 A 
HETATM   13  C   UNL     1     -40.952  54.018 -51.612  1.00  0.00     0.004 A 
HETATM   14  C   UNL     1     -40.226  53.479 -49.329  1.00  0.00     0.030 A 
HETATM   15  C   UNL     1     -41.559  55.198 -51.130  1.00  0.00     0.014 A 
HETATM   16  C   UNL     1     -41.491  55.504 -49.765  1.00  0.00     0.001 A 
HETATM   17  C   UNL     1     -40.834  54.654 -48.879  1.00  0.00     0.002 A 
ENDBRANCH   6   7
ENDBRANCH   1   5
BRANCH   2  18
HETATM   18  C   UNL     1     -42.950  56.880 -57.051  1.00  0.00     0.227 C 
BRANCH  18  19
HETATM   19  N   UNL     1     -42.146  56.864 -58.267  1.00  0.00    -0.348 N 
HETATM   20  C   UNL     1     -42.524  56.773 -59.580  1.00  0.00     0.254 C 
HETATM   21  O   UNL     1     -41.685  56.869 -60.469  1.00  0.00    -0.268 OA
HETATM   22  H   UNL     1     -41.146  56.996 -58.155  1.00  0.00     0.163 HD
BRANCH  20  23
HETATM   23  C   UNL     1     -43.932  56.504 -59.926  1.00  0.00     0.065 A 
HETATM   24  C   UNL     1     -44.861  57.550 -59.890  1.00  0.00     0.084 A 
HETATM   25  C   UNL     1     -46.195  57.319 -60.224  1.00  0.00     0.038 A 
HETATM   26  C   UNL     1     -46.608  56.027 -60.555  1.00  0.00     0.003 A 
HETATM   27  C   UNL     1     -45.691  54.973 -60.553  1.00  0.00     0.001 A 
HETATM   28  C   UNL     1     -44.352  55.207 -60.231  1.00  0.00     0.020 A 
BRANCH  24  29
HETATM   29  O   UNL     1     -44.463  58.834 -59.617  1.00  0.00    -0.355 OA
HETATM   30  C   UNL     1     -45.491  59.511 -58.882  1.00  0.00     0.210 C 
ENDBRANCH  24  29
ENDBRANCH  20  23
ENDBRANCH  18  19
ENDBRANCH   2  18
TORSDOF 6
ENDMDL
MODEL 3
REMARK VINA RESULT:      -8.3      4.004      5.517
REMARK  6 active torsions:
REMARK  status: ('A' for Active; 'I' for Inactive)
REMARK    1  A    between atoms: C_7  and  C_8 
REMARK    2  A    between atoms: N_9  and  N_10 
REMARK       I    between atoms: N_10  and  C_11 
REMARK    3  A    between atoms: C_11  and  C_12 
REMARK    4  A    between atoms: C_12  and  N_13 
REMARK       I    between atoms: N_13  and  C_14 
REMARK    5  A    between atoms: C_14  and  C_15 
REMARK    6  A    between atoms: C_16  and  O_17 
ROOT
HETATM    1  N   UNL     1     -43.574  56.659 -52.233  1.00  0.00    -0.246 N 
HETATM    2  C   UNL     1     -44.016  56.838 -53.534  1.00  0.00     0.255 C 
HETATM    3  O   UNL     1     -43.950  55.984 -54.419  1.00  0.00    -0.270 OA
HETATM    4  H   UNL     1     -43.616  57.418 -51.557  1.00  0.00     0.192 HD
ENDROOT
BRANCH   1   5
HETATM    5  N   UNL     1     -42.996  55.472 -51.891  1.00  0.00    -0.184 NA
HETATM    6  C   UNL     1     -41.716  55.483 -51.712  1.00  0.00     0.153 C 
BRANCH   6   7
HETATM    7  C   UNL     1     -41.031  54.244 -51.383  1.00  0.00     0.018 A 
HETATM    8  C   UNL     1     -40.666  53.805 -50.115  1.00  0.00     0.018 A 
HETATM    9  C   UNL     1     -40.837  54.429 -48.774  1.00  0.00     0.069 C 
HETATM   10  N   UNL     1     -40.063  52.580 -50.253  1.00  0.00    -0.358 N 
HETATM   11  H   UNL     1     -39.703  52.023 -49.491  1.00  0.00     0.166 HD
HETATM   12  C   UNL     1     -40.029  52.202 -51.573  1.00  0.00     0.043 A 
HETATM   13  C   UNL     1     -40.622  53.228 -52.309  1.00  0.00     0.004 A 
HETATM   14  C   UNL     1     -39.527  51.034 -52.159  1.00  0.00     0.030 A 
HETATM   15  C   UNL     1     -40.719  53.072 -53.710  1.00  0.00     0.014 A 
HETATM   16  C   UNL     1     -40.225  51.909 -54.313  1.00  0.00     0.001 A 
HETATM   17  C   UNL     1     -39.637  50.906 -53.546  1.00  0.00     0.002 A 
ENDBRANCH   6   7
ENDBRANCH   1   5
BRANCH   2  18
HETATM   18  C   UNL     1     -44.419  58.271 -53.878  1.00  0.00     0.227 C 
BRANCH  18  19
HETATM   19  N   UNL     1     -43.503  59.022 -54.728  1.00  0.00    -0.348 N 
HETATM   20  C   UNL     1     -42.289  59.588 -54.443  1.00  0.00     0.254 C 
HETATM   21  O   UNL     1     -41.628  60.106 -55.337  1.00  0.00    -0.268 OA
HETATM   22  H   UNL     1     -43.755  59.107 -55.707  1.00  0.00     0.163 HD
BRANCH  20  23
HETATM   23  C   UNL     1     -41.799  59.624 -53.054  1.00  0.00     0.065 A 
HETATM   24  C   UNL     1     -42.423  60.466 -52.126  1.00  0.00     0.084 A 
HETATM   25  C   UNL     1     -41.981  60.506 -50.804  1.00  0.00     0.038 A 
HETATM   26  C   UNL     1     -40.885  59.732 -50.419  1.00  0.00     0.003 A 
HETATM   27  C   UNL     1     -40.236  58.920 -51.353  1.00  0.00     0.001 A 
HETATM   28  C   UNL     1     -40.685  58.870 -52.674  1.00  0.00     0.020 A 
BRANCH  24  29
HETATM   29  O   UNL     1     -43.533  61.194 -52.473  1.00  0.00    -0.355 OA
HETATM   30  C   UNL     1     -44.479  61.170 -51.397  1.00  0.00     0.210 C 
ENDBRANCH  24  29
ENDBRANCH  20  23
ENDBRANCH  18  19
ENDBRANCH   2  18
TORSDOF 6
ENDMDL
MODEL 4
REMARK VINA RESULT:      -8.1      1.633      2.217
REMARK  6 active torsions:
REMARK  status: ('A' for Active; 'I' for Inactive)
REMARK    1  A    between atoms: C_7  and  C_8 
REMARK    2  A    between atoms: N_9  and  N_10 
REMARK       I    between atoms: N_10  and  C_11 
REMARK    3  A    between atoms: C_11  and  C_12 
REMARK    4  A    between atoms: C_12  and  N_13 
REMARK       I    between atoms: N_13  and  C_14 
REMARK    5  A    between atoms: C_14  and  C_15 
REMARK    6  A    between atoms: C_16  and  O_17 
ROOT
HETATM    1  N   UNL     1     -42.855  55.000 -55.964  1.00  0.00    -0.246 N 
HETATM    2  C   UNL     1     -43.070  56.368 -55.929  1.00  0.00     0.255 C 
HETATM    3  O   UNL     1     -42.922  57.075 -54.932  1.00  0.00    -0.270 OA
HETATM    4  H   UNL     1     -43.037  54.463 -56.808  1.00  0.00     0.192 HD
ENDROOT
BRANCH   1   5
HETATM    5  N   UNL     1     -42.480  54.363 -54.818  1.00  0.00    -0.184 NA
HETATM    6  C   UNL     1     -41.213  54.156 -54.658  1.00  0.00     0.153 C 
BRANCH   6   7
HETATM    7  C   UNL     1     -40.749  53.449 -53.477  1.00  0.00     0.018 A 
HETATM    8  C   UNL     1     -40.669  53.951 -52.183  1.00  0.00     0.018 A 
HETATM    9  C   UNL     1     -41.001  55.293 -51.629  1.00  0.00     0.069 C 
HETATM   10  N   UNL     1     -40.200  52.949 -51.372  1.00  0.00    -0.358 N 
HETATM   11  H   UNL     1     -40.049  53.032 -50.378  1.00  0.00     0.166 HD
HETATM   12  C   UNL     1     -39.977  51.803 -52.097  1.00  0.00     0.043 A 
HETATM   13  C   UNL     1     -40.305  52.086 -53.423  1.00  0.00     0.004 A 
HETATM   14  C   UNL     1     -39.521  50.549 -51.675  1.00  0.00     0.030 A 
HETATM   15  C   UNL     1     -40.169  51.053 -54.377  1.00  0.00     0.014 A 
HETATM   16  C   UNL     1     -39.717  49.792 -53.972  1.00  0.00     0.001 A 
HETATM   17  C   UNL     1     -39.397  49.546 -52.639  1.00  0.00     0.002 A 
ENDBRANCH   6   7
ENDBRANCH   1   5
BRANCH   2  18
HETATM   18  C   UNL     1     -43.719  56.942 -57.188  1.00  0.00     0.227 C 
BRANCH  18  19
HETATM   19  N   UNL     1     -43.843  56.043 -58.329  1.00  0.00    -0.348 N 
HETATM   20  C   UNL     1     -43.639  56.268 -59.664  1.00  0.00     0.254 C 
HETATM   21  O   UNL     1     -43.711  55.339 -60.462  1.00  0.00    -0.268 OA
HETATM   22  H   UNL     1     -44.061  55.073 -58.124  1.00  0.00     0.163 HD
BRANCH  20  23
HETATM   23  C   UNL     1     -43.386  57.636 -60.152  1.00  0.00     0.065 A 
HETATM   24  C   UNL     1     -44.468  58.491 -60.393  1.00  0.00     0.084 A 
HETATM   25  C   UNL     1     -44.249  59.792 -60.844  1.00  0.00     0.038 A 
HETATM   26  C   UNL     1     -42.946  60.225 -61.094  1.00  0.00     0.003 A 
HETATM   27  C   UNL     1     -41.867  59.360 -60.892  1.00  0.00     0.001 A 
HETATM   28  C   UNL     1     -42.084  58.062 -60.428  1.00  0.00     0.020 A 
BRANCH  24  29
HETATM   29  O   UNL     1     -45.751  58.100 -60.104  1.00  0.00    -0.355 OA
HETATM   30  C   UNL     1     -46.310  58.978 -59.117  1.00  0.00     0.210 C 
ENDBRANCH  24  29
ENDBRANCH  20  23
ENDBRANCH  18  19
ENDBRANCH   2  18
TORSDOF 6
ENDMDL
MODEL 5
REMARK VINA RESULT:      -7.8      4.407      5.571
REMARK  6 active torsions:
REMARK  status: ('A' for Active; 'I' for Inactive)
REMARK    1  A    between atoms: C_7  and  C_8 
REMARK    2  A    between atoms: N_9  and  N_10 
REMARK       I    between atoms: N_10  and  C_11 
REMARK    3  A    between atoms: C_11  and  C_12 
REMARK    4  A    between atoms: C_12  and  N_13 
REMARK       I    between atoms: N_13  and  C_14 
REMARK    5  A    between atoms: C_14  and  C_15 
REMARK    6  A    between atoms: C_16  and  O_17 
ROOT
HETATM    1  N   UNL     1     -42.161  57.664 -50.436  1.00  0.00    -0.246 N 
HETATM    2  C   UNL     1     -41.752  58.822 -51.077  1.00  0.00     0.255 C 
HETATM    3  O   UNL     1     -40.708  58.936 -51.721  1.00  0.00    -0.270 OA
HETATM    4  H   UNL     1     -43.013  57.646 -49.883  1.00  0.00     0.192 HD
ENDROOT
BRANCH   1   5
HETATM    5  N   UNL     1     -41.353  56.566 -50.483  1.00  0.00    -0.184 NA
HETATM    6  C   UNL     1     -41.894  55.467 -50.898  1.00  0.00     0.153 C 
BRANCH   6   7
HETATM    7  C   UNL     1     -41.100  54.251 -50.937  1.00  0.00     0.018 A 
HETATM    8  C   UNL     1     -40.537  53.589 -49.851  1.00  0.00     0.018 A 
HETATM    9  C   UNL     1     -40.554  53.901 -48.395  1.00  0.00     0.069 C 
HETATM   10  N   UNL     1     -39.890  52.477 -50.328  1.00  0.00    -0.358 N 
HETATM   11  H   UNL     1     -39.396  51.806 -49.758  1.00  0.00     0.166 HD
HETATM   12  C   UNL     1     -40.020  52.388 -51.693  1.00  0.00     0.043 A 
HETATM   13  C   UNL     1     -40.768  53.491 -52.107  1.00  0.00     0.004 A 
HETATM   14  C   UNL     1     -39.540  51.417 -52.578  1.00  0.00     0.030 A 
HETATM   15  C   UNL     1     -41.052  53.624 -53.484  1.00  0.00     0.014 A 
HETATM   16  C   UNL     1     -40.581  52.659 -54.384  1.00  0.00     0.001 A 
HETATM   17  C   UNL     1     -39.836  51.573 -53.935  1.00  0.00     0.002 A 
ENDBRANCH   6   7
ENDBRANCH   1   5
BRANCH   2  18
HETATM   18  C   UNL     1     -42.598  60.056 -50.762  1.00  0.00     0.227 C 
BRANCH  18  19
HETATM   19  N   UNL     1     -43.941  59.815 -50.248  1.00  0.00    -0.348 N 
HETATM   20  C   UNL     1     -45.055  59.320 -50.871  1.00  0.00     0.254 C 
HETATM   21  O   UNL     1     -46.076  59.108 -50.227  1.00  0.00    -0.268 OA
HETATM   22  H   UNL     1     -44.087  59.980 -49.257  1.00  0.00     0.163 HD
BRANCH  20  23
HETATM   23  C   UNL     1     -45.046  59.092 -52.328  1.00  0.00     0.065 A 
HETATM   24  C   UNL     1     -45.318  60.159 -53.192  1.00  0.00     0.084 A 
HETATM   25  C   UNL     1     -45.304  59.967 -54.574  1.00  0.00     0.038 A 
HETATM   26  C   UNL     1     -45.057  58.693 -55.089  1.00  0.00     0.003 A 
HETATM   27  C   UNL     1     -44.824  57.618 -54.228  1.00  0.00     0.001 A 
HETATM   28  C   UNL     1     -44.826  57.813 -52.845  1.00  0.00     0.020 A 
BRANCH  24  29
HETATM   29  O   UNL     1     -45.511  61.427 -52.705  1.00  0.00    -0.355 OA
HETATM   30  C   UNL     1     -44.516  62.306 -53.245  1.00  0.00     0.210 C 
ENDBRANCH  24  29
ENDBRANCH  20  23
ENDBRANCH  18  19
ENDBRANCH   2  18
TORSDOF 6
ENDMDL
MODEL 6
REMARK VINA RESULT:      -7.8      1.905      2.867
REMARK  6 active torsions:
REMARK  status: ('A' for Active; 'I' for Inactive)
REMARK    1  A    between atoms: C_7  and  C_8 
REMARK    2  A    between atoms: N_9  and  N_10 
REMARK       I    between atoms: N_10  and  C_11 
REMARK    3  A    between atoms: C_11  and  C_12 
REMARK    4  A    between atoms: C_12  and  N_13 
REMARK       I    between atoms: N_13  and  C_14 
REMARK    5  A    between atoms: C_14  and  C_15 
REMARK    6  A    between atoms: C_16  and  O_17 
ROOT
HETATM    1  N   UNL     1     -41.257  55.137 -55.865  1.00  0.00    -0.246 N 
HETATM    2  C   UNL     1     -42.541  55.098 -56.383  1.00  0.00     0.255 C 
HETATM    3  O   UNL     1     -43.394  54.262 -56.081  1.00  0.00    -0.270 OA
HETATM    4  H   UNL     1     -40.584  55.828 -56.186  1.00  0.00     0.192 HD
ENDROOT
BRANCH   1   5
HETATM    5  N   UNL     1     -40.877  54.175 -54.977  1.00  0.00    -0.184 NA
HETATM    6  C   UNL     1     -40.961  54.477 -53.723  1.00  0.00     0.153 C 
BRANCH   6   7
HETATM    7  C   UNL     1     -40.535  53.511 -52.725  1.00  0.00     0.018 A 
HETATM    8  C   UNL     1     -40.407  53.728 -51.356  1.00  0.00     0.018 A 
HETATM    9  C   UNL     1     -40.636  54.945 -50.531  1.00  0.00     0.069 C 
HETATM   10  N   UNL     1     -40.002  52.549 -50.782  1.00  0.00    -0.358 N 
HETATM   11  H   UNL     1     -39.835  52.414 -49.796  1.00  0.00     0.166 HD
HETATM   12  C   UNL     1     -39.868  51.567 -51.733  1.00  0.00     0.043 A 
HETATM   13  C   UNL     1     -40.189  52.140 -52.964  1.00  0.00     0.004 A 
HETATM   14  C   UNL     1     -39.499  50.225 -51.590  1.00  0.00     0.030 A 
HETATM   15  C   UNL     1     -40.138  51.320 -54.113  1.00  0.00     0.014 A 
HETATM   16  C   UNL     1     -39.772  49.974 -53.988  1.00  0.00     0.001 A 
HETATM   17  C   UNL     1     -39.457  49.437 -52.743  1.00  0.00     0.002 A 
ENDBRANCH   6   7
ENDBRANCH   1   5
BRANCH   2  18
HETATM   18  C   UNL     1     -42.789  56.063 -57.542  1.00  0.00     0.227 C 
BRANCH  18  19
HETATM   19  N   UNL     1     -44.138  56.602 -57.668  1.00  0.00    -0.348 N 
HETATM   20  C   UNL     1     -44.579  57.772 -58.224  1.00  0.00     0.254 C 
HETATM   21  O   UNL     1     -45.781  57.998 -58.309  1.00  0.00    -0.268 OA
HETATM   22  H   UNL     1     -44.898  56.009 -57.349  1.00  0.00     0.163 HD
BRANCH  20  23
HETATM   23  C   UNL     1     -43.609  58.787 -58.673  1.00  0.00     0.065 A 
HETATM   24  C   UNL     1     -43.073  59.685 -57.743  1.00  0.00     0.084 A 
HETATM   25  C   UNL     1     -42.145  60.646 -58.145  1.00  0.00     0.038 A 
HETATM   26  C   UNL     1     -41.785  60.734 -59.491  1.00  0.00     0.003 A 
HETATM   27  C   UNL     1     -42.348  59.865 -60.429  1.00  0.00     0.001 A 
HETATM   28  C   UNL     1     -43.267  58.895 -60.024  1.00  0.00     0.020 A 
BRANCH  24  29
HETATM   29  O   UNL     1     -43.376  59.580 -56.409  1.00  0.00    -0.355 OA
HETATM   30  C   UNL     1     -42.195  59.230 -55.674  1.00  0.00     0.210 C 
ENDBRANCH  24  29
ENDBRANCH  20  23
ENDBRANCH  18  19
ENDBRANCH   2  18
TORSDOF 6
ENDMDL
MODEL 7
REMARK VINA RESULT:      -7.8      1.559      2.343
REMARK  6 active torsions:
REMARK  status: ('A' for Active; 'I' for Inactive)
REMARK    1  A    between atoms: C_7  and  C_8 
REMARK    2  A    between atoms: N_9  and  N_10 
REMARK       I    between atoms: N_10  and  C_11 
REMARK    3  A    between atoms: C_11  and  C_12 
REMARK    4  A    between atoms: C_12  and  N_13 
REMARK       I    between atoms: N_13  and  C_14 
REMARK    5  A    between atoms: C_14  and  C_15 
REMARK    6  A    between atoms: C_16  and  O_17 
ROOT
HETATM    1  N   UNL     1     -44.109  56.172 -54.985  1.00  0.00    -0.246 N 
HETATM    2  C   UNL     1     -43.933  57.336 -55.715  1.00  0.00     0.255 C 
HETATM    3  O   UNL     1     -42.848  57.890 -55.900  1.00  0.00    -0.270 OA
HETATM    4  H   UNL     1     -45.038  55.787 -54.831  1.00  0.00     0.192 HD
ENDROOT
BRANCH   1   5
HETATM    5  N   UNL     1     -43.024  55.595 -54.395  1.00  0.00    -0.184 NA
HETATM    6  C   UNL     1     -43.226  55.008 -53.260  1.00  0.00     0.153 C 
BRANCH   6   7
HETATM    7  C   UNL     1     -42.105  54.405 -52.559  1.00  0.00     0.018 A 
HETATM    8  C   UNL     1     -41.625  54.752 -51.300  1.00  0.00     0.018 A 
HETATM    9  C   UNL     1     -42.069  55.796 -50.335  1.00  0.00     0.069 C 
HETATM   10  N   UNL     1     -40.573  53.921 -51.009  1.00  0.00    -0.358 N 
HETATM   11  H   UNL     1     -40.037  53.944 -50.154  1.00  0.00     0.166 HD
HETATM   12  C   UNL     1     -40.355  53.036 -52.037  1.00  0.00     0.043 A 
HETATM   13  C   UNL     1     -41.296  53.318 -53.028  1.00  0.00     0.004 A 
HETATM   14  C   UNL     1     -39.408  52.012 -52.153  1.00  0.00     0.030 A 
HETATM   15  C   UNL     1     -41.286  52.528 -54.199  1.00  0.00     0.014 A 
HETATM   16  C   UNL     1     -40.347  51.498 -54.331  1.00  0.00     0.001 A 
HETATM   17  C   UNL     1     -39.422  51.246 -53.321  1.00  0.00     0.002 A 
ENDBRANCH   6   7
ENDBRANCH   1   5
BRANCH   2  18
HETATM   18  C   UNL     1     -45.230  58.033 -56.125  1.00  0.00     0.227 C 
BRANCH  18  19
HETATM   19  N   UNL     1     -45.106  59.156 -57.046  1.00  0.00    -0.348 N 
HETATM   20  C   UNL     1     -45.275  59.215 -58.403  1.00  0.00     0.254 C 
HETATM   21  O   UNL     1     -45.210  60.293 -58.985  1.00  0.00    -0.268 OA
HETATM   22  H   UNL     1     -44.919  60.065 -56.635  1.00  0.00     0.163 HD
BRANCH  20  23
HETATM   23  C   UNL     1     -45.480  57.976 -59.176  1.00  0.00     0.065 A 
HETATM   24  C   UNL     1     -44.368  57.250 -59.618  1.00  0.00     0.084 A 
HETATM   25  C   UNL     1     -44.540  56.070 -60.341  1.00  0.00     0.038 A 
HETATM   26  C   UNL     1     -45.830  55.637 -60.657  1.00  0.00     0.003 A 
HETATM   27  C   UNL     1     -46.940  56.381 -60.250  1.00  0.00     0.001 A 
HETATM   28  C   UNL     1     -46.768  57.556 -59.516  1.00  0.00     0.020 A 
BRANCH  24  29
HETATM   29  O   UNL     1     -43.096  57.632 -59.273  1.00  0.00    -0.355 OA
HETATM   30  C   UNL     1     -42.145  56.908 -60.066  1.00  0.00     0.210 C 
ENDBRANCH  24  29
ENDBRANCH  20  23
ENDBRANCH  18  19
ENDBRANCH   2  18
TORSDOF 6
ENDMDL
MODEL 8
REMARK VINA RESULT:      -7.7      2.763      8.645
REMARK  6 active torsions:
REMARK  status: ('A' for Active; 'I' for Inactive)
REMARK    1  A    between atoms: C_7  and  C_8 
REMARK    2  A    between atoms: N_9  and  N_10 
REMARK       I    between atoms: N_10  and  C_11 
REMARK    3  A    between atoms: C_11  and  C_12 
REMARK    4  A    between atoms: C_12  and  N_13 
REMARK       I    between atoms: N_13  and  C_14 
REMARK    5  A    between atoms: C_14  and  C_15 
REMARK    6  A    between atoms: C_16  and  O_17 
ROOT
HETATM    1  N   UNL     1     -42.545  57.589 -54.566  1.00  0.00    -0.246 N 
HETATM    2  C   UNL     1     -41.621  58.196 -53.732  1.00  0.00     0.255 C 
HETATM    3  O   UNL     1     -40.948  59.183 -54.033  1.00  0.00    -0.270 OA
HETATM    4  H   UNL     1     -43.039  56.749 -54.276  1.00  0.00     0.192 HD
ENDROOT
BRANCH   1   5
HETATM    5  N   UNL     1     -42.720  58.083 -55.825  1.00  0.00    -0.184 NA
HETATM    6  C   UNL     1     -42.124  57.450 -56.783  1.00  0.00     0.153 C 
BRANCH   6   7
HETATM    7  C   UNL     1     -42.237  57.945 -58.144  1.00  0.00     0.018 A 
HETATM    8  C   UNL     1     -42.665  57.230 -59.258  1.00  0.00     0.018 A 
HETATM    9  C   UNL     1     -43.103  55.815 -59.406  1.00  0.00     0.069 C 
HETATM   10  N   UNL     1     -42.641  58.079 -60.336  1.00  0.00    -0.358 N 
HETATM   11  H   UNL     1     -42.908  57.828 -61.276  1.00  0.00     0.166 HD
HETATM   12  C   UNL     1     -42.217  59.330 -59.958  1.00  0.00     0.043 A 
HETATM   13  C   UNL     1     -41.948  59.277 -58.590  1.00  0.00     0.004 A 
HETATM   14  C   UNL     1     -42.062  60.493 -60.721  1.00  0.00     0.030 A 
HETATM   15  C   UNL     1     -41.502  60.457 -57.953  1.00  0.00     0.014 A 
HETATM   16  C   UNL     1     -41.343  61.630 -58.701  1.00  0.00     0.001 A 
HETATM   17  C   UNL     1     -41.619  61.645 -60.066  1.00  0.00     0.002 A 
ENDBRANCH   6   7
ENDBRANCH   1   5
BRANCH   2  18
HETATM   18  C   UNL     1     -41.324  57.427 -52.445  1.00  0.00     0.227 C 
BRANCH  18  19
HETATM   19  N   UNL     1     -42.463  56.821 -51.767  1.00  0.00    -0.348 N 
HETATM   20  C   UNL     1     -42.753  55.506 -51.520  1.00  0.00     0.254 C 
HETATM   21  O   UNL     1     -43.733  55.209 -50.845  1.00  0.00    -0.268 OA
HETATM   22  H   UNL     1     -43.139  57.455 -51.354  1.00  0.00     0.163 HD
BRANCH  20  23
HETATM   23  C   UNL     1     -41.919  54.443 -52.109  1.00  0.00     0.065 A 
HETATM   24  C   UNL     1     -42.184  54.003 -53.411  1.00  0.00     0.084 A 
HETATM   25  C   UNL     1     -41.399  53.006 -53.990  1.00  0.00     0.038 A 
HETATM   26  C   UNL     1     -40.373  52.419 -53.249  1.00  0.00     0.003 A 
HETATM   27  C   UNL     1     -40.131  52.828 -51.935  1.00  0.00     0.001 A 
HETATM   28  C   UNL     1     -40.908  53.835 -51.359  1.00  0.00     0.020 A 
BRANCH  24  29
HETATM   29  O   UNL     1     -43.154  54.604 -54.172  1.00  0.00    -0.355 OA
HETATM   30  C   UNL     1     -43.029  54.178 -55.535  1.00  0.00     0.210 C 
ENDBRANCH  24  29
ENDBRANCH  20  23
ENDBRANCH  18  19
ENDBRANCH   2  18
TORSDOF 6
ENDMDL
MODEL 9
REMARK VINA RESULT:      -7.5      2.229      3.288
REMARK  6 active torsions:
REMARK  status: ('A' for Active; 'I' for Inactive)
REMARK    1  A    between atoms: C_7  and  C_8 
REMARK    2  A    between atoms: N_9  and  N_10 
REMARK       I    between atoms: N_10  and  C_11 
REMARK    3  A    between atoms: C_11  and  C_12 
REMARK    4  A    between atoms: C_12  and  N_13 
REMARK       I    between atoms: N_13  and  C_14 
REMARK    5  A    between atoms: C_14  and  C_15 
REMARK    6  A    between atoms: C_16  and  O_17 
ROOT
HETATM    1  N   UNL     1     -44.138  56.778 -55.974  1.00  0.00    -0.246 N 
HETATM    2  C   UNL     1     -44.480  58.118 -55.891  1.00  0.00     0.255 C 
HETATM    3  O   UNL     1     -44.035  58.904 -55.053  1.00  0.00    -0.270 OA
HETATM    4  H   UNL     1     -44.573  56.169 -56.662  1.00  0.00     0.192 HD
ENDROOT
BRANCH   1   5
HETATM    5  N   UNL     1     -43.270  56.262 -55.058  1.00  0.00    -0.184 NA
HETATM    6  C   UNL     1     -43.765  55.438 -54.193  1.00  0.00     0.153 C 
BRANCH   6   7
HETATM    7  C   UNL     1     -42.904  54.880 -53.164  1.00  0.00     0.018 A 
HETATM    8  C   UNL     1     -42.921  55.185 -51.807  1.00  0.00     0.018 A 
HETATM    9  C   UNL     1     -43.764  56.130 -51.025  1.00  0.00     0.069 C 
HETATM   10  N   UNL     1     -41.961  54.420 -51.193  1.00  0.00    -0.358 N 
HETATM   11  H   UNL     1     -41.757  54.431 -50.205  1.00  0.00     0.166 HD
HETATM   12  C   UNL     1     -41.322  53.618 -52.108  1.00  0.00     0.043 A 
HETATM   13  C   UNL     1     -41.885  53.888 -53.355  1.00  0.00     0.004 A 
HETATM   14  C   UNL     1     -40.302  52.679 -51.919  1.00  0.00     0.030 A 
HETATM   15  C   UNL     1     -41.399  53.175 -54.473  1.00  0.00     0.014 A 
HETATM   16  C   UNL     1     -40.381  52.229 -54.302  1.00  0.00     0.001 A 
HETATM   17  C   UNL     1     -39.841  51.987 -53.041  1.00  0.00     0.002 A 
ENDBRANCH   6   7
ENDBRANCH   1   5
BRANCH   2  18
HETATM   18  C   UNL     1     -45.634  58.538 -56.801  1.00  0.00     0.227 C 
BRANCH  18  19
HETATM   19  N   UNL     1     -46.115  57.541 -57.749  1.00  0.00    -0.348 N 
HETATM   20  C   UNL     1     -45.756  57.306 -59.049  1.00  0.00     0.254 C 
HETATM   21  O   UNL     1     -46.225  56.346 -59.652  1.00  0.00    -0.268 OA
HETATM   22  H   UNL     1     -46.786  56.864 -57.399  1.00  0.00     0.163 HD
BRANCH  20  23
HETATM   23  C   UNL     1     -44.847  58.236 -59.744  1.00  0.00     0.065 A 
HETATM   24  C   UNL     1     -43.464  58.102 -59.574  1.00  0.00     0.084 A 
HETATM   25  C   UNL     1     -42.588  58.965 -60.230  1.00  0.00     0.038 A 
HETATM   26  C   UNL     1     -43.099  59.991 -61.027  1.00  0.00     0.003 A 
HETATM   27  C   UNL     1     -44.480  60.152 -61.167  1.00  0.00     0.001 A 
HETATM   28  C   UNL     1     -45.357  59.280 -60.519  1.00  0.00     0.020 A 
BRANCH  24  29
HETATM   29  O   UNL     1     -42.944  57.068 -58.837  1.00  0.00    -0.355 OA
HETATM   30  C   UNL     1     -42.516  56.019 -59.715  1.00  0.00     0.210 C 
ENDBRANCH  24  29
ENDBRANCH  20  23
ENDBRANCH  18  19
ENDBRANCH   2  18
TORSDOF 6
ENDMDL
MODEL 10
REMARK VINA RESULT:      -7.4      5.276      6.928
REMARK  6 active torsions:
REMARK  status: ('A' for Active; 'I' for Inactive)
REMARK    1  A    between atoms: C_7  and  C_8 
REMARK    2  A    between atoms: N_9  and  N_10 
REMARK       I    between atoms: N_10  and  C_11 
REMARK    3  A    between atoms: C_11  and  C_12 
REMARK    4  A    between atoms: C_12  and  N_13 
REMARK       I    between atoms: N_13  and  C_14 
REMARK    5  A    between atoms: C_14  and  C_15 
REMARK    6  A    between atoms: C_16  and  O_17 
ROOT
HETATM    1  N   UNL     1     -41.871  57.888 -52.947  1.00  0.00    -0.246 N 
HETATM    2  C   UNL     1     -41.187  59.051 -53.260  1.00  0.00     0.255 C 
HETATM    3  O   UNL     1     -39.962  59.175 -53.223  1.00  0.00    -0.270 OA
HETATM    4  H   UNL     1     -42.887  57.860 -52.954  1.00  0.00     0.192 HD
ENDROOT
BRANCH   1   5
HETATM    5  N   UNL     1     -41.161  56.797 -52.538  1.00  0.00    -0.184 NA
HETATM    6  C   UNL     1     -41.848  55.763 -52.176  1.00  0.00     0.153 C 
BRANCH   6   7
HETATM    7  C   UNL     1     -41.156  54.580 -51.693  1.00  0.00     0.018 A 
HETATM    8  C   UNL     1     -40.854  54.273 -50.370  1.00  0.00     0.018 A 
HETATM    9  C   UNL     1     -41.114  55.016 -49.107  1.00  0.00     0.069 C 
HETATM   10  N   UNL     1     -40.217  53.057 -50.357  1.00  0.00    -0.358 N 
HETATM   11  H   UNL     1     -39.889  52.585 -49.528  1.00  0.00     0.166 HD
HETATM   12  C   UNL     1     -40.100  52.557 -51.631  1.00  0.00     0.043 A 
HETATM   13  C   UNL     1     -40.673  53.492 -52.494  1.00  0.00     0.004 A 
HETATM   14  C   UNL     1     -39.542  51.353 -52.074  1.00  0.00     0.030 A 
HETATM   15  C   UNL     1     -40.688  53.202 -53.876  1.00  0.00     0.014 A 
HETATM   16  C   UNL     1     -40.135  52.000 -54.337  1.00  0.00     0.001 A 
HETATM   17  C   UNL     1     -39.570  51.091 -53.446  1.00  0.00     0.002 A 
ENDBRANCH   6   7
ENDBRANCH   1   5
BRANCH   2  18
HETATM   18  C   UNL     1     -42.077  60.276 -53.467  1.00  0.00     0.227 C 
BRANCH  18  19
HETATM   19  N   UNL     1     -43.492  60.118 -53.154  1.00  0.00    -0.348 N 
HETATM   20  C   UNL     1     -44.376  60.987 -52.574  1.00  0.00     0.254 C 
HETATM   21  O   UNL     1     -45.562  60.686 -52.481  1.00  0.00    -0.268 OA
HETATM   22  H   UNL     1     -43.931  59.253 -53.455  1.00  0.00     0.163 HD
BRANCH  20  23
HETATM   23  C   UNL     1     -43.896  62.261 -52.010  1.00  0.00     0.065 A 
HETATM   24  C   UNL     1     -43.498  62.314 -50.669  1.00  0.00     0.084 A 
HETATM   25  C   UNL     1     -43.031  63.507 -50.120  1.00  0.00     0.038 A 
HETATM   26  C   UNL     1     -43.001  64.662 -50.905  1.00  0.00     0.003 A 
HETATM   27  C   UNL     1     -43.435  64.621 -52.232  1.00  0.00     0.001 A 
HETATM   28  C   UNL     1     -43.891  63.423 -52.786  1.00  0.00     0.020 A 
BRANCH  24  29
HETATM   29  O   UNL     1     -43.472  61.179 -49.899  1.00  0.00    -0.355 OA
HETATM   30  C   UNL     1     -44.432  61.294 -48.841  1.00  0.00     0.210 C 
ENDBRANCH  24  29
ENDBRANCH  20  23
ENDBRANCH  18  19
ENDBRANCH   2  18
TORSDOF 6
ENDMDL
