MODEL 1
REMARK VINA RESULT:      -8.1      0.000      0.000
REMARK  6 active torsions:
REMARK  status: ('A' for Active; 'I' for Inactive)
REMARK    1  A    between atoms: C_2  and  N_3 
REMARK       I    between atoms: N_3  and  C_4 
REMARK       I    between atoms: C_4  and  N_5 
REMARK    2  A    between atoms: N_5  and  C_6 
REMARK    3  A    between atoms: C_8  and  O_9 
REMARK    4  A    between atoms: O_9  and  C_10 
REMARK    5  A    between atoms: C_10  and  C_11 
REMARK    6  A    between atoms: C_11  and  N_12 
ROOT
HETATM    1  N   UNL     1     -42.680  56.155 -51.130  1.00  0.00    -0.333 N 
HETATM    2  C   UNL     1     -41.589  56.655 -50.482  1.00  0.00     0.321 C 
HETATM    3  N   UNL     1     -41.436  58.011 -50.525  1.00  0.00    -0.309 N 
HETATM    4  O   UNL     1     -40.815  55.978 -49.815  1.00  0.00    -0.247 OA
HETATM    5  H   UNL     1     -43.420  56.831 -51.262  1.00  0.00     0.165 HD
HETATM    6  H   UNL     1     -40.826  58.348 -49.789  1.00  0.00     0.170 HD
ENDROOT
BRANCH   3   7
HETATM    7  C   UNL     1     -41.813  58.944 -51.507  1.00  0.00     0.039 A 
HETATM    8  C   UNL     1     -41.415  58.850 -52.844  1.00  0.00     0.066 A 
HETATM    9  C   UNL     1     -41.757  59.862 -53.742  1.00  0.00     0.070 A 
HETATM   10  C   UNL     1     -42.539  60.940 -53.339  1.00  0.00     0.037 A 
HETATM   11  C   UNL     1     -42.931  61.042 -52.006  1.00  0.00     0.005 A 
HETATM   12  C   UNL     1     -42.552  60.057 -51.090  1.00  0.00     0.030 A 
BRANCH   9  13
HETATM   13  O   UNL     1     -41.391  59.788 -55.056  1.00  0.00    -0.349 OA
BRANCH  13  14
HETATM   14  C   UNL     1     -42.525  59.755 -55.942  1.00  0.00     0.197 C 
BRANCH  14  15
HETATM   15  C   UNL     1     -42.084  59.149 -57.266  1.00  0.00     0.177 C 
BRANCH  15  16
HETATM   16  N   UNL     1     -42.434  57.748 -57.370  1.00  0.00    -0.279 N 
HETATM   17  N   UNL     1     -42.861  57.253 -58.547  1.00  0.00    -0.185 NA
HETATM   18  C   UNL     1     -43.128  55.974 -58.275  1.00  0.00     0.140 A 
HETATM   19  C   UNL     1     -42.864  55.646 -56.933  1.00  0.00     0.040 A 
HETATM   20  C   UNL     1     -42.406  56.815 -56.374  1.00  0.00     0.113 A 
ENDBRANCH  15  16
ENDBRANCH  14  15
ENDBRANCH  13  14
ENDBRANCH   9  13
ENDBRANCH   3   7
BRANCH   1  21
HETATM   21  C   UNL     1     -43.067  54.726 -51.132  1.00  0.00     0.039 C 
HETATM   22  C   UNL     1     -44.308  54.491 -50.258  1.00  0.00     0.039 C 
HETATM   23  C   UNL     1     -41.873  53.826 -50.678  1.00  0.00     0.070 C 
HETATM   24  C   UNL     1     -41.243  53.424 -51.979  1.00  0.00    -0.049 A 
HETATM   25  C   UNL     1     -42.091  53.683 -53.057  1.00  0.00    -0.049 A 
HETATM   26  C   UNL     1     -40.022  52.799 -52.171  1.00  0.00     0.007 A 
HETATM   27  C   UNL     1     -43.384  54.275 -52.595  1.00  0.00     0.070 C 
HETATM   28  C   UNL     1     -41.740  53.323 -54.348  1.00  0.00     0.007 A 
HETATM   29  C   UNL     1     -40.508  52.701 -54.552  1.00  0.00     0.001 A 
HETATM   30  C   UNL     1     -39.654  52.441 -53.471  1.00  0.00     0.001 A 
ENDBRANCH   1  21
TORSDOF 6
ENDMDL
MODEL 2
REMARK VINA RESULT:      -7.7      2.985      5.872
REMARK  6 active torsions:
REMARK  status: ('A' for Active; 'I' for Inactive)
REMARK    1  A    between atoms: C_2  and  N_3 
REMARK       I    between atoms: N_3  and  C_4 
REMARK       I    between atoms: C_4  and  N_5 
REMARK    2  A    between atoms: N_5  and  C_6 
REMARK    3  A    between atoms: C_8  and  O_9 
REMARK    4  A    between atoms: O_9  and  C_10 
REMARK    5  A    between atoms: C_10  and  C_11 
REMARK    6  A    between atoms: C_11  and  N_12 
ROOT
HETATM    1  N   UNL     1     -42.044  56.107 -53.317  1.00  0.00    -0.333 N 
HETATM    2  C   UNL     1     -41.848  57.041 -54.292  1.00  0.00     0.321 C 
HETATM    3  N   UNL     1     -41.233  58.195 -53.899  1.00  0.00    -0.309 N 
HETATM    4  O   UNL     1     -42.111  56.866 -55.476  1.00  0.00    -0.247 OA
HETATM    5  H   UNL     1     -41.424  56.209 -52.525  1.00  0.00     0.165 HD
HETATM    6  H   UNL     1     -40.831  58.697 -54.683  1.00  0.00     0.170 HD
ENDROOT
BRANCH   3   7
HETATM    7  C   UNL     1     -41.246  58.865 -52.663  1.00  0.00     0.039 A 
HETATM    8  C   UNL     1     -42.341  59.600 -52.203  1.00  0.00     0.066 A 
HETATM    9  C   UNL     1     -42.247  60.309 -51.005  1.00  0.00     0.070 A 
HETATM   10  C   UNL     1     -41.093  60.251 -50.230  1.00  0.00     0.037 A 
HETATM   11  C   UNL     1     -39.995  59.526 -50.687  1.00  0.00     0.005 A 
HETATM   12  C   UNL     1     -40.065  58.852 -51.909  1.00  0.00     0.030 A 
BRANCH   9  13
HETATM   13  O   UNL     1     -43.307  61.026 -50.526  1.00  0.00    -0.349 OA
BRANCH  13  14
HETATM   14  C   UNL     1     -44.510  60.240 -50.442  1.00  0.00     0.197 C 
BRANCH  14  15
HETATM   15  C   UNL     1     -45.586  61.076 -49.766  1.00  0.00     0.177 C 
BRANCH  15  16
HETATM   16  N   UNL     1     -45.520  60.989 -48.323  1.00  0.00    -0.279 N 
HETATM   17  N   UNL     1     -46.189  60.010 -47.683  1.00  0.00    -0.185 NA
HETATM   18  C   UNL     1     -45.947  60.252 -46.393  1.00  0.00     0.140 A 
HETATM   19  C   UNL     1     -45.119  61.373 -46.205  1.00  0.00     0.040 A 
HETATM   20  C   UNL     1     -44.851  61.824 -47.475  1.00  0.00     0.113 A 
ENDBRANCH  15  16
ENDBRANCH  14  15
ENDBRANCH  13  14
ENDBRANCH   9  13
ENDBRANCH   3   7
BRANCH   1  21
HETATM   21  C   UNL     1     -42.618  54.763 -53.554  1.00  0.00     0.039 C 
HETATM   22  C   UNL     1     -43.978  54.863 -54.263  1.00  0.00     0.039 C 
HETATM   23  C   UNL     1     -42.731  53.962 -52.218  1.00  0.00     0.070 C 
HETATM   24  C   UNL     1     -41.458  53.166 -52.197  1.00  0.00    -0.049 A 
HETATM   25  C   UNL     1     -40.843  53.155 -53.449  1.00  0.00    -0.049 A 
HETATM   26  C   UNL     1     -40.931  52.441 -51.141  1.00  0.00     0.007 A 
HETATM   27  C   UNL     1     -41.641  53.931 -54.448  1.00  0.00     0.070 C 
HETATM   28  C   UNL     1     -39.692  52.420 -53.676  1.00  0.00     0.007 A 
HETATM   29  C   UNL     1     -39.148  51.694 -52.616  1.00  0.00     0.001 A 
HETATM   30  C   UNL     1     -39.763  51.704 -51.356  1.00  0.00     0.001 A 
ENDBRANCH   1  21
TORSDOF 6
ENDMDL
MODEL 3
REMARK VINA RESULT:      -7.5     16.339     19.068
REMARK  6 active torsions:
REMARK  status: ('A' for Active; 'I' for Inactive)
REMARK    1  A    between atoms: C_2  and  N_3 
REMARK       I    between atoms: N_3  and  C_4 
REMARK       I    between atoms: C_4  and  N_5 
REMARK    2  A    between atoms: N_5  and  C_6 
REMARK    3  A    between atoms: C_8  and  O_9 
REMARK    4  A    between atoms: O_9  and  C_10 
REMARK    5  A    between atoms: C_10  and  C_11 
REMARK    6  A    between atoms: C_11  and  N_12 
ROOT
HETATM    1  N   UNL     1     -35.437  40.627 -55.553  1.00  0.00    -0.333 N 
HETATM    2  C   UNL     1     -34.552  41.662 -55.467  1.00  0.00     0.321 C 
HETATM    3  N   UNL     1     -33.237  41.316 -55.347  1.00  0.00    -0.309 N 
HETATM    4  O   UNL     1     -34.862  42.843 -55.574  1.00  0.00    -0.247 OA
HETATM    5  H   UNL     1     -35.021  39.761 -55.867  1.00  0.00     0.165 HD
HETATM    6  H   UNL     1     -32.619  42.077 -55.607  1.00  0.00     0.170 HD
ENDROOT
BRANCH   3   7
HETATM    7  C   UNL     1     -32.636  40.191 -54.756  1.00  0.00     0.039 A 
HETATM    8  C   UNL     1     -32.562  40.001 -53.374  1.00  0.00     0.066 A 
HETATM    9  C   UNL     1     -31.873  38.902 -52.860  1.00  0.00     0.070 A 
HETATM   10  C   UNL     1     -31.303  37.957 -53.708  1.00  0.00     0.037 A 
HETATM   11  C   UNL     1     -31.367  38.145 -55.086  1.00  0.00     0.005 A 
HETATM   12  C   UNL     1     -32.014  39.269 -55.607  1.00  0.00     0.030 A 
BRANCH   9  13
HETATM   13  O   UNL     1     -31.797  38.686 -51.513  1.00  0.00    -0.349 OA
BRANCH  13  14
HETATM   14  C   UNL     1     -31.696  39.911 -50.765  1.00  0.00     0.197 C 
BRANCH  14  15
HETATM   15  C   UNL     1     -32.754  39.897 -49.672  1.00  0.00     0.177 C 
BRANCH  15  16
HETATM   16  N   UNL     1     -34.087  40.096 -50.198  1.00  0.00    -0.279 N 
HETATM   17  N   UNL     1     -34.992  39.102 -50.114  1.00  0.00    -0.185 NA
HETATM   18  C   UNL     1     -36.071  39.604 -50.720  1.00  0.00     0.140 A 
HETATM   19  C   UNL     1     -35.864  40.916 -51.182  1.00  0.00     0.040 A 
HETATM   20  C   UNL     1     -34.571  41.212 -50.819  1.00  0.00     0.113 A 
ENDBRANCH  15  16
ENDBRANCH  14  15
ENDBRANCH  13  14
ENDBRANCH   9  13
ENDBRANCH   3   7
BRANCH   1  21
HETATM   21  C   UNL     1     -36.893  40.791 -55.768  1.00  0.00     0.039 C 
HETATM   22  C   UNL     1     -37.636  40.912 -54.428  1.00  0.00     0.039 C 
HETATM   23  C   UNL     1     -37.464  39.620 -56.630  1.00  0.00     0.070 C 
HETATM   24  C   UNL     1     -37.425  40.181 -58.022  1.00  0.00    -0.049 A 
HETATM   25  C   UNL     1     -37.243  41.564 -58.010  1.00  0.00    -0.049 A 
HETATM   26  C   UNL     1     -37.615  39.501 -59.214  1.00  0.00     0.007 A 
HETATM   27  C   UNL     1     -37.152  42.083 -56.609  1.00  0.00     0.070 C 
HETATM   28  C   UNL     1     -37.249  42.299 -59.183  1.00  0.00     0.007 A 
HETATM   29  C   UNL     1     -37.431  41.622 -60.390  1.00  0.00     0.001 A 
HETATM   30  C   UNL     1     -37.613  40.232 -60.405  1.00  0.00     0.001 A 
ENDBRANCH   1  21
TORSDOF 6
ENDMDL
MODEL 4
REMARK VINA RESULT:      -7.5      2.320      5.549
REMARK  6 active torsions:
REMARK  status: ('A' for Active; 'I' for Inactive)
REMARK    1  A    between atoms: C_2  and  N_3 
REMARK       I    between atoms: N_3  and  C_4 
REMARK       I    between atoms: C_4  and  N_5 
REMARK    2  A    between atoms: N_5  and  C_6 
REMARK    3  A    between atoms: C_8  and  O_9 
REMARK    4  A    between atoms: O_9  and  C_10 
REMARK    5  A    between atoms: C_10  and  C_11 
REMARK    6  A    between atoms: C_11  and  N_12 
ROOT
HETATM    1  N   UNL     1     -43.199  58.643 -53.450  1.00  0.00    -0.333 N 
HETATM    2  C   UNL     1     -42.259  59.366 -54.126  1.00  0.00     0.321 C 
HETATM    3  N   UNL     1     -42.206  59.164 -55.475  1.00  0.00    -0.309 N 
HETATM    4  O   UNL     1     -41.546  60.219 -53.611  1.00  0.00    -0.247 OA
HETATM    5  H   UNL     1     -43.959  58.319 -54.032  1.00  0.00     0.165 HD
HETATM    6  H   UNL     1     -41.743  59.927 -55.956  1.00  0.00     0.170 HD
ENDROOT
BRANCH   3   7
HETATM    7  C   UNL     1     -42.501  58.023 -56.243  1.00  0.00     0.039 A 
HETATM    8  C   UNL     1     -42.510  56.729 -55.716  1.00  0.00     0.066 A 
HETATM    9  C   UNL     1     -42.726  55.638 -56.560  1.00  0.00     0.070 A 
HETATM   10  C   UNL     1     -42.988  55.824 -57.913  1.00  0.00     0.037 A 
HETATM   11  C   UNL     1     -42.972  57.111 -58.445  1.00  0.00     0.005 A 
HETATM   12  C   UNL     1     -42.709  58.204 -57.616  1.00  0.00     0.030 A 
BRANCH   9  13
HETATM   13  O   UNL     1     -42.753  54.364 -56.068  1.00  0.00    -0.349 OA
BRANCH  13  14
HETATM   14  C   UNL     1     -42.068  54.245 -54.808  1.00  0.00     0.197 C 
BRANCH  14  15
HETATM   15  C   UNL     1     -40.707  53.612 -55.057  1.00  0.00     0.177 C 
BRANCH  15  16
HETATM   16  N   UNL     1     -40.284  52.774 -53.955  1.00  0.00    -0.279 N 
HETATM   17  N   UNL     1     -39.901  51.505 -54.192  1.00  0.00    -0.185 NA
HETATM   18  C   UNL     1     -39.624  51.026 -52.976  1.00  0.00     0.140 A 
HETATM   19  C   UNL     1     -39.820  51.984 -51.966  1.00  0.00     0.040 A 
HETATM   20  C   UNL     1     -40.238  53.111 -52.632  1.00  0.00     0.113 A 
ENDBRANCH  15  16
ENDBRANCH  14  15
ENDBRANCH  13  14
ENDBRANCH   9  13
ENDBRANCH   3   7
BRANCH   1  21
HETATM   21  C   UNL     1     -43.469  58.777 -52.000  1.00  0.00     0.039 C 
HETATM   22  C   UNL     1     -44.173  60.108 -51.694  1.00  0.00     0.039 C 
HETATM   23  C   UNL     1     -42.154  58.625 -51.172  1.00  0.00     0.070 C 
HETATM   24  C   UNL     1     -42.155  57.169 -50.807  1.00  0.00    -0.049 A 
HETATM   25  C   UNL     1     -43.408  56.593 -51.015  1.00  0.00    -0.049 A 
HETATM   26  C   UNL     1     -41.119  56.435 -50.254  1.00  0.00     0.007 A 
HETATM   27  C   UNL     1     -44.386  57.600 -51.532  1.00  0.00     0.070 C 
HETATM   28  C   UNL     1     -43.656  55.273 -50.676  1.00  0.00     0.007 A 
HETATM   29  C   UNL     1     -42.616  54.522 -50.128  1.00  0.00     0.001 A 
HETATM   30  C   UNL     1     -41.355  55.099 -49.918  1.00  0.00     0.001 A 
ENDBRANCH   1  21
TORSDOF 6
ENDMDL
MODEL 5
REMARK VINA RESULT:      -7.5      2.261      5.090
REMARK  6 active torsions:
REMARK  status: ('A' for Active; 'I' for Inactive)
REMARK    1  A    between atoms: C_2  and  N_3 
REMARK       I    between atoms: N_3  and  C_4 
REMARK       I    between atoms: C_4  and  N_5 
REMARK    2  A    between atoms: N_5  and  C_6 
REMARK    3  A    between atoms: C_8  and  O_9 
REMARK    4  A    between atoms: O_9  and  C_10 
REMARK    5  A    between atoms: C_10  and  C_11 
REMARK    6  A    between atoms: C_11  and  N_12 
ROOT
HETATM    1  N   UNL     1     -41.740  55.301 -55.563  1.00  0.00    -0.333 N 
HETATM    2  C   UNL     1     -42.869  55.017 -56.274  1.00  0.00     0.321 C 
HETATM    3  N   UNL     1     -43.261  55.963 -57.177  1.00  0.00    -0.309 N 
HETATM    4  O   UNL     1     -43.478  53.956 -56.204  1.00  0.00    -0.247 OA
HETATM    5  H   UNL     1     -41.138  55.980 -56.009  1.00  0.00     0.165 HD
HETATM    6  H   UNL     1     -43.884  55.583 -57.880  1.00  0.00     0.170 HD
ENDROOT
BRANCH   3   7
HETATM    7  C   UNL     1     -43.103  57.360 -57.167  1.00  0.00     0.039 A 
HETATM    8  C   UNL     1     -43.825  58.206 -56.319  1.00  0.00     0.066 A 
HETATM    9  C   UNL     1     -43.676  59.589 -56.428  1.00  0.00     0.070 A 
HETATM   10  C   UNL     1     -42.775  60.141 -57.333  1.00  0.00     0.037 A 
HETATM   11  C   UNL     1     -42.058  59.304 -58.185  1.00  0.00     0.005 A 
HETATM   12  C   UNL     1     -42.237  57.920 -58.115  1.00  0.00     0.030 A 
BRANCH   9  13
HETATM   13  O   UNL     1     -44.361  60.436 -55.604  1.00  0.00    -0.349 OA
BRANCH  13  14
HETATM   14  C   UNL     1     -44.139  60.149 -54.212  1.00  0.00     0.197 C 
BRANCH  14  15
HETATM   15  C   UNL     1     -42.976  60.998 -53.723  1.00  0.00     0.177 C 
BRANCH  15  16
HETATM   16  N   UNL     1     -41.932  60.199 -53.117  1.00  0.00    -0.279 N 
HETATM   17  N   UNL     1     -41.047  59.554 -53.901  1.00  0.00    -0.185 NA
HETATM   18  C   UNL     1     -40.273  58.898 -53.033  1.00  0.00     0.140 A 
HETATM   19  C   UNL     1     -40.652  59.129 -51.699  1.00  0.00     0.040 A 
HETATM   20  C   UNL     1     -41.724  59.985 -51.785  1.00  0.00     0.113 A 
ENDBRANCH  15  16
ENDBRANCH  14  15
ENDBRANCH  13  14
ENDBRANCH   9  13
ENDBRANCH   3   7
BRANCH   1  21
HETATM   21  C   UNL     1     -41.108  54.373 -54.598  1.00  0.00     0.039 C 
HETATM   22  C   UNL     1     -40.000  53.549 -55.272  1.00  0.00     0.039 C 
HETATM   23  C   UNL     1     -42.177  53.451 -53.931  1.00  0.00     0.070 C 
HETATM   24  C   UNL     1     -42.508  54.184 -52.663  1.00  0.00    -0.049 A 
HETATM   25  C   UNL     1     -41.559  55.167 -52.381  1.00  0.00    -0.049 A 
HETATM   26  C   UNL     1     -43.550  53.931 -51.787  1.00  0.00     0.007 A 
HETATM   27  C   UNL     1     -40.484  55.193 -53.421  1.00  0.00     0.070 C 
HETATM   28  C   UNL     1     -41.628  55.918 -51.220  1.00  0.00     0.007 A 
HETATM   29  C   UNL     1     -42.680  55.678 -50.335  1.00  0.00     0.001 A 
HETATM   30  C   UNL     1     -43.635  54.690 -50.616  1.00  0.00     0.001 A 
ENDBRANCH   1  21
TORSDOF 6
ENDMDL
MODEL 6
REMARK VINA RESULT:      -7.5      2.014      7.121
REMARK  6 active torsions:
REMARK  status: ('A' for Active; 'I' for Inactive)
REMARK    1  A    between atoms: C_2  and  N_3 
REMARK       I    between atoms: N_3  and  C_4 
REMARK       I    between atoms: C_4  and  N_5 
REMARK    2  A    between atoms: N_5  and  C_6 
REMARK    3  A    between atoms: C_8  and  O_9 
REMARK    4  A    between atoms: O_9  and  C_10 
REMARK    5  A    between atoms: C_10  and  C_11 
REMARK    6  A    between atoms: C_11  and  N_12 
ROOT
HETATM    1  N   UNL     1     -43.731  56.882 -56.178  1.00  0.00    -0.333 N 
HETATM    2  C   UNL     1     -42.887  56.315 -57.088  1.00  0.00     0.321 C 
HETATM    3  N   UNL     1     -42.350  55.110 -56.736  1.00  0.00    -0.309 N 
HETATM    4  O   UNL     1     -42.664  56.779 -58.200  1.00  0.00    -0.247 OA
HETATM    5  H   UNL     1     -44.134  56.220 -55.529  1.00  0.00     0.165 HD
HETATM    6  H   UNL     1     -42.009  54.597 -57.541  1.00  0.00     0.170 HD
ENDROOT
BRANCH   3   7
HETATM    7  C   UNL     1     -42.031  54.584 -55.473  1.00  0.00     0.039 A 
HETATM    8  C   UNL     1     -42.941  54.531 -54.414  1.00  0.00     0.066 A 
HETATM    9  C   UNL     1     -42.524  54.074 -53.163  1.00  0.00     0.070 A 
HETATM   10  C   UNL     1     -41.225  53.617 -52.966  1.00  0.00     0.037 A 
HETATM   11  C   UNL     1     -40.312  53.675 -54.016  1.00  0.00     0.005 A 
HETATM   12  C   UNL     1     -40.708  54.175 -55.259  1.00  0.00     0.030 A 
BRANCH   9  13
HETATM   13  O   UNL     1     -43.398  54.001 -52.114  1.00  0.00    -0.349 OA
BRANCH  13  14
HETATM   14  C   UNL     1     -42.970  54.785 -50.987  1.00  0.00     0.197 C 
BRANCH  14  15
HETATM   15  C   UNL     1     -43.360  56.235 -51.233  1.00  0.00     0.177 C 
BRANCH  15  16
HETATM   16  N   UNL     1     -42.208  57.081 -51.458  1.00  0.00    -0.279 N 
HETATM   17  N   UNL     1     -41.451  57.469 -50.413  1.00  0.00    -0.185 NA
HETATM   18  C   UNL     1     -40.524  58.254 -50.968  1.00  0.00     0.140 A 
HETATM   19  C   UNL     1     -40.679  58.362 -52.361  1.00  0.00     0.040 A 
HETATM   20  C   UNL     1     -41.773  57.583 -52.651  1.00  0.00     0.113 A 
ENDBRANCH  15  16
ENDBRANCH  14  15
ENDBRANCH  13  14
ENDBRANCH   9  13
ENDBRANCH   3   7
BRANCH   1  21
HETATM   21  C   UNL     1     -44.475  58.143 -56.403  1.00  0.00     0.039 C 
HETATM   22  C   UNL     1     -45.347  58.048 -57.665  1.00  0.00     0.039 C 
HETATM   23  C   UNL     1     -43.499  59.359 -56.476  1.00  0.00     0.070 C 
HETATM   24  C   UNL     1     -43.502  59.875 -55.066  1.00  0.00    -0.049 A 
HETATM   25  C   UNL     1     -44.564  59.347 -54.332  1.00  0.00    -0.049 A 
HETATM   26  C   UNL     1     -42.650  60.814 -54.507  1.00  0.00     0.007 A 
HETATM   27  C   UNL     1     -45.396  58.430 -55.172  1.00  0.00     0.070 C 
HETATM   28  C   UNL     1     -44.801  59.743 -53.027  1.00  0.00     0.007 A 
HETATM   29  C   UNL     1     -43.943  60.681 -52.451  1.00  0.00     0.001 A 
HETATM   30  C   UNL     1     -42.874  61.213 -53.186  1.00  0.00     0.001 A 
ENDBRANCH   1  21
TORSDOF 6
ENDMDL
MODEL 7
REMARK VINA RESULT:      -7.4      2.705      7.869
REMARK  6 active torsions:
REMARK  status: ('A' for Active; 'I' for Inactive)
REMARK    1  A    between atoms: C_2  and  N_3 
REMARK       I    between atoms: N_3  and  C_4 
REMARK       I    between atoms: C_4  and  N_5 
REMARK    2  A    between atoms: N_5  and  C_6 
REMARK    3  A    between atoms: C_8  and  O_9 
REMARK    4  A    between atoms: O_9  and  C_10 
REMARK    5  A    between atoms: C_10  and  C_11 
REMARK    6  A    between atoms: C_11  and  N_12 
ROOT
HETATM    1  N   UNL     1     -42.476  57.764 -57.450  1.00  0.00    -0.333 N 
HETATM    2  C   UNL     1     -42.512  58.400 -56.243  1.00  0.00     0.321 C 
HETATM    3  N   UNL     1     -42.049  57.685 -55.177  1.00  0.00    -0.309 N 
HETATM    4  O   UNL     1     -42.848  59.569 -56.091  1.00  0.00    -0.247 OA
HETATM    5  H   UNL     1     -41.811  57.004 -57.490  1.00  0.00     0.165 HD
HETATM    6  H   UNL     1     -41.799  58.284 -54.397  1.00  0.00     0.170 HD
ENDROOT
BRANCH   3   7
HETATM    7  C   UNL     1     -42.054  56.301 -54.930  1.00  0.00     0.039 A 
HETATM    8  C   UNL     1     -40.940  55.604 -54.454  1.00  0.00     0.066 A 
HETATM    9  C   UNL     1     -40.996  54.217 -54.317  1.00  0.00     0.070 A 
HETATM   10  C   UNL     1     -42.167  53.519 -54.595  1.00  0.00     0.037 A 
HETATM   11  C   UNL     1     -43.278  54.207 -55.077  1.00  0.00     0.005 A 
HETATM   12  C   UNL     1     -43.214  55.590 -55.262  1.00  0.00     0.030 A 
BRANCH   9  13
HETATM   13  O   UNL     1     -39.925  53.514 -53.842  1.00  0.00    -0.349 OA
BRANCH  13  14
HETATM   14  C   UNL     1     -40.317  52.415 -53.000  1.00  0.00     0.197 C 
BRANCH  14  15
HETATM   15  C   UNL     1     -39.669  52.599 -51.636  1.00  0.00     0.177 C 
BRANCH  15  16
HETATM   16  N   UNL     1     -40.432  53.484 -50.782  1.00  0.00    -0.279 N 
HETATM   17  N   UNL     1     -41.766  53.577 -50.940  1.00  0.00    -0.185 NA
HETATM   18  C   UNL     1     -42.130  54.492 -50.038  1.00  0.00     0.140 A 
HETATM   19  C   UNL     1     -41.037  54.977 -49.299  1.00  0.00     0.040 A 
HETATM   20  C   UNL     1     -39.950  54.298 -49.797  1.00  0.00     0.113 A 
ENDBRANCH  15  16
ENDBRANCH  14  15
ENDBRANCH  13  14
ENDBRANCH   9  13
ENDBRANCH   3   7
BRANCH   1  21
HETATM   21  C   UNL     1     -42.856  58.394 -58.735  1.00  0.00     0.039 C 
HETATM   22  C   UNL     1     -41.941  59.587 -59.054  1.00  0.00     0.039 C 
HETATM   23  C   UNL     1     -44.359  58.817 -58.725  1.00  0.00     0.070 C 
HETATM   24  C   UNL     1     -45.042  57.640 -59.359  1.00  0.00    -0.049 A 
HETATM   25  C   UNL     1     -44.128  56.808 -60.006  1.00  0.00    -0.049 A 
HETATM   26  C   UNL     1     -46.401  57.379 -59.414  1.00  0.00     0.007 A 
HETATM   27  C   UNL     1     -42.735  57.341 -59.886  1.00  0.00     0.070 C 
HETATM   28  C   UNL     1     -44.548  55.699 -60.721  1.00  0.00     0.007 A 
HETATM   29  C   UNL     1     -45.914  55.422 -60.775  1.00  0.00     0.001 A 
HETATM   30  C   UNL     1     -46.836  56.257 -60.125  1.00  0.00     0.001 A 
ENDBRANCH   1  21
TORSDOF 6
ENDMDL
MODEL 8
REMARK VINA RESULT:      -7.4      2.625      7.353
REMARK  6 active torsions:
REMARK  status: ('A' for Active; 'I' for Inactive)
REMARK    1  A    between atoms: C_2  and  N_3 
REMARK       I    between atoms: N_3  and  C_4 
REMARK       I    between atoms: C_4  and  N_5 
REMARK    2  A    between atoms: N_5  and  C_6 
REMARK    3  A    between atoms: C_8  and  O_9 
REMARK    4  A    between atoms: O_9  and  C_10 
REMARK    5  A    between atoms: C_10  and  C_11 
REMARK    6  A    between atoms: C_11  and  N_12 
ROOT
HETATM    1  N   UNL     1     -42.209  58.749 -56.789  1.00  0.00    -0.333 N 
HETATM    2  C   UNL     1     -42.222  59.654 -55.768  1.00  0.00     0.321 C 
HETATM    3  N   UNL     1     -41.955  59.157 -54.525  1.00  0.00    -0.309 N 
HETATM    4  O   UNL     1     -42.373  60.861 -55.920  1.00  0.00    -0.247 OA
HETATM    5  H   UNL     1     -41.676  57.915 -56.586  1.00  0.00     0.165 HD
HETATM    6  H   UNL     1     -41.664  59.884 -53.880  1.00  0.00     0.170 HD
ENDROOT
BRANCH   3   7
HETATM    7  C   UNL     1     -42.202  57.888 -53.973  1.00  0.00     0.039 A 
HETATM    8  C   UNL     1     -41.212  56.914 -53.820  1.00  0.00     0.066 A 
HETATM    9  C   UNL     1     -41.553  55.647 -53.345  1.00  0.00     0.070 A 
HETATM   10  C   UNL     1     -42.859  55.354 -52.967  1.00  0.00     0.037 A 
HETATM   11  C   UNL     1     -43.851  56.318 -53.124  1.00  0.00     0.005 A 
HETATM   12  C   UNL     1     -43.527  57.574 -53.644  1.00  0.00     0.030 A 
BRANCH   9  13
HETATM   13  O   UNL     1     -40.601  54.681 -53.175  1.00  0.00    -0.349 OA
BRANCH  13  14
HETATM   14  C   UNL     1     -40.993  53.688 -52.210  1.00  0.00     0.197 C 
BRANCH  14  15
HETATM   15  C   UNL     1     -39.774  52.844 -51.865  1.00  0.00     0.177 C 
BRANCH  15  16
HETATM   16  N   UNL     1     -39.769  51.578 -52.565  1.00  0.00    -0.279 N 
HETATM   17  N   UNL     1     -39.567  50.437 -51.878  1.00  0.00    -0.185 NA
HETATM   18  C   UNL     1     -39.584  49.492 -52.821  1.00  0.00     0.140 A 
HETATM   19  C   UNL     1     -39.804  50.021 -54.105  1.00  0.00     0.040 A 
HETATM   20  C   UNL     1     -39.931  51.375 -53.906  1.00  0.00     0.113 A 
ENDBRANCH  15  16
ENDBRANCH  14  15
ENDBRANCH  13  14
ENDBRANCH   9  13
ENDBRANCH   3   7
BRANCH   1  21
HETATM   21  C   UNL     1     -42.394  59.100 -58.216  1.00  0.00     0.039 C 
HETATM   22  C   UNL     1     -41.623  60.380 -58.571  1.00  0.00     0.039 C 
HETATM   23  C   UNL     1     -43.911  59.235 -58.563  1.00  0.00     0.070 C 
HETATM   24  C   UNL     1     -44.257  57.871 -59.088  1.00  0.00    -0.049 A 
HETATM   25  C   UNL     1     -43.110  57.135 -59.389  1.00  0.00    -0.049 A 
HETATM   26  C   UNL     1     -45.517  57.358 -59.346  1.00  0.00     0.007 A 
HETATM   27  C   UNL     1     -41.872  57.928 -59.110  1.00  0.00     0.070 C 
HETATM   28  C   UNL     1     -43.194  55.874 -59.955  1.00  0.00     0.007 A 
HETATM   29  C   UNL     1     -44.460  55.345 -60.210  1.00  0.00     0.001 A 
HETATM   30  C   UNL     1     -45.614  56.082 -59.908  1.00  0.00     0.001 A 
ENDBRANCH   1  21
TORSDOF 6
ENDMDL
MODEL 9
REMARK VINA RESULT:      -7.2      2.896      7.678
REMARK  6 active torsions:
REMARK  status: ('A' for Active; 'I' for Inactive)
REMARK    1  A    between atoms: C_2  and  N_3 
REMARK       I    between atoms: N_3  and  C_4 
REMARK       I    between atoms: C_4  and  N_5 
REMARK    2  A    between atoms: N_5  and  C_6 
REMARK    3  A    between atoms: C_8  and  O_9 
REMARK    4  A    between atoms: O_9  and  C_10 
REMARK    5  A    between atoms: C_10  and  C_11 
REMARK    6  A    between atoms: C_11  and  N_12 
ROOT
HETATM    1  N   UNL     1     -43.768  57.733 -56.106  1.00  0.00    -0.333 N 
HETATM    2  C   UNL     1     -44.755  57.598 -55.173  1.00  0.00     0.321 C 
HETATM    3  N   UNL     1     -44.433  56.874 -54.062  1.00  0.00    -0.309 N 
HETATM    4  O   UNL     1     -45.848  58.148 -55.244  1.00  0.00    -0.247 OA
HETATM    5  H   UNL     1     -42.838  57.598 -55.736  1.00  0.00     0.165 HD
HETATM    6  H   UNL     1     -45.056  57.069 -53.286  1.00  0.00     0.170 HD
ENDROOT
BRANCH   3   7
HETATM    7  C   UNL     1     -43.539  55.802 -53.895  1.00  0.00     0.039 A 
HETATM    8  C   UNL     1     -42.597  55.744 -52.865  1.00  0.00     0.066 A 
HETATM    9  C   UNL     1     -41.685  54.689 -52.816  1.00  0.00     0.070 A 
HETATM   10  C   UNL     1     -41.735  53.659 -53.750  1.00  0.00     0.037 A 
HETATM   11  C   UNL     1     -42.667  53.715 -54.783  1.00  0.00     0.005 A 
HETATM   12  C   UNL     1     -43.552  54.793 -54.867  1.00  0.00     0.030 A 
BRANCH   9  13
HETATM   13  O   UNL     1     -40.762  54.603 -51.812  1.00  0.00    -0.349 OA
BRANCH  13  14
HETATM   14  C   UNL     1     -40.862  53.370 -51.076  1.00  0.00     0.197 C 
BRANCH  14  15
HETATM   15  C   UNL     1     -39.502  52.691 -51.087  1.00  0.00     0.177 C 
BRANCH  15  16
HETATM   16  N   UNL     1     -39.533  51.414 -51.768  1.00  0.00    -0.279 N 
HETATM   17  N   UNL     1     -39.552  51.377 -53.114  1.00  0.00    -0.185 NA
HETATM   18  C   UNL     1     -39.621  50.074 -53.395  1.00  0.00     0.140 A 
HETATM   19  C   UNL     1     -39.636  49.277 -52.236  1.00  0.00     0.040 A 
HETATM   20  C   UNL     1     -39.568  50.174 -51.196  1.00  0.00     0.113 A 
ENDBRANCH  15  16
ENDBRANCH  14  15
ENDBRANCH  13  14
ENDBRANCH   9  13
ENDBRANCH   3   7
BRANCH   1  21
HETATM   21  C   UNL     1     -43.892  58.545 -57.338  1.00  0.00     0.039 C 
HETATM   22  C   UNL     1     -43.424  59.988 -57.093  1.00  0.00     0.039 C 
HETATM   23  C   UNL     1     -45.353  58.506 -57.886  1.00  0.00     0.070 C 
HETATM   24  C   UNL     1     -45.303  57.396 -58.895  1.00  0.00    -0.049 A 
HETATM   25  C   UNL     1     -43.988  57.058 -59.216  1.00  0.00    -0.049 A 
HETATM   26  C   UNL     1     -46.369  56.784 -59.534  1.00  0.00     0.007 A 
HETATM   27  C   UNL     1     -43.014  57.913 -58.467  1.00  0.00     0.070 C 
HETATM   28  C   UNL     1     -43.706  56.106 -60.181  1.00  0.00     0.007 A 
HETATM   29  C   UNL     1     -44.773  55.477 -60.824  1.00  0.00     0.001 A 
HETATM   30  C   UNL     1     -46.096  55.814 -60.503  1.00  0.00     0.001 A 
ENDBRANCH   1  21
TORSDOF 6
ENDMDL
MODEL 10
REMARK VINA RESULT:      -7.1      2.221      7.548
REMARK  6 active torsions:
REMARK  status: ('A' for Active; 'I' for Inactive)
REMARK    1  A    between atoms: C_2  and  N_3 
REMARK       I    between atoms: N_3  and  C_4 
REMARK       I    between atoms: C_4  and  N_5 
REMARK    2  A    between atoms: N_5  and  C_6 
REMARK    3  A    between atoms: C_8  and  O_9 
REMARK    4  A    between atoms: O_9  and  C_10 
REMARK    5  A    between atoms: C_10  and  C_11 
REMARK    6  A    between atoms: C_11  and  N_12 
ROOT
HETATM    1  N   UNL     1     -42.712  57.069 -56.702  1.00  0.00    -0.333 N 
HETATM    2  C   UNL     1     -43.170  55.917 -57.272  1.00  0.00     0.321 C 
HETATM    3  N   UNL     1     -43.210  54.821 -56.458  1.00  0.00    -0.309 N 
HETATM    4  O   UNL     1     -43.610  55.841 -58.414  1.00  0.00    -0.247 OA
HETATM    5  H   UNL     1     -42.788  57.082 -55.694  1.00  0.00     0.165 HD
HETATM    6  H   UNL     1     -43.835  54.107 -56.813  1.00  0.00     0.170 HD
ENDROOT
BRANCH   3   7
HETATM    7  C   UNL     1     -42.404  54.465 -55.363  1.00  0.00     0.039 A 
HETATM    8  C   UNL     1     -42.915  54.227 -54.083  1.00  0.00     0.066 A 
HETATM    9  C   UNL     1     -42.043  53.963 -53.027  1.00  0.00     0.070 A 
HETATM   10  C   UNL     1     -40.670  53.877 -53.238  1.00  0.00     0.037 A 
HETATM   11  C   UNL     1     -40.156  54.120 -54.509  1.00  0.00     0.005 A 
HETATM   12  C   UNL     1     -41.019  54.433 -55.563  1.00  0.00     0.030 A 
BRANCH   9  13
HETATM   13  O   UNL     1     -42.517  53.715 -51.769  1.00  0.00    -0.349 OA
BRANCH  13  14
HETATM   14  C   UNL     1     -43.529  54.655 -51.368  1.00  0.00     0.197 C 
BRANCH  14  15
HETATM   15  C   UNL     1     -42.844  55.882 -50.784  1.00  0.00     0.177 C 
BRANCH  15  16
HETATM   16  N   UNL     1     -43.593  57.095 -51.031  1.00  0.00    -0.279 N 
HETATM   17  N   UNL     1     -44.916  57.125 -50.779  1.00  0.00    -0.185 NA
HETATM   18  C   UNL     1     -45.282  58.354 -51.151  1.00  0.00     0.140 A 
HETATM   19  C   UNL     1     -44.199  59.112 -51.631  1.00  0.00     0.040 A 
HETATM   20  C   UNL     1     -43.116  58.272 -51.532  1.00  0.00     0.113 A 
ENDBRANCH  15  16
ENDBRANCH  14  15
ENDBRANCH  13  14
ENDBRANCH   9  13
ENDBRANCH   3   7
BRANCH   1  21
HETATM   21  C   UNL     1     -42.668  58.379 -57.390  1.00  0.00     0.039 C 
HETATM   22  C   UNL     1     -41.894  58.278 -58.714  1.00  0.00     0.039 C 
HETATM   23  C   UNL     1     -42.062  59.477 -56.460  1.00  0.00     0.070 C 
HETATM   24  C   UNL     1     -43.279  60.099 -55.839  1.00  0.00    -0.049 A 
HETATM   25  C   UNL     1     -44.439  59.745 -56.528  1.00  0.00    -0.049 A 
HETATM   26  C   UNL     1     -43.328  60.983 -54.774  1.00  0.00     0.007 A 
HETATM   27  C   UNL     1     -44.126  58.857 -57.691  1.00  0.00     0.070 C 
HETATM   28  C   UNL     1     -45.673  60.265 -56.171  1.00  0.00     0.007 A 
HETATM   29  C   UNL     1     -45.734  61.149 -55.094  1.00  0.00     0.001 A 
HETATM   30  C   UNL     1     -44.569  61.506 -54.399  1.00  0.00     0.001 A 
ENDBRANCH   1  21
TORSDOF 6
ENDMDL
