MODEL 1
REMARK VINA RESULT:      -8.7      0.000      0.000
REMARK  9 active torsions:
REMARK  status: ('A' for Active; 'I' for Inactive)
REMARK    1  A    between atoms: C_9  and  O_10 
REMARK    2  A    between atoms: O_10  and  C_11 
REMARK    3  A    between atoms: C_22  and  C_23 
REMARK    4  A    between atoms: N_30  and  C_31 
REMARK    5  A    between atoms: C_31  and  C_32 
REMARK    6  A    between atoms: C_32  and  O_33 
REMARK    7  A    between atoms: O_33  and  C_34 
REMARK    8  A    between atoms: C_35  and  C_36 
REMARK    9  A    between atoms: C_36  and  C_37 
ROOT
HETATM    1  H   UNL     1     -42.277  56.944 -59.307  1.00  0.00     0.188 HD
HETATM    2  N   UNL     1     -42.397  56.821 -58.297  1.00  0.00    -0.282 NA
HETATM    3  C   UNL     1     -42.701  57.971 -57.769  1.00  0.00     0.155 C 
HETATM    4  N   UNL     1     -42.748  59.147 -58.484  1.00  0.00    -0.230 N 
HETATM    5  C   UNL     1     -43.129  60.336 -57.888  1.00  0.00     0.195 A 
HETATM    6  N   UNL     1     -43.549  60.512 -56.686  1.00  0.00    -0.183 NA
HETATM    7  N   UNL     1     -42.307  59.279 -59.803  1.00  0.00    -0.186 NA
HETATM    8  C   UNL     1     -42.271  60.609 -60.216  1.00  0.00     0.094 A 
HETATM    9  C   UNL     1     -41.741  61.071 -61.358  1.00  0.00     0.175 C 
HETATM   10  S   UNL     1     -42.943  61.706 -58.999  1.00  0.00    -0.035 SA
HETATM   11  C   UNL     1     -43.022  58.121 -56.307  1.00  0.00     0.082 C 
HETATM   12  C   UNL     1     -43.706  59.400 -55.878  1.00  0.00     0.283 C 
HETATM   13  O   UNL     1     -44.400  59.452 -54.871  1.00  0.00    -0.265 OA
HETATM   14  C   UNL     1     -42.650  57.123 -55.481  1.00  0.00     0.034 C 
HETATM   15  H   UNL     1     -41.434  58.799 -60.023  1.00  0.00     0.154 HD
ENDROOT
BRANCH  14  16
HETATM   16  C   UNL     1     -42.695  57.064 -54.055  1.00  0.00    -0.007 A 
HETATM   17  C   UNL     1     -41.752  57.633 -53.150  1.00  0.00     0.002 A 
HETATM   18  C   UNL     1     -42.241  57.430 -51.849  1.00  0.00     0.045 A 
HETATM   19  C   UNL     1     -40.527  58.318 -53.322  1.00  0.00     0.014 A 
HETATM   20  C   UNL     1     -41.536  57.908 -50.731  1.00  0.00     0.030 A 
HETATM   21  N   UNL     1     -43.433  56.742 -51.970  1.00  0.00    -0.353 N 
HETATM   22  C   UNL     1     -40.324  58.576 -50.930  1.00  0.00     0.002 A 
HETATM   23  C   UNL     1     -39.822  58.779 -52.208  1.00  0.00     0.001 A 
HETATM   24  C   UNL     1     -43.725  56.551 -53.303  1.00  0.00     0.103 A 
BRANCH  21  25
HETATM   25  C   UNL     1     -44.370  56.357 -50.920  1.00  0.00     0.155 C 
BRANCH  25  26
HETATM   26  C   UNL     1     -44.305  54.911 -50.427  1.00  0.00     0.196 C 
BRANCH  26  27
HETATM   27  O   UNL     1     -43.352  54.226 -51.242  1.00  0.00    -0.349 OA
BRANCH  27  28
HETATM   28  C   UNL     1     -42.064  54.103 -50.804  1.00  0.00     0.075 A 
HETATM   29  C   UNL     1     -41.140  53.643 -51.763  1.00  0.00    -0.021 A 
HETATM   30  C   UNL     1     -39.787  53.519 -51.410  1.00  0.00     0.010 A 
HETATM   31  C   UNL     1     -39.359  53.832 -50.121  1.00  0.00     0.001 A 
HETATM   32  C   UNL     1     -40.279  54.273 -49.175  1.00  0.00     0.003 A 
HETATM   33  C   UNL     1     -41.628  54.410 -49.513  1.00  0.00     0.037 A 
BRANCH  29  34
HETATM   34  C   UNL     1     -41.572  53.285 -53.172  1.00  0.00     0.067 C 
BRANCH  34  35
HETATM   35  C   UNL     1     -40.545  53.443 -54.263  1.00  0.00    -0.032 C 
HETATM   36  C   UNL     1     -40.145  54.574 -54.862  1.00  0.00     0.007 C 
ENDBRANCH  34  35
ENDBRANCH  29  34
ENDBRANCH  27  28
ENDBRANCH  26  27
ENDBRANCH  25  26
ENDBRANCH  21  25
ENDBRANCH  14  16
BRANCH   9  37
HETATM   37  O   UNL     1     -41.695  62.408 -61.678  1.00  0.00    -0.320 OA
BRANCH  37  38
HETATM   38  C   UNL     1     -40.541  62.924 -62.222  1.00  0.00     0.081 A 
HETATM   39  C   UNL     1     -39.587  63.444 -61.334  1.00  0.00    -0.028 A 
HETATM   40  C   UNL     1     -39.834  63.457 -59.852  1.00  0.00     0.051 C 
HETATM   41  C   UNL     1     -38.367  63.910 -61.844  1.00  0.00     0.009 A 
HETATM   42  C   UNL     1     -38.107  63.861 -63.215  1.00  0.00     0.001 A 
HETATM   43  C   UNL     1     -39.055  63.329 -64.087  1.00  0.00     0.003 A 
HETATM   44  C   UNL     1     -40.267  62.848 -63.592  1.00  0.00     0.038 A 
ENDBRANCH  37  38
ENDBRANCH   9  37
TORSDOF 9
ENDMDL
MODEL 2
REMARK VINA RESULT:      -8.7      1.380      1.893
REMARK  9 active torsions:
REMARK  status: ('A' for Active; 'I' for Inactive)
REMARK    1  A    between atoms: C_9  and  O_10 
REMARK    2  A    between atoms: O_10  and  C_11 
REMARK    3  A    between atoms: C_22  and  C_23 
REMARK    4  A    between atoms: N_30  and  C_31 
REMARK    5  A    between atoms: C_31  and  C_32 
REMARK    6  A    between atoms: C_32  and  O_33 
REMARK    7  A    between atoms: O_33  and  C_34 
REMARK    8  A    between atoms: C_35  and  C_36 
REMARK    9  A    between atoms: C_36  and  C_37 
ROOT
HETATM    1  H   UNL     1     -42.514  56.163 -59.025  1.00  0.00     0.188 HD
HETATM    2  N   UNL     1     -42.479  56.043 -58.009  1.00  0.00    -0.282 NA
HETATM    3  C   UNL     1     -42.721  57.191 -57.444  1.00  0.00     0.155 C 
HETATM    4  N   UNL     1     -42.896  58.362 -58.147  1.00  0.00    -0.230 N 
HETATM    5  C   UNL     1     -43.206  59.547 -57.504  1.00  0.00     0.195 A 
HETATM    6  N   UNL     1     -43.445  59.722 -56.253  1.00  0.00    -0.183 NA
HETATM    7  N   UNL     1     -42.660  58.495 -59.518  1.00  0.00    -0.186 NA
HETATM    8  C   UNL     1     -42.710  59.823 -59.935  1.00  0.00     0.094 A 
HETATM    9  C   UNL     1     -42.365  60.288 -61.144  1.00  0.00     0.175 C 
HETATM   10  S   UNL     1     -43.213  60.915 -58.633  1.00  0.00    -0.035 SA
HETATM   11  C   UNL     1     -42.823  57.343 -55.951  1.00  0.00     0.082 C 
HETATM   12  C   UNL     1     -43.459  58.612 -55.428  1.00  0.00     0.283 C 
HETATM   13  O   UNL     1     -43.996  58.656 -54.329  1.00  0.00    -0.265 OA
HETATM   14  C   UNL     1     -42.314  56.356 -55.188  1.00  0.00     0.034 C 
HETATM   15  H   UNL     1     -41.821  58.029 -59.864  1.00  0.00     0.154 HD
ENDROOT
BRANCH  14  16
HETATM   16  C   UNL     1     -42.145  56.303 -53.770  1.00  0.00    -0.007 A 
HETATM   17  C   UNL     1     -41.399  57.215 -52.969  1.00  0.00     0.002 A 
HETATM   18  C   UNL     1     -41.591  56.851 -51.627  1.00  0.00     0.045 A 
HETATM   19  C   UNL     1     -40.584  58.333 -53.265  1.00  0.00     0.014 A 
HETATM   20  C   UNL     1     -40.996  57.587 -50.587  1.00  0.00     0.030 A 
HETATM   21  N   UNL     1     -42.412  55.740 -51.624  1.00  0.00    -0.353 N 
HETATM   22  C   UNL     1     -40.190  58.684 -50.909  1.00  0.00     0.002 A 
HETATM   23  C   UNL     1     -39.984  59.054 -52.231  1.00  0.00     0.001 A 
HETATM   24  C   UNL     1     -42.775  55.430 -52.917  1.00  0.00     0.103 A 
BRANCH  21  25
HETATM   25  C   UNL     1     -42.971  55.026 -50.481  1.00  0.00     0.155 C 
BRANCH  25  26
HETATM   26  C   UNL     1     -41.989  54.261 -49.593  1.00  0.00     0.196 C 
BRANCH  26  27
HETATM   27  O   UNL     1     -40.839  53.962 -50.388  1.00  0.00    -0.349 OA
BRANCH  27  28
HETATM   28  C   UNL     1     -40.499  52.658 -50.606  1.00  0.00     0.075 A 
HETATM   29  C   UNL     1     -40.028  52.363 -51.901  1.00  0.00    -0.021 A 
HETATM   30  C   UNL     1     -39.623  51.052 -52.203  1.00  0.00     0.010 A 
HETATM   31  C   UNL     1     -39.700  50.047 -51.241  1.00  0.00     0.001 A 
HETATM   32  C   UNL     1     -40.178  50.342 -49.968  1.00  0.00     0.003 A 
HETATM   33  C   UNL     1     -40.577  51.643 -49.649  1.00  0.00     0.037 A 
BRANCH  29  34
HETATM   34  C   UNL     1     -39.940  53.430 -52.974  1.00  0.00     0.067 C 
BRANCH  34  35
HETATM   35  C   UNL     1     -40.278  53.013 -54.382  1.00  0.00    -0.032 C 
HETATM   36  C   UNL     1     -40.214  53.751 -55.499  1.00  0.00     0.007 C 
ENDBRANCH  34  35
ENDBRANCH  29  34
ENDBRANCH  27  28
ENDBRANCH  26  27
ENDBRANCH  25  26
ENDBRANCH  21  25
ENDBRANCH  14  16
BRANCH   9  37
HETATM   37  O   UNL     1     -42.392  61.625 -61.471  1.00  0.00    -0.320 OA
BRANCH  37  38
HETATM   38  C   UNL     1     -41.202  62.306 -61.587  1.00  0.00     0.081 A 
HETATM   39  C   UNL     1     -40.859  62.792 -62.859  1.00  0.00    -0.028 A 
HETATM   40  C   UNL     1     -41.750  62.553 -64.045  1.00  0.00     0.051 C 
HETATM   41  C   UNL     1     -39.691  63.553 -63.002  1.00  0.00     0.009 A 
HETATM   42  C   UNL     1     -38.879  63.821 -61.898  1.00  0.00     0.001 A 
HETATM   43  C   UNL     1     -39.235  63.346 -60.638  1.00  0.00     0.003 A 
HETATM   44  C   UNL     1     -40.403  62.599 -60.477  1.00  0.00     0.038 A 
ENDBRANCH  37  38
ENDBRANCH   9  37
TORSDOF 9
ENDMDL
MODEL 3
REMARK VINA RESULT:      -8.7      3.110     10.255
REMARK  9 active torsions:
REMARK  status: ('A' for Active; 'I' for Inactive)
REMARK    1  A    between atoms: C_9  and  O_10 
REMARK    2  A    between atoms: O_10  and  C_11 
REMARK    3  A    between atoms: C_22  and  C_23 
REMARK    4  A    between atoms: N_30  and  C_31 
REMARK    5  A    between atoms: C_31  and  C_32 
REMARK    6  A    between atoms: C_32  and  O_33 
REMARK    7  A    between atoms: O_33  and  C_34 
REMARK    8  A    between atoms: C_35  and  C_36 
REMARK    9  A    between atoms: C_36  and  C_37 
ROOT
HETATM    1  H   UNL     1     -41.344  58.494 -52.632  1.00  0.00     0.188 HD
HETATM    2  N   UNL     1     -41.759  59.090 -53.355  1.00  0.00    -0.282 NA
HETATM    3  C   UNL     1     -42.230  58.331 -54.301  1.00  0.00     0.155 C 
HETATM    4  N   UNL     1     -42.084  56.962 -54.321  1.00  0.00    -0.230 N 
HETATM    5  C   UNL     1     -42.651  56.193 -55.323  1.00  0.00     0.195 A 
HETATM    6  N   UNL     1     -43.417  56.588 -56.277  1.00  0.00    -0.183 NA
HETATM    7  N   UNL     1     -41.270  56.248 -53.438  1.00  0.00    -0.186 NA
HETATM    8  C   UNL     1     -41.139  54.911 -53.805  1.00  0.00     0.094 A 
HETATM    9  C   UNL     1     -40.300  54.018 -53.262  1.00  0.00     0.175 C 
HETATM   10  S   UNL     1     -42.167  54.492 -55.186  1.00  0.00    -0.035 SA
HETATM   11  C   UNL     1     -42.979  58.892 -55.480  1.00  0.00     0.082 C 
HETATM   12  C   UNL     1     -43.786  57.920 -56.312  1.00  0.00     0.283 C 
HETATM   13  O   UNL     1     -44.752  58.284 -56.969  1.00  0.00    -0.265 OA
HETATM   14  C   UNL     1     -42.853  60.210 -55.728  1.00  0.00     0.034 C 
HETATM   15  H   UNL     1     -40.362  56.670 -53.242  1.00  0.00     0.154 HD
ENDROOT
BRANCH  14  16
HETATM   16  C   UNL     1     -43.323  60.971 -56.842  1.00  0.00    -0.007 A 
HETATM   17  C   UNL     1     -42.535  61.492 -57.909  1.00  0.00     0.002 A 
HETATM   18  C   UNL     1     -43.414  62.075 -58.835  1.00  0.00     0.045 A 
HETATM   19  C   UNL     1     -41.147  61.508 -58.178  1.00  0.00     0.014 A 
HETATM   20  C   UNL     1     -42.931  62.657 -60.020  1.00  0.00     0.030 A 
HETATM   21  N   UNL     1     -44.691  61.926 -58.328  1.00  0.00    -0.353 N 
HETATM   22  C   UNL     1     -41.553  62.665 -60.258  1.00  0.00     0.002 A 
HETATM   23  C   UNL     1     -40.669  62.099 -59.350  1.00  0.00     0.001 A 
HETATM   24  C   UNL     1     -44.639  61.228 -57.142  1.00  0.00     0.103 A 
BRANCH  21  25
HETATM   25  C   UNL     1     -45.962  62.292 -58.945  1.00  0.00     0.155 C 
BRANCH  25  26
HETATM   26  C   UNL     1     -46.756  61.170 -59.616  1.00  0.00     0.196 C 
BRANCH  26  27
HETATM   27  O   UNL     1     -45.826  60.363 -60.340  1.00  0.00    -0.349 OA
BRANCH  27  28
HETATM   28  C   UNL     1     -45.865  59.006 -60.196  1.00  0.00     0.075 A 
HETATM   29  C   UNL     1     -44.640  58.340 -60.401  1.00  0.00    -0.021 A 
HETATM   30  C   UNL     1     -44.580  56.946 -60.239  1.00  0.00     0.010 A 
HETATM   31  C   UNL     1     -45.720  56.223 -59.897  1.00  0.00     0.001 A 
HETATM   32  C   UNL     1     -46.930  56.885 -59.709  1.00  0.00     0.003 A 
HETATM   33  C   UNL     1     -47.005  58.273 -59.857  1.00  0.00     0.037 A 
BRANCH  29  34
HETATM   34  C   UNL     1     -43.382  59.095 -60.783  1.00  0.00     0.067 C 
BRANCH  34  35
HETATM   35  C   UNL     1     -42.067  58.482 -60.377  1.00  0.00    -0.032 C 
HETATM   36  C   UNL     1     -41.678  58.100 -59.153  1.00  0.00     0.007 C 
ENDBRANCH  34  35
ENDBRANCH  29  34
ENDBRANCH  27  28
ENDBRANCH  26  27
ENDBRANCH  25  26
ENDBRANCH  21  25
ENDBRANCH  14  16
BRANCH   9  37
HETATM   37  O   UNL     1     -40.187  52.722 -53.711  1.00  0.00    -0.320 OA
BRANCH  37  38
HETATM   38  C   UNL     1     -40.067  51.706 -52.790  1.00  0.00     0.081 A 
HETATM   39  C   UNL     1     -39.798  50.419 -53.281  1.00  0.00    -0.028 A 
HETATM   40  C   UNL     1     -39.671  50.164 -54.757  1.00  0.00     0.051 C 
HETATM   41  C   UNL     1     -39.596  49.374 -52.370  1.00  0.00     0.009 A 
HETATM   42  C   UNL     1     -39.665  49.608 -50.995  1.00  0.00     0.001 A 
HETATM   43  C   UNL     1     -39.918  50.892 -50.517  1.00  0.00     0.003 A 
HETATM   44  C   UNL     1     -40.107  51.945 -51.412  1.00  0.00     0.038 A 
ENDBRANCH  37  38
ENDBRANCH   9  37
TORSDOF 9
ENDMDL
MODEL 4
REMARK VINA RESULT:      -8.6      3.615     10.556
REMARK  9 active torsions:
REMARK  status: ('A' for Active; 'I' for Inactive)
REMARK    1  A    between atoms: C_9  and  O_10 
REMARK    2  A    between atoms: O_10  and  C_11 
REMARK    3  A    between atoms: C_22  and  C_23 
REMARK    4  A    between atoms: N_30  and  C_31 
REMARK    5  A    between atoms: C_31  and  C_32 
REMARK    6  A    between atoms: C_32  and  O_33 
REMARK    7  A    between atoms: O_33  and  C_34 
REMARK    8  A    between atoms: C_35  and  C_36 
REMARK    9  A    between atoms: C_36  and  C_37 
ROOT
HETATM    1  H   UNL     1     -40.164  58.605 -52.776  1.00  0.00     0.188 HD
HETATM    2  N   UNL     1     -40.666  58.986 -53.583  1.00  0.00    -0.282 NA
HETATM    3  C   UNL     1     -41.615  58.159 -53.913  1.00  0.00     0.155 C 
HETATM    4  N   UNL     1     -41.809  56.941 -53.301  1.00  0.00    -0.230 N 
HETATM    5  C   UNL     1     -42.866  56.120 -53.652  1.00  0.00     0.195 A 
HETATM    6  N   UNL     1     -43.816  56.375 -54.481  1.00  0.00    -0.183 NA
HETATM    7  N   UNL     1     -40.916  56.372 -52.389  1.00  0.00    -0.186 NA
HETATM    8  C   UNL     1     -41.244  55.053 -52.083  1.00  0.00     0.094 A 
HETATM    9  C   UNL     1     -40.496  54.193 -51.378  1.00  0.00     0.175 C 
HETATM   10  S   UNL     1     -42.776  54.556 -52.821  1.00  0.00    -0.035 SA
HETATM   11  C   UNL     1     -42.593  58.461 -55.016  1.00  0.00     0.082 C 
HETATM   12  C   UNL     1     -43.851  57.624 -55.072  1.00  0.00     0.283 C 
HETATM   13  O   UNL     1     -44.878  58.042 -55.591  1.00  0.00    -0.265 OA
HETATM   14  C   UNL     1     -42.264  59.432 -55.892  1.00  0.00     0.034 C 
HETATM   15  H   UNL     1     -39.929  56.463 -52.629  1.00  0.00     0.154 HD
ENDROOT
BRANCH  14  16
HETATM   16  C   UNL     1     -42.921  59.823 -57.098  1.00  0.00    -0.007 A 
HETATM   17  C   UNL     1     -42.672  59.313 -58.406  1.00  0.00     0.002 A 
HETATM   18  C   UNL     1     -43.614  59.894 -59.270  1.00  0.00     0.045 A 
HETATM   19  C   UNL     1     -41.735  58.395 -58.932  1.00  0.00     0.014 A 
HETATM   20  C   UNL     1     -43.638  59.564 -60.636  1.00  0.00     0.030 A 
HETATM   21  N   UNL     1     -44.392  60.743 -58.507  1.00  0.00    -0.353 N 
HETATM   22  C   UNL     1     -42.696  58.658 -61.131  1.00  0.00     0.002 A 
HETATM   23  C   UNL     1     -41.753  58.079 -60.292  1.00  0.00     0.001 A 
HETATM   24  C   UNL     1     -43.996  60.674 -57.189  1.00  0.00     0.103 A 
BRANCH  21  25
HETATM   25  C   UNL     1     -45.555  61.523 -58.915  1.00  0.00     0.155 C 
BRANCH  25  26
HETATM   26  C   UNL     1     -46.887  60.780 -59.018  1.00  0.00     0.196 C 
BRANCH  26  27
HETATM   27  O   UNL     1     -46.590  59.390 -59.169  1.00  0.00    -0.349 OA
BRANCH  27  28
HETATM   28  C   UNL     1     -47.183  58.686 -60.177  1.00  0.00     0.075 A 
HETATM   29  C   UNL     1     -46.776  57.342 -60.297  1.00  0.00    -0.021 A 
HETATM   30  C   UNL     1     -47.359  56.533 -61.286  1.00  0.00     0.010 A 
HETATM   31  C   UNL     1     -48.320  57.053 -62.152  1.00  0.00     0.001 A 
HETATM   32  C   UNL     1     -48.708  58.384 -62.036  1.00  0.00     0.003 A 
HETATM   33  C   UNL     1     -48.143  59.201 -61.052  1.00  0.00     0.037 A 
BRANCH  29  34
HETATM   34  C   UNL     1     -45.727  56.746 -59.379  1.00  0.00     0.067 C 
BRANCH  34  35
HETATM   35  C   UNL     1     -44.721  55.814 -60.003  1.00  0.00    -0.032 C 
HETATM   36  C   UNL     1     -44.360  54.592 -59.587  1.00  0.00     0.007 C 
ENDBRANCH  34  35
ENDBRANCH  29  34
ENDBRANCH  27  28
ENDBRANCH  26  27
ENDBRANCH  25  26
ENDBRANCH  21  25
ENDBRANCH  14  16
BRANCH   9  37
HETATM   37  O   UNL     1     -40.861  52.885 -51.157  1.00  0.00    -0.320 OA
BRANCH  37  38
HETATM   38  C   UNL     1     -40.301  51.897 -51.934  1.00  0.00     0.081 A 
HETATM   39  C   UNL     1     -39.987  50.682 -51.306  1.00  0.00    -0.028 A 
HETATM   40  C   UNL     1     -40.235  50.483 -49.837  1.00  0.00     0.051 C 
HETATM   41  C   UNL     1     -39.485  49.627 -52.081  1.00  0.00     0.009 A 
HETATM   42  C   UNL     1     -39.295  49.785 -53.455  1.00  0.00     0.001 A 
HETATM   43  C   UNL     1     -39.622  50.991 -54.072  1.00  0.00     0.003 A 
HETATM   44  C   UNL     1     -40.137  52.044 -53.316  1.00  0.00     0.038 A 
ENDBRANCH  37  38
ENDBRANCH   9  37
TORSDOF 9
ENDMDL
MODEL 5
REMARK VINA RESULT:      -8.5      6.824     11.521
REMARK  9 active torsions:
REMARK  status: ('A' for Active; 'I' for Inactive)
REMARK    1  A    between atoms: C_9  and  O_10 
REMARK    2  A    between atoms: O_10  and  C_11 
REMARK    3  A    between atoms: C_22  and  C_23 
REMARK    4  A    between atoms: N_30  and  C_31 
REMARK    5  A    between atoms: C_31  and  C_32 
REMARK    6  A    between atoms: C_32  and  O_33 
REMARK    7  A    between atoms: O_33  and  C_34 
REMARK    8  A    between atoms: C_35  and  C_36 
REMARK    9  A    between atoms: C_36  and  C_37 
ROOT
HETATM    1  H   UNL     1     -41.141  59.748 -50.853  1.00  0.00     0.188 HD
HETATM    2  N   UNL     1     -42.010  60.287 -50.800  1.00  0.00    -0.282 NA
HETATM    3  C   UNL     1     -43.013  59.482 -50.999  1.00  0.00     0.155 C 
HETATM    4  N   UNL     1     -42.867  58.150 -51.316  1.00  0.00    -0.230 N 
HETATM    5  C   UNL     1     -43.966  57.322 -51.465  1.00  0.00     0.195 A 
HETATM    6  N   UNL     1     -45.202  57.614 -51.264  1.00  0.00    -0.183 NA
HETATM    7  N   UNL     1     -41.647  57.551 -51.637  1.00  0.00    -0.186 NA
HETATM    8  C   UNL     1     -41.807  56.253 -52.119  1.00  0.00     0.094 A 
HETATM    9  C   UNL     1     -40.852  55.486 -52.662  1.00  0.00     0.175 C 
HETATM   10  S   UNL     1     -43.490  55.709 -52.029  1.00  0.00    -0.035 SA
HETATM   11  C   UNL     1     -44.442  59.945 -50.907  1.00  0.00     0.082 C 
HETATM   12  C   UNL     1     -45.508  58.877 -50.792  1.00  0.00     0.283 C 
HETATM   13  O   UNL     1     -46.592  59.106 -50.273  1.00  0.00    -0.265 OA
HETATM   14  C   UNL     1     -44.672  61.271 -50.966  1.00  0.00     0.034 C 
HETATM   15  H   UNL     1     -41.036  58.099 -52.243  1.00  0.00     0.154 HD
ENDROOT
BRANCH  14  16
HETATM   16  C   UNL     1     -45.914  61.971 -51.049  1.00  0.00    -0.007 A 
HETATM   17  C   UNL     1     -46.627  62.569 -49.970  1.00  0.00     0.002 A 
HETATM   18  C   UNL     1     -47.734  63.239 -50.515  1.00  0.00     0.045 A 
HETATM   19  C   UNL     1     -46.422  62.612 -48.571  1.00  0.00     0.014 A 
HETATM   20  C   UNL     1     -48.621  63.954 -49.692  1.00  0.00     0.030 A 
HETATM   21  N   UNL     1     -47.697  63.033 -51.881  1.00  0.00    -0.353 N 
HETATM   22  C   UNL     1     -48.398  63.975 -48.312  1.00  0.00     0.002 A 
HETATM   23  C   UNL     1     -47.313  63.312 -47.755  1.00  0.00     0.001 A 
HETATM   24  C   UNL     1     -46.579  62.296 -52.207  1.00  0.00     0.103 A 
BRANCH  21  25
HETATM   25  C   UNL     1     -48.577  63.581 -52.907  1.00  0.00     0.155 C 
BRANCH  25  26
HETATM   26  C   UNL     1     -49.138  62.600 -53.937  1.00  0.00     0.196 C 
BRANCH  26  27
HETATM   27  O   UNL     1     -50.374  63.139 -54.409  1.00  0.00    -0.349 OA
BRANCH  27  28
HETATM   28  C   UNL     1     -51.301  62.301 -54.959  1.00  0.00     0.075 A 
HETATM   29  C   UNL     1     -52.638  62.551 -54.589  1.00  0.00    -0.021 A 
HETATM   30  C   UNL     1     -53.662  61.759 -55.134  1.00  0.00     0.010 A 
HETATM   31  C   UNL     1     -53.363  60.724 -56.018  1.00  0.00     0.001 A 
HETATM   32  C   UNL     1     -52.040  60.474 -56.369  1.00  0.00     0.003 A 
HETATM   33  C   UNL     1     -51.010  61.258 -55.842  1.00  0.00     0.037 A 
BRANCH  29  34
HETATM   34  C   UNL     1     -52.998  63.663 -53.623  1.00  0.00     0.067 C 
BRANCH  34  35
HETATM   35  C   UNL     1     -53.121  63.290 -52.168  1.00  0.00    -0.032 C 
HETATM   36  C   UNL     1     -52.145  62.929 -51.324  1.00  0.00     0.007 C 
ENDBRANCH  34  35
ENDBRANCH  29  34
ENDBRANCH  27  28
ENDBRANCH  26  27
ENDBRANCH  25  26
ENDBRANCH  21  25
ENDBRANCH  14  16
BRANCH   9  37
HETATM   37  O   UNL     1     -41.094  54.228 -53.166  1.00  0.00    -0.320 OA
BRANCH  37  38
HETATM   38  C   UNL     1     -40.683  53.131 -52.443  1.00  0.00     0.081 A 
HETATM   39  C   UNL     1     -40.070  52.085 -53.150  1.00  0.00    -0.028 A 
HETATM   40  C   UNL     1     -39.894  52.157 -54.641  1.00  0.00     0.051 C 
HETATM   41  C   UNL     1     -39.573  50.985 -52.439  1.00  0.00     0.009 A 
HETATM   42  C   UNL     1     -39.689  50.928 -51.048  1.00  0.00     0.001 A 
HETATM   43  C   UNL     1     -40.287  51.978 -50.354  1.00  0.00     0.003 A 
HETATM   44  C   UNL     1     -40.773  53.086 -51.048  1.00  0.00     0.038 A 
ENDBRANCH  37  38
ENDBRANCH   9  37
TORSDOF 9
ENDMDL
MODEL 6
REMARK VINA RESULT:      -8.5      4.881      9.926
REMARK  9 active torsions:
REMARK  status: ('A' for Active; 'I' for Inactive)
REMARK    1  A    between atoms: C_9  and  O_10 
REMARK    2  A    between atoms: O_10  and  C_11 
REMARK    3  A    between atoms: C_22  and  C_23 
REMARK    4  A    between atoms: N_30  and  C_31 
REMARK    5  A    between atoms: C_31  and  C_32 
REMARK    6  A    between atoms: C_32  and  O_33 
REMARK    7  A    between atoms: O_33  and  C_34 
REMARK    8  A    between atoms: C_35  and  C_36 
REMARK    9  A    between atoms: C_36  and  C_37 
ROOT
HETATM    1  H   UNL     1     -40.080  58.336 -50.356  1.00  0.00     0.188 HD
HETATM    2  N   UNL     1     -40.877  58.883 -50.696  1.00  0.00    -0.282 NA
HETATM    3  C   UNL     1     -41.890  58.083 -50.865  1.00  0.00     0.155 C 
HETATM    4  N   UNL     1     -41.819  56.719 -50.689  1.00  0.00    -0.230 N 
HETATM    5  C   UNL     1     -42.939  55.917 -50.828  1.00  0.00     0.195 A 
HETATM    6  N   UNL     1     -44.150  56.291 -51.045  1.00  0.00    -0.183 NA
HETATM    7  N   UNL     1     -40.629  56.016 -50.488  1.00  0.00    -0.186 NA
HETATM    8  C   UNL     1     -40.814  54.637 -50.548  1.00  0.00     0.094 A 
HETATM    9  C   UNL     1     -39.849  53.707 -50.561  1.00  0.00     0.175 C 
HETATM   10  S   UNL     1     -42.523  54.197 -50.705  1.00  0.00    -0.035 SA
HETATM   11  C   UNL     1     -43.245  58.585 -51.284  1.00  0.00     0.082 C 
HETATM   12  C   UNL     1     -44.417  57.647 -51.097  1.00  0.00     0.283 C 
HETATM   13  O   UNL     1     -45.560  58.065 -50.963  1.00  0.00    -0.265 OA
HETATM   14  C   UNL     1     -43.314  59.818 -51.823  1.00  0.00     0.034 C 
HETATM   15  H   UNL     1     -39.843  56.311 -51.068  1.00  0.00     0.154 HD
ENDROOT
BRANCH  14  16
HETATM   16  C   UNL     1     -44.424  60.479 -52.431  1.00  0.00    -0.007 A 
HETATM   17  C   UNL     1     -45.380  61.311 -51.779  1.00  0.00     0.002 A 
HETATM   18  C   UNL     1     -46.226  61.836 -52.768  1.00  0.00     0.045 A 
HETATM   19  C   UNL     1     -45.594  61.678 -50.430  1.00  0.00     0.014 A 
HETATM   20  C   UNL     1     -47.265  62.723 -52.433  1.00  0.00     0.030 A 
HETATM   21  N   UNL     1     -45.803  61.318 -53.977  1.00  0.00    -0.353 N 
HETATM   22  C   UNL     1     -47.457  63.063 -51.091  1.00  0.00     0.002 A 
HETATM   23  C   UNL     1     -46.634  62.549 -50.098  1.00  0.00     0.001 A 
HETATM   24  C   UNL     1     -44.694  60.526 -53.778  1.00  0.00     0.103 A 
BRANCH  21  25
HETATM   25  C   UNL     1     -46.301  61.612 -55.316  1.00  0.00     0.155 C 
BRANCH  25  26
HETATM   26  C   UNL     1     -45.591  60.931 -56.486  1.00  0.00     0.196 C 
BRANCH  26  27
HETATM   27  O   UNL     1     -45.947  59.547 -56.454  1.00  0.00    -0.349 OA
BRANCH  27  28
HETATM   28  C   UNL     1     -45.522  58.724 -57.456  1.00  0.00     0.075 A 
HETATM   29  C   UNL     1     -44.435  57.888 -57.133  1.00  0.00    -0.021 A 
HETATM   30  C   UNL     1     -43.953  56.984 -58.093  1.00  0.00     0.010 A 
HETATM   31  C   UNL     1     -44.529  56.922 -59.360  1.00  0.00     0.001 A 
HETATM   32  C   UNL     1     -45.594  57.760 -59.678  1.00  0.00     0.003 A 
HETATM   33  C   UNL     1     -46.091  58.659 -58.731  1.00  0.00     0.037 A 
BRANCH  29  34
HETATM   34  C   UNL     1     -43.778  57.935 -55.767  1.00  0.00     0.067 C 
BRANCH  34  35
HETATM   35  C   UNL     1     -44.250  56.932 -54.746  1.00  0.00    -0.032 C 
HETATM   36  C   UNL     1     -43.746  55.717 -54.489  1.00  0.00     0.007 C 
ENDBRANCH  34  35
ENDBRANCH  29  34
ENDBRANCH  27  28
ENDBRANCH  26  27
ENDBRANCH  25  26
ENDBRANCH  21  25
ENDBRANCH  14  16
BRANCH   9  37
HETATM   37  O   UNL     1     -40.105  52.359 -50.675  1.00  0.00    -0.320 OA
BRANCH  37  38
HETATM   38  C   UNL     1     -39.977  51.759 -51.907  1.00  0.00     0.081 A 
HETATM   39  C   UNL     1     -39.678  50.388 -51.928  1.00  0.00    -0.028 A 
HETATM   40  C   UNL     1     -39.483  49.618 -50.652  1.00  0.00     0.051 C 
HETATM   41  C   UNL     1     -39.613  49.726 -53.162  1.00  0.00     0.009 A 
HETATM   42  C   UNL     1     -39.839  50.421 -54.352  1.00  0.00     0.001 A 
HETATM   43  C   UNL     1     -40.149  51.779 -54.320  1.00  0.00     0.003 A 
HETATM   44  C   UNL     1     -40.231  52.448 -53.098  1.00  0.00     0.038 A 
ENDBRANCH  37  38
ENDBRANCH   9  37
TORSDOF 9
ENDMDL
MODEL 7
REMARK VINA RESULT:      -8.5      5.784     11.005
REMARK  9 active torsions:
REMARK  status: ('A' for Active; 'I' for Inactive)
REMARK    1  A    between atoms: C_9  and  O_10 
REMARK    2  A    between atoms: O_10  and  C_11 
REMARK    3  A    between atoms: C_22  and  C_23 
REMARK    4  A    between atoms: N_30  and  C_31 
REMARK    5  A    between atoms: C_31  and  C_32 
REMARK    6  A    between atoms: C_32  and  O_33 
REMARK    7  A    between atoms: O_33  and  C_34 
REMARK    8  A    between atoms: C_35  and  C_36 
REMARK    9  A    between atoms: C_36  and  C_37 
ROOT
HETATM    1  H   UNL     1     -45.151  56.025 -50.093  1.00  0.00     0.188 HD
HETATM    2  N   UNL     1     -45.396  56.977 -50.383  1.00  0.00    -0.282 NA
HETATM    3  C   UNL     1     -44.638  57.317 -51.384  1.00  0.00     0.155 C 
HETATM    4  N   UNL     1     -43.624  56.524 -51.874  1.00  0.00    -0.230 N 
HETATM    5  C   UNL     1     -42.881  56.907 -52.976  1.00  0.00     0.195 A 
HETATM    6  N   UNL     1     -43.053  57.943 -53.718  1.00  0.00    -0.183 NA
HETATM    7  N   UNL     1     -43.174  55.356 -51.253  1.00  0.00    -0.186 NA
HETATM    8  C   UNL     1     -42.010  54.864 -51.838  1.00  0.00     0.094 A 
HETATM    9  C   UNL     1     -41.249  53.864 -51.370  1.00  0.00     0.175 C 
HETATM   10  S   UNL     1     -41.548  55.778 -53.283  1.00  0.00    -0.035 SA
HETATM   11  C   UNL     1     -44.798  58.631 -52.099  1.00  0.00     0.082 C 
HETATM   12  C   UNL     1     -44.130  58.769 -53.449  1.00  0.00     0.283 C 
HETATM   13  O   UNL     1     -44.540  59.556 -54.292  1.00  0.00    -0.265 OA
HETATM   14  C   UNL     1     -45.495  59.600 -51.474  1.00  0.00     0.034 C 
HETATM   15  H   UNL     1     -43.086  55.407 -50.238  1.00  0.00     0.154 HD
ENDROOT
BRANCH  14  16
HETATM   16  C   UNL     1     -45.678  60.967 -51.846  1.00  0.00    -0.007 A 
HETATM   17  C   UNL     1     -44.788  62.048 -51.577  1.00  0.00     0.002 A 
HETATM   18  C   UNL     1     -45.306  63.187 -52.213  1.00  0.00     0.045 A 
HETATM   19  C   UNL     1     -43.575  62.156 -50.858  1.00  0.00     0.014 A 
HETATM   20  C   UNL     1     -44.629  64.418 -52.151  1.00  0.00     0.030 A 
HETATM   21  N   UNL     1     -46.483  62.806 -52.828  1.00  0.00    -0.353 N 
HETATM   22  C   UNL     1     -43.435  64.498 -51.428  1.00  0.00     0.002 A 
HETATM   23  C   UNL     1     -42.912  63.383 -50.787  1.00  0.00     0.001 A 
HETATM   24  C   UNL     1     -46.690  61.458 -52.636  1.00  0.00     0.103 A 
BRANCH  21  25
HETATM   25  C   UNL     1     -47.360  63.599 -53.682  1.00  0.00     0.155 C 
BRANCH  25  26
HETATM   26  C   UNL     1     -48.025  62.879 -54.855  1.00  0.00     0.196 C 
BRANCH  26  27
HETATM   27  O   UNL     1     -49.427  63.150 -54.783  1.00  0.00    -0.349 OA
BRANCH  27  28
HETATM   28  C   UNL     1     -50.314  62.191 -55.177  1.00  0.00     0.075 A 
HETATM   29  C   UNL     1     -51.317  61.873 -54.240  1.00  0.00    -0.021 A 
HETATM   30  C   UNL     1     -52.293  60.920 -54.575  1.00  0.00     0.010 A 
HETATM   31  C   UNL     1     -52.265  60.281 -55.813  1.00  0.00     0.001 A 
HETATM   32  C   UNL     1     -51.264  60.590 -56.728  1.00  0.00     0.003 A 
HETATM   33  C   UNL     1     -50.290  61.542 -56.414  1.00  0.00     0.037 A 
BRANCH  29  34
HETATM   34  C   UNL     1     -51.373  62.542 -52.881  1.00  0.00     0.067 C 
BRANCH  34  35
HETATM   35  C   UNL     1     -52.715  63.050 -52.423  1.00  0.00    -0.032 C 
HETATM   36  C   UNL     1     -53.190  63.114 -51.172  1.00  0.00     0.007 C 
ENDBRANCH  34  35
ENDBRANCH  29  34
ENDBRANCH  27  28
ENDBRANCH  26  27
ENDBRANCH  25  26
ENDBRANCH  21  25
ENDBRANCH  14  16
BRANCH   9  37
HETATM   37  O   UNL     1     -40.079  53.463 -51.975  1.00  0.00    -0.320 OA
BRANCH  37  38
HETATM   38  C   UNL     1     -39.937  52.143 -52.338  1.00  0.00     0.081 A 
HETATM   39  C   UNL     1     -39.950  51.847 -53.710  1.00  0.00    -0.028 A 
HETATM   40  C   UNL     1     -40.135  52.931 -54.734  1.00  0.00     0.051 C 
HETATM   41  C   UNL     1     -39.734  50.525 -54.121  1.00  0.00     0.009 A 
HETATM   42  C   UNL     1     -39.515  49.516 -53.181  1.00  0.00     0.001 A 
HETATM   43  C   UNL     1     -39.490  49.822 -51.822  1.00  0.00     0.003 A 
HETATM   44  C   UNL     1     -39.689  51.137 -51.398  1.00  0.00     0.038 A 
ENDBRANCH  37  38
ENDBRANCH   9  37
TORSDOF 9
ENDMDL
MODEL 8
REMARK VINA RESULT:      -8.3      5.416     10.853
REMARK  9 active torsions:
REMARK  status: ('A' for Active; 'I' for Inactive)
REMARK    1  A    between atoms: C_9  and  O_10 
REMARK    2  A    between atoms: O_10  and  C_11 
REMARK    3  A    between atoms: C_22  and  C_23 
REMARK    4  A    between atoms: N_30  and  C_31 
REMARK    5  A    between atoms: C_31  and  C_32 
REMARK    6  A    between atoms: C_32  and  O_33 
REMARK    7  A    between atoms: O_33  and  C_34 
REMARK    8  A    between atoms: C_35  and  C_36 
REMARK    9  A    between atoms: C_36  and  C_37 
ROOT
HETATM    1  H   UNL     1     -45.206  56.300 -50.664  1.00  0.00     0.188 HD
HETATM    2  N   UNL     1     -45.339  57.272 -50.960  1.00  0.00    -0.282 NA
HETATM    3  C   UNL     1     -44.421  57.572 -51.833  1.00  0.00     0.155 C 
HETATM    4  N   UNL     1     -43.407  56.714 -52.195  1.00  0.00    -0.230 N 
HETATM    5  C   UNL     1     -42.486  57.060 -53.169  1.00  0.00     0.195 A 
HETATM    6  N   UNL     1     -42.476  58.118 -53.899  1.00  0.00    -0.183 NA
HETATM    7  N   UNL     1     -43.135  55.506 -51.548  1.00  0.00    -0.186 NA
HETATM    8  C   UNL     1     -41.936  54.938 -51.974  1.00  0.00     0.094 A 
HETATM    9  C   UNL     1     -41.323  53.878 -51.429  1.00  0.00     0.175 C 
HETATM   10  S   UNL     1     -41.206  55.840 -53.313  1.00  0.00    -0.035 SA
HETATM   11  C   UNL     1     -44.383  58.906 -52.528  1.00  0.00     0.082 C 
HETATM   12  C   UNL     1     -43.519  59.016 -53.764  1.00  0.00     0.283 C 
HETATM   13  O   UNL     1     -43.747  59.846 -54.635  1.00  0.00    -0.265 OA
HETATM   14  C   UNL     1     -45.093  59.913 -51.982  1.00  0.00     0.034 C 
HETATM   15  H   UNL     1     -43.191  55.533 -50.530  1.00  0.00     0.154 HD
ENDROOT
BRANCH  14  16
HETATM   16  C   UNL     1     -45.123  61.296 -52.338  1.00  0.00    -0.007 A 
HETATM   17  C   UNL     1     -44.384  62.349 -51.725  1.00  0.00     0.002 A 
HETATM   18  C   UNL     1     -44.632  63.521 -52.457  1.00  0.00     0.045 A 
HETATM   19  C   UNL     1     -43.510  62.408 -50.614  1.00  0.00     0.014 A 
HETATM   20  C   UNL     1     -44.016  64.734 -52.105  1.00  0.00     0.030 A 
HETATM   21  N   UNL     1     -45.511  63.184 -53.468  1.00  0.00    -0.353 N 
HETATM   22  C   UNL     1     -43.161  64.765 -51.000  1.00  0.00     0.002 A 
HETATM   23  C   UNL     1     -42.910  63.618 -50.260  1.00  0.00     0.001 A 
HETATM   24  C   UNL     1     -45.780  61.835 -53.418  1.00  0.00     0.103 A 
BRANCH  21  25
HETATM   25  C   UNL     1     -46.019  64.026 -54.547  1.00  0.00     0.155 C 
BRANCH  25  26
HETATM   26  C   UNL     1     -47.536  64.069 -54.737  1.00  0.00     0.196 C 
BRANCH  26  27
HETATM   27  O   UNL     1     -48.088  64.750 -53.609  1.00  0.00    -0.349 OA
BRANCH  27  28
HETATM   28  C   UNL     1     -49.182  64.227 -52.983  1.00  0.00     0.075 A 
HETATM   29  C   UNL     1     -49.002  63.893 -51.626  1.00  0.00    -0.021 A 
HETATM   30  C   UNL     1     -50.086  63.380 -50.894  1.00  0.00     0.010 A 
HETATM   31  C   UNL     1     -51.324  63.186 -51.503  1.00  0.00     0.001 A 
HETATM   32  C   UNL     1     -51.492  63.506 -52.847  1.00  0.00     0.003 A 
HETATM   33  C   UNL     1     -50.426  64.025 -53.587  1.00  0.00     0.037 A 
BRANCH  29  34
HETATM   34  C   UNL     1     -47.666  64.083 -50.934  1.00  0.00     0.067 C 
BRANCH  34  35
HETATM   35  C   UNL     1     -47.414  63.259 -49.698  1.00  0.00    -0.032 C 
HETATM   36  C   UNL     1     -46.611  63.547 -48.664  1.00  0.00     0.007 C 
ENDBRANCH  34  35
ENDBRANCH  29  34
ENDBRANCH  27  28
ENDBRANCH  26  27
ENDBRANCH  25  26
ENDBRANCH  21  25
ENDBRANCH  14  16
BRANCH   9  37
HETATM   37  O   UNL     1     -40.110  53.401 -51.872  1.00  0.00    -0.320 OA
BRANCH  37  38
HETATM   38  C   UNL     1     -39.970  52.051 -52.102  1.00  0.00     0.081 A 
HETATM   39  C   UNL     1     -39.936  51.625 -53.439  1.00  0.00    -0.028 A 
HETATM   40  C   UNL     1     -40.072  52.606 -54.568  1.00  0.00     0.051 C 
HETATM   41  C   UNL     1     -39.720  50.268 -53.713  1.00  0.00     0.009 A 
HETATM   42  C   UNL     1     -39.545  49.353 -52.672  1.00  0.00     0.001 A 
HETATM   43  C   UNL     1     -39.566  49.788 -51.349  1.00  0.00     0.003 A 
HETATM   44  C   UNL     1     -39.766  51.138 -51.061  1.00  0.00     0.038 A 
ENDBRANCH  37  38
ENDBRANCH   9  37
TORSDOF 9
ENDMDL
MODEL 9
REMARK VINA RESULT:      -8.3      1.564      3.771
REMARK  9 active torsions:
REMARK  status: ('A' for Active; 'I' for Inactive)
REMARK    1  A    between atoms: C_9  and  O_10 
REMARK    2  A    between atoms: O_10  and  C_11 
REMARK    3  A    between atoms: C_22  and  C_23 
REMARK    4  A    between atoms: N_30  and  C_31 
REMARK    5  A    between atoms: C_31  and  C_32 
REMARK    6  A    between atoms: C_32  and  O_33 
REMARK    7  A    between atoms: O_33  and  C_34 
REMARK    8  A    between atoms: C_35  and  C_36 
REMARK    9  A    between atoms: C_36  and  C_37 
ROOT
HETATM    1  H   UNL     1     -42.512  56.095 -59.893  1.00  0.00     0.188 HD
HETATM    2  N   UNL     1     -42.568  55.649 -58.972  1.00  0.00    -0.282 NA
HETATM    3  C   UNL     1     -42.777  56.567 -58.075  1.00  0.00     0.155 C 
HETATM    4  N   UNL     1     -42.815  57.914 -58.360  1.00  0.00    -0.230 N 
HETATM    5  C   UNL     1     -43.094  58.849 -57.379  1.00  0.00     0.195 A 
HETATM    6  N   UNL     1     -43.422  58.629 -56.155  1.00  0.00    -0.183 NA
HETATM    7  N   UNL     1     -42.460  58.463 -59.595  1.00  0.00    -0.186 NA
HETATM    8  C   UNL     1     -42.387  59.854 -59.552  1.00  0.00     0.094 A 
HETATM    9  C   UNL     1     -41.914  60.653 -60.518  1.00  0.00     0.175 C 
HETATM   10  S   UNL     1     -42.918  60.504 -57.992  1.00  0.00    -0.035 SA
HETATM   11  C   UNL     1     -42.989  56.235 -56.623  1.00  0.00     0.082 C 
HETATM   12  C   UNL     1     -43.577  57.317 -55.745  1.00  0.00     0.283 C 
HETATM   13  O   UNL     1     -44.197  57.050 -54.724  1.00  0.00    -0.265 OA
HETATM   14  C   UNL     1     -42.611  55.012 -56.202  1.00  0.00     0.034 C 
HETATM   15  H   UNL     1     -41.629  58.061 -60.029  1.00  0.00     0.154 HD
ENDROOT
BRANCH  14  16
HETATM   16  C   UNL     1     -42.560  54.487 -54.875  1.00  0.00    -0.007 A 
HETATM   17  C   UNL     1     -41.521  53.688 -54.315  1.00  0.00     0.002 A 
HETATM   18  C   UNL     1     -41.827  53.488 -52.959  1.00  0.00     0.045 A 
HETATM   19  C   UNL     1     -40.334  53.126 -54.839  1.00  0.00     0.014 A 
HETATM   20  C   UNL     1     -40.966  52.753 -52.126  1.00  0.00     0.030 A 
HETATM   21  N   UNL     1     -43.026  54.132 -52.718  1.00  0.00    -0.353 N 
HETATM   22  C   UNL     1     -39.802  52.203 -52.672  1.00  0.00     0.002 A 
HETATM   23  C   UNL     1     -39.487  52.384 -54.012  1.00  0.00     0.001 A 
HETATM   24  C   UNL     1     -43.451  54.764 -53.865  1.00  0.00     0.103 A 
BRANCH  21  25
HETATM   25  C   UNL     1     -43.734  54.289 -51.452  1.00  0.00     0.155 C 
BRANCH  25  26
HETATM   26  C   UNL     1     -43.118  55.240 -50.425  1.00  0.00     0.196 C 
BRANCH  26  27
HETATM   27  O   UNL     1     -42.538  56.328 -51.147  1.00  0.00    -0.349 OA
BRANCH  27  28
HETATM   28  C   UNL     1     -43.292  57.436 -51.406  1.00  0.00     0.075 A 
HETATM   29  C   UNL     1     -42.641  58.458 -52.126  1.00  0.00    -0.021 A 
HETATM   30  C   UNL     1     -43.353  59.620 -52.466  1.00  0.00     0.010 A 
HETATM   31  C   UNL     1     -44.684  59.773 -52.085  1.00  0.00     0.001 A 
HETATM   32  C   UNL     1     -45.318  58.766 -51.363  1.00  0.00     0.003 A 
HETATM   33  C   UNL     1     -44.626  57.600 -51.023  1.00  0.00     0.037 A 
BRANCH  29  34
HETATM   34  C   UNL     1     -41.191  58.328 -52.550  1.00  0.00     0.067 C 
BRANCH  34  35
HETATM   35  C   UNL     1     -40.160  58.981 -51.666  1.00  0.00    -0.032 C 
HETATM   36  C   UNL     1     -40.307  59.409 -50.405  1.00  0.00     0.007 C 
ENDBRANCH  34  35
ENDBRANCH  29  34
ENDBRANCH  27  28
ENDBRANCH  26  27
ENDBRANCH  25  26
ENDBRANCH  21  25
ENDBRANCH  14  16
BRANCH   9  37
HETATM   37  O   UNL     1     -41.824  62.020 -60.387  1.00  0.00    -0.320 OA
BRANCH  37  38
HETATM   38  C   UNL     1     -40.719  62.666 -60.890  1.00  0.00     0.081 A 
HETATM   39  C   UNL     1     -39.889  63.334 -59.975  1.00  0.00    -0.028 A 
HETATM   40  C   UNL     1     -40.215  63.356 -58.509  1.00  0.00     0.051 C 
HETATM   41  C   UNL     1     -38.715  63.940 -60.441  1.00  0.00     0.009 A 
HETATM   42  C   UNL     1     -38.377  63.885 -61.795  1.00  0.00     0.001 A 
HETATM   43  C   UNL     1     -39.200  63.209 -62.694  1.00  0.00     0.003 A 
HETATM   44  C   UNL     1     -40.365  62.588 -62.242  1.00  0.00     0.038 A 
ENDBRANCH  37  38
ENDBRANCH   9  37
TORSDOF 9
ENDMDL
MODEL 10
REMARK VINA RESULT:      -8.3      1.760      3.923
REMARK  9 active torsions:
REMARK  status: ('A' for Active; 'I' for Inactive)
REMARK    1  A    between atoms: C_9  and  O_10 
REMARK    2  A    between atoms: O_10  and  C_11 
REMARK    3  A    between atoms: C_22  and  C_23 
REMARK    4  A    between atoms: N_30  and  C_31 
REMARK    5  A    between atoms: C_31  and  C_32 
REMARK    6  A    between atoms: C_32  and  O_33 
REMARK    7  A    between atoms: O_33  and  C_34 
REMARK    8  A    between atoms: C_35  and  C_36 
REMARK    9  A    between atoms: C_36  and  C_37 
ROOT
HETATM    1  H   UNL     1     -42.482  56.128 -59.951  1.00  0.00     0.188 HD
HETATM    2  N   UNL     1     -42.530  55.688 -59.027  1.00  0.00    -0.282 NA
HETATM    3  C   UNL     1     -42.737  56.612 -58.135  1.00  0.00     0.155 C 
HETATM    4  N   UNL     1     -42.784  57.957 -58.429  1.00  0.00    -0.230 N 
HETATM    5  C   UNL     1     -43.062  58.897 -57.453  1.00  0.00     0.195 A 
HETATM    6  N   UNL     1     -43.381  58.684 -56.226  1.00  0.00    -0.183 NA
HETATM    7  N   UNL     1     -42.440  58.499 -59.670  1.00  0.00    -0.186 NA
HETATM    8  C   UNL     1     -42.373  59.890 -59.637  1.00  0.00     0.094 A 
HETATM    9  C   UNL     1     -41.911  60.685 -60.613  1.00  0.00     0.175 C 
HETATM   10  S   UNL     1     -42.898  60.549 -58.079  1.00  0.00    -0.035 SA
HETATM   11  C   UNL     1     -42.939  56.289 -56.679  1.00  0.00     0.082 C 
HETATM   12  C   UNL     1     -43.527  57.374 -55.805  1.00  0.00     0.283 C 
HETATM   13  O   UNL     1     -44.139  57.112 -54.779  1.00  0.00    -0.265 OA
HETATM   14  C   UNL     1     -42.552  55.071 -56.252  1.00  0.00     0.034 C 
HETATM   15  H   UNL     1     -41.610  58.098 -60.107  1.00  0.00     0.154 HD
ENDROOT
BRANCH  14  16
HETATM   16  C   UNL     1     -42.490  54.555 -54.922  1.00  0.00    -0.007 A 
HETATM   17  C   UNL     1     -41.493  53.687 -54.391  1.00  0.00     0.002 A 
HETATM   18  C   UNL     1     -41.761  53.522 -53.023  1.00  0.00     0.045 A 
HETATM   19  C   UNL     1     -40.371  53.033 -54.952  1.00  0.00     0.014 A 
HETATM   20  C   UNL     1     -40.926  52.732 -52.214  1.00  0.00     0.030 A 
HETATM   21  N   UNL     1     -42.899  54.255 -52.745  1.00  0.00    -0.353 N 
HETATM   22  C   UNL     1     -39.828  52.092 -52.796  1.00  0.00     0.002 A 
HETATM   23  C   UNL     1     -39.551  52.238 -54.148  1.00  0.00     0.001 A 
HETATM   24  C   UNL     1     -43.319  54.907 -53.884  1.00  0.00     0.103 A 
BRANCH  21  25
HETATM   25  C   UNL     1     -43.545  54.475 -51.456  1.00  0.00     0.155 C 
BRANCH  25  26
HETATM   26  C   UNL     1     -42.825  55.391 -50.466  1.00  0.00     0.196 C 
BRANCH  26  27
HETATM   27  O   UNL     1     -43.310  56.718 -50.681  1.00  0.00    -0.349 OA
BRANCH  27  28
HETATM   28  C   UNL     1     -42.630  57.549 -51.524  1.00  0.00     0.075 A 
HETATM   29  C   UNL     1     -43.335  58.695 -51.943  1.00  0.00    -0.021 A 
HETATM   30  C   UNL     1     -42.700  59.623 -52.785  1.00  0.00     0.010 A 
HETATM   31  C   UNL     1     -41.392  59.409 -53.217  1.00  0.00     0.001 A 
HETATM   32  C   UNL     1     -40.706  58.269 -52.810  1.00  0.00     0.003 A 
HETATM   33  C   UNL     1     -41.321  57.340 -51.965  1.00  0.00     0.037 A 
BRANCH  29  34
HETATM   34  C   UNL     1     -44.761  58.954 -51.500  1.00  0.00     0.067 C 
BRANCH  34  35
HETATM   35  C   UNL     1     -45.597  59.852 -52.376  1.00  0.00    -0.032 C 
HETATM   36  C   UNL     1     -46.594  60.668 -52.007  1.00  0.00     0.007 C 
ENDBRANCH  34  35
ENDBRANCH  29  34
ENDBRANCH  27  28
ENDBRANCH  26  27
ENDBRANCH  25  26
ENDBRANCH  21  25
ENDBRANCH  14  16
BRANCH   9  37
HETATM   37  O   UNL     1     -41.827  62.053 -60.491  1.00  0.00    -0.320 OA
BRANCH  37  38
HETATM   38  C   UNL     1     -40.712  62.698 -60.976  1.00  0.00     0.081 A 
HETATM   39  C   UNL     1     -39.882  63.341 -60.045  1.00  0.00    -0.028 A 
HETATM   40  C   UNL     1     -40.217  63.341 -58.580  1.00  0.00     0.051 C 
HETATM   41  C   UNL     1     -38.699  63.944 -60.492  1.00  0.00     0.009 A 
HETATM   42  C   UNL     1     -38.354  63.910 -61.845  1.00  0.00     0.001 A 
HETATM   43  C   UNL     1     -39.177  63.258 -62.760  1.00  0.00     0.003 A 
HETATM   44  C   UNL     1     -40.350  62.640 -62.327  1.00  0.00     0.038 A 
ENDBRANCH  37  38
ENDBRANCH   9  37
TORSDOF 9
ENDMDL
