MODEL 1
REMARK VINA RESULT:      -7.8      0.000      0.000
REMARK  8 active torsions:
REMARK  status: ('A' for Active; 'I' for Inactive)
REMARK    1  A    between atoms: C_4  and  C_5 
REMARK    2  A    between atoms: C_11  and  C_12 
REMARK    3  A    between atoms: C_12  and  C_13 
REMARK       I    between atoms: C_13  and  N_14 
REMARK    4  A    between atoms: N_14  and  C_15 
REMARK    5  A    between atoms: C_20  and  C_21 
REMARK       I    between atoms: C_21  and  N_22 
REMARK    6  A    between atoms: N_22  and  C_23 
REMARK    7  A    between atoms: C_23  and  C_24 
REMARK    8  A    between atoms: C_24  and  O_25 
ROOT
HETATM    1  C   UNL     1     -41.896  56.691 -51.407  1.00  0.00     0.228 C 
HETATM    2  N   UNL     1     -41.177  57.008 -52.546  1.00  0.00    -0.325 N 
HETATM    3  O   UNL     1     -43.121  56.713 -51.296  1.00  0.00    -0.273 OA
HETATM    4  H   UNL     1     -40.160  56.937 -52.470  1.00  0.00     0.169 HD
ENDROOT
BRANCH   2   5
HETATM    5  C   UNL     1     -41.657  57.465 -53.795  1.00  0.00     0.057 A 
HETATM    6  C   UNL     1     -41.888  58.844 -53.959  1.00  0.00     0.060 A 
HETATM    7 CL   UNL     1     -41.598  59.961 -52.668  1.00  0.00    -0.082 Cl
HETATM    8  C   UNL     1     -42.352  59.352 -55.173  1.00  0.00     0.027 A 
HETATM    9  C   UNL     1     -42.593  58.486 -56.239  1.00  0.00     0.019 A 
HETATM   10  C   UNL     1     -42.378  57.107 -56.099  1.00  0.00     0.034 A 
HETATM   11  C   UNL     1     -41.919  56.607 -54.870  1.00  0.00     0.048 A 
BRANCH  10  12
HETATM   12  C   UNL     1     -42.678  56.232 -57.275  1.00  0.00     0.251 C 
HETATM   13  N   UNL     1     -42.431  56.740 -58.532  1.00  0.00    -0.355 N 
HETATM   14  H   UNL     1     -42.286  57.732 -58.664  1.00  0.00     0.162 HD
HETATM   15  O   UNL     1     -43.141  55.108 -57.097  1.00  0.00    -0.268 OA
BRANCH  13  16
HETATM   16  C   UNL     1     -42.803  56.012 -59.733  1.00  0.00     0.149 C 
BRANCH  16  17
HETATM   17  C   UNL     1     -44.069  56.590 -60.365  1.00  0.00     0.186 C 
BRANCH  17  18
HETATM   18  O   UNL     1     -45.193  55.823 -59.915  1.00  0.00    -0.394 OA
HETATM   19  C   UNL     1     -44.950  54.427 -60.023  1.00  0.00     0.201 C 
ENDBRANCH  17  18
ENDBRANCH  16  17
ENDBRANCH  13  16
ENDBRANCH  10  12
ENDBRANCH   2   5
BRANCH   1  20
HETATM   20  C   UNL     1     -41.024  56.213 -50.257  1.00  0.00     0.165 C 
BRANCH  20  21
HETATM   21  C   UNL     1     -40.708  54.770 -50.386  1.00  0.00     0.075 A 
HETATM   22  C   UNL     1     -40.405  53.839 -49.419  1.00  0.00     0.077 A 
HETATM   23  C   UNL     1     -40.290  53.857 -47.951  1.00  0.00     0.079 C 
HETATM   24  O   UNL     1     -40.158  52.652 -50.045  1.00  0.00    -0.292 OA
HETATM   25  C   UNL     1     -40.316  52.916 -51.386  1.00  0.00     0.204 A 
HETATM   26  N   UNL     1     -40.653  54.175 -51.632  1.00  0.00    -0.224 NA
BRANCH  25  27
HETATM   27  C   UNL     1     -40.115  51.932 -52.408  1.00  0.00     0.128 A 
HETATM   28  O   UNL     1     -39.677  50.656 -52.147  1.00  0.00    -0.318 OA
HETATM   29  C   UNL     1     -39.582  49.999 -53.329  1.00  0.00     0.142 A 
HETATM   30  C   UNL     1     -39.953  50.819 -54.367  1.00  0.00     0.027 A 
HETATM   31  C   UNL     1     -40.296  52.060 -53.777  1.00  0.00     0.043 A 
ENDBRANCH  25  27
ENDBRANCH  20  21
ENDBRANCH   1  20
TORSDOF 8
ENDMDL
MODEL 2
REMARK VINA RESULT:      -7.7      1.463      1.465
REMARK  8 active torsions:
REMARK  status: ('A' for Active; 'I' for Inactive)
REMARK    1  A    between atoms: C_4  and  C_5 
REMARK    2  A    between atoms: C_11  and  C_12 
REMARK    3  A    between atoms: C_12  and  C_13 
REMARK       I    between atoms: C_13  and  N_14 
REMARK    4  A    between atoms: N_14  and  C_15 
REMARK    5  A    between atoms: C_20  and  C_21 
REMARK       I    between atoms: C_21  and  N_22 
REMARK    6  A    between atoms: N_22  and  C_23 
REMARK    7  A    between atoms: C_23  and  C_24 
REMARK    8  A    between atoms: C_24  and  O_25 
ROOT
HETATM    1  C   UNL     1     -41.446  56.969 -51.493  1.00  0.00     0.228 C 
HETATM    2  N   UNL     1     -42.639  56.509 -52.022  1.00  0.00    -0.325 N 
HETATM    3  O   UNL     1     -40.731  57.846 -51.975  1.00  0.00    -0.273 OA
HETATM    4  H   UNL     1     -43.112  55.773 -51.493  1.00  0.00     0.169 HD
ENDROOT
BRANCH   2   5
HETATM    5  C   UNL     1     -43.274  56.887 -53.227  1.00  0.00     0.057 A 
HETATM    6  C   UNL     1     -44.406  57.721 -53.154  1.00  0.00     0.060 A 
HETATM    7 CL   UNL     1     -45.016  58.272 -51.630  1.00  0.00    -0.082 Cl
HETATM    8  C   UNL     1     -45.066  58.133 -54.312  1.00  0.00     0.027 A 
HETATM    9  C   UNL     1     -44.604  57.716 -55.559  1.00  0.00     0.019 A 
HETATM   10  C   UNL     1     -43.482  56.879 -55.659  1.00  0.00     0.034 A 
HETATM   11  C   UNL     1     -42.831  56.463 -54.487  1.00  0.00     0.048 A 
BRANCH  10  12
HETATM   12  C   UNL     1     -43.053  56.450 -57.027  1.00  0.00     0.251 C 
HETATM   13  N   UNL     1     -42.971  57.416 -58.006  1.00  0.00    -0.355 N 
HETATM   14  H   UNL     1     -43.410  58.318 -57.873  1.00  0.00     0.162 HD
HETATM   15  O   UNL     1     -42.801  55.268 -57.244  1.00  0.00    -0.268 OA
BRANCH  13  16
HETATM   16  C   UNL     1     -42.681  57.076 -59.388  1.00  0.00     0.149 C 
BRANCH  16  17
HETATM   17  C   UNL     1     -43.955  57.033 -60.230  1.00  0.00     0.186 C 
BRANCH  17  18
HETATM   18  O   UNL     1     -43.932  55.844 -61.032  1.00  0.00    -0.394 OA
HETATM   19  C   UNL     1     -45.165  55.142 -60.961  1.00  0.00     0.201 C 
ENDBRANCH  17  18
ENDBRANCH  16  17
ENDBRANCH  13  16
ENDBRANCH  10  12
ENDBRANCH   2   5
BRANCH   1  20
HETATM   20  C   UNL     1     -41.095  56.333 -50.157  1.00  0.00     0.165 C 
BRANCH  20  21
HETATM   21  C   UNL     1     -40.757  54.898 -50.316  1.00  0.00     0.075 A 
HETATM   22  C   UNL     1     -40.432  53.953 -49.370  1.00  0.00     0.077 A 
HETATM   23  C   UNL     1     -40.305  53.945 -47.902  1.00  0.00     0.079 C 
HETATM   24  O   UNL     1     -40.172  52.783 -50.021  1.00  0.00    -0.292 OA
HETATM   25  C   UNL     1     -40.345  53.071 -51.355  1.00  0.00     0.204 A 
HETATM   26  N   UNL     1     -40.703  54.329 -51.574  1.00  0.00    -0.224 NA
BRANCH  25  27
HETATM   27  C   UNL     1     -40.136  52.110 -52.398  1.00  0.00     0.128 A 
HETATM   28  O   UNL     1     -39.690  50.832 -52.163  1.00  0.00    -0.318 OA
HETATM   29  C   UNL     1     -39.590  50.201 -53.359  1.00  0.00     0.142 A 
HETATM   30  C   UNL     1     -39.966  51.040 -54.379  1.00  0.00     0.027 A 
HETATM   31  C   UNL     1     -40.318  52.265 -53.764  1.00  0.00     0.043 A 
ENDBRANCH  25  27
ENDBRANCH  20  21
ENDBRANCH   1  20
TORSDOF 8
ENDMDL
MODEL 3
REMARK VINA RESULT:      -7.2      2.127      7.648
REMARK  8 active torsions:
REMARK  status: ('A' for Active; 'I' for Inactive)
REMARK    1  A    between atoms: C_4  and  C_5 
REMARK    2  A    between atoms: C_11  and  C_12 
REMARK    3  A    between atoms: C_12  and  C_13 
REMARK       I    between atoms: C_13  and  N_14 
REMARK    4  A    between atoms: N_14  and  C_15 
REMARK    5  A    between atoms: C_20  and  C_21 
REMARK       I    between atoms: C_21  and  N_22 
REMARK    6  A    between atoms: N_22  and  C_23 
REMARK    7  A    between atoms: C_23  and  C_24 
REMARK    8  A    between atoms: C_24  and  O_25 
ROOT
HETATM    1  C   UNL     1     -41.880  58.490 -54.139  1.00  0.00     0.228 C 
HETATM    2  N   UNL     1     -42.807  57.531 -53.770  1.00  0.00    -0.325 N 
HETATM    3  O   UNL     1     -40.685  58.491 -53.848  1.00  0.00    -0.273 OA
HETATM    4  H   UNL     1     -43.764  57.680 -54.096  1.00  0.00     0.169 HD
ENDROOT
BRANCH   2   5
HETATM    5  C   UNL     1     -42.619  56.389 -52.957  1.00  0.00     0.057 A 
HETATM    6  C   UNL     1     -43.461  56.215 -51.842  1.00  0.00     0.060 A 
HETATM    7 CL   UNL     1     -44.697  57.368 -51.465  1.00  0.00    -0.082 Cl
HETATM    8  C   UNL     1     -43.328  55.102 -51.012  1.00  0.00     0.027 A 
HETATM    9  C   UNL     1     -42.348  54.148 -51.285  1.00  0.00     0.019 A 
HETATM   10  C   UNL     1     -41.491  54.302 -52.385  1.00  0.00     0.034 A 
HETATM   11  C   UNL     1     -41.629  55.431 -53.208  1.00  0.00     0.048 A 
BRANCH  10  12
HETATM   12  C   UNL     1     -40.447  53.253 -52.607  1.00  0.00     0.251 C 
HETATM   13  N   UNL     1     -40.392  52.655 -53.848  1.00  0.00    -0.355 N 
HETATM   14  H   UNL     1     -41.167  52.743 -54.493  1.00  0.00     0.162 HD
HETATM   15  O   UNL     1     -39.687  52.945 -51.693  1.00  0.00    -0.268 OA
BRANCH  13  16
HETATM   16  C   UNL     1     -39.495  51.545 -54.118  1.00  0.00     0.149 C 
BRANCH  16  17
HETATM   17  C   UNL     1     -40.255  50.222 -54.201  1.00  0.00     0.186 C 
BRANCH  17  18
HETATM   18  O   UNL     1     -39.544  49.239 -53.436  1.00  0.00    -0.394 OA
HETATM   19  C   UNL     1     -39.670  49.473 -52.040  1.00  0.00     0.201 C 
ENDBRANCH  17  18
ENDBRANCH  16  17
ENDBRANCH  13  16
ENDBRANCH  10  12
ENDBRANCH   2   5
BRANCH   1  20
HETATM   20  C   UNL     1     -42.456  59.567 -55.044  1.00  0.00     0.165 C 
BRANCH  20  21
HETATM   21  C   UNL     1     -42.576  59.087 -56.442  1.00  0.00     0.075 A 
HETATM   22  C   UNL     1     -42.109  59.640 -57.613  1.00  0.00     0.077 A 
HETATM   23  C   UNL     1     -41.331  60.841 -57.963  1.00  0.00     0.079 C 
HETATM   24  O   UNL     1     -42.506  58.836 -58.641  1.00  0.00    -0.292 OA
HETATM   25  C   UNL     1     -43.214  57.818 -58.046  1.00  0.00     0.204 A 
HETATM   26  N   UNL     1     -43.273  57.929 -56.725  1.00  0.00    -0.224 NA
BRANCH  25  27
HETATM   27  C   UNL     1     -43.839  56.761 -58.784  1.00  0.00     0.128 A 
HETATM   28  O   UNL     1     -45.083  56.879 -59.357  1.00  0.00    -0.318 OA
HETATM   29  C   UNL     1     -45.375  55.701 -59.961  1.00  0.00     0.142 A 
HETATM   30  C   UNL     1     -44.344  54.808 -59.799  1.00  0.00     0.027 A 
HETATM   31  C   UNL     1     -43.357  55.487 -59.045  1.00  0.00     0.043 A 
ENDBRANCH  25  27
ENDBRANCH  20  21
ENDBRANCH   1  20
TORSDOF 8
ENDMDL
MODEL 4
REMARK VINA RESULT:      -7.2      2.931      3.514
REMARK  8 active torsions:
REMARK  status: ('A' for Active; 'I' for Inactive)
REMARK    1  A    between atoms: C_4  and  C_5 
REMARK    2  A    between atoms: C_11  and  C_12 
REMARK    3  A    between atoms: C_12  and  C_13 
REMARK       I    between atoms: C_13  and  N_14 
REMARK    4  A    between atoms: N_14  and  C_15 
REMARK    5  A    between atoms: C_20  and  C_21 
REMARK       I    between atoms: C_21  and  N_22 
REMARK    6  A    between atoms: N_22  and  C_23 
REMARK    7  A    between atoms: C_23  and  C_24 
REMARK    8  A    between atoms: C_24  and  O_25 
ROOT
HETATM    1  C   UNL     1     -41.343  56.817 -53.067  1.00  0.00     0.228 C 
HETATM    2  N   UNL     1     -42.345  56.392 -53.923  1.00  0.00    -0.325 N 
HETATM    3  O   UNL     1     -40.394  57.538 -53.366  1.00  0.00    -0.273 OA
HETATM    4  H   UNL     1     -43.065  55.794 -53.512  1.00  0.00     0.169 HD
ENDROOT
BRANCH   2   5
HETATM    5  C   UNL     1     -42.484  56.637 -55.308  1.00  0.00     0.057 A 
HETATM    6  C   UNL     1     -42.848  55.564 -56.144  1.00  0.00     0.060 A 
HETATM    7 CL   UNL     1     -43.117  53.979 -55.502  1.00  0.00    -0.082 Cl
HETATM    8  C   UNL     1     -43.010  55.751 -57.517  1.00  0.00     0.027 A 
HETATM    9  C   UNL     1     -42.807  57.013 -58.073  1.00  0.00     0.019 A 
HETATM   10  C   UNL     1     -42.437  58.097 -57.263  1.00  0.00     0.034 A 
HETATM   11  C   UNL     1     -42.268  57.895 -55.884  1.00  0.00     0.048 A 
BRANCH  10  12
HETATM   12  C   UNL     1     -42.213  59.419 -57.928  1.00  0.00     0.251 C 
HETATM   13  N   UNL     1     -42.984  59.722 -59.030  1.00  0.00    -0.355 N 
HETATM   14  H   UNL     1     -43.499  58.995 -59.509  1.00  0.00     0.162 HD
HETATM   15  O   UNL     1     -41.356  60.184 -57.493  1.00  0.00    -0.268 OA
BRANCH  13  16
HETATM   16  C   UNL     1     -42.756  60.926 -59.810  1.00  0.00     0.149 C 
BRANCH  16  17
HETATM   17  C   UNL     1     -41.862  60.645 -61.018  1.00  0.00     0.186 C 
BRANCH  17  18
HETATM   18  O   UNL     1     -41.253  61.876 -61.430  1.00  0.00    -0.394 OA
HETATM   19  C   UNL     1     -40.544  62.491 -60.362  1.00  0.00     0.201 C 
ENDBRANCH  17  18
ENDBRANCH  16  17
ENDBRANCH  13  16
ENDBRANCH  10  12
ENDBRANCH   2   5
BRANCH   1  20
HETATM   20  C   UNL     1     -41.549  56.366 -51.629  1.00  0.00     0.165 C 
BRANCH  20  21
HETATM   21  C   UNL     1     -41.110  54.962 -51.438  1.00  0.00     0.075 A 
HETATM   22  C   UNL     1     -40.772  54.287 -50.287  1.00  0.00     0.077 A 
HETATM   23  C   UNL     1     -40.721  54.627 -48.855  1.00  0.00     0.079 C 
HETATM   24  O   UNL     1     -40.403  53.022 -50.639  1.00  0.00    -0.292 OA
HETATM   25  C   UNL     1     -40.527  52.981 -52.007  1.00  0.00     0.204 A 
HETATM   26  N   UNL     1     -40.955  54.124 -52.526  1.00  0.00    -0.224 NA
BRANCH  25  27
HETATM   27  C   UNL     1     -40.202  51.825 -52.791  1.00  0.00     0.128 A 
HETATM   28  O   UNL     1     -39.699  50.667 -52.247  1.00  0.00    -0.318 OA
HETATM   29  C   UNL     1     -39.493  49.789 -53.260  1.00  0.00     0.142 A 
HETATM   30  C   UNL     1     -39.855  50.346 -54.462  1.00  0.00     0.027 A 
HETATM   31  C   UNL     1     -40.312  51.652 -54.162  1.00  0.00     0.043 A 
ENDBRANCH  25  27
ENDBRANCH  20  21
ENDBRANCH   1  20
TORSDOF 8
ENDMDL
MODEL 5
REMARK VINA RESULT:      -7.0      3.776      7.699
REMARK  8 active torsions:
REMARK  status: ('A' for Active; 'I' for Inactive)
REMARK    1  A    between atoms: C_4  and  C_5 
REMARK    2  A    between atoms: C_11  and  C_12 
REMARK    3  A    between atoms: C_12  and  C_13 
REMARK       I    between atoms: C_13  and  N_14 
REMARK    4  A    between atoms: N_14  and  C_15 
REMARK    5  A    between atoms: C_20  and  C_21 
REMARK       I    between atoms: C_21  and  N_22 
REMARK    6  A    between atoms: N_22  and  C_23 
REMARK    7  A    between atoms: C_23  and  C_24 
REMARK    8  A    between atoms: C_24  and  O_25 
ROOT
HETATM    1  C   UNL     1     -43.280  55.331 -51.833  1.00  0.00     0.228 C 
HETATM    2  N   UNL     1     -43.207  56.504 -52.562  1.00  0.00    -0.325 N 
HETATM    3  O   UNL     1     -43.370  55.243 -50.609  1.00  0.00    -0.273 OA
HETATM    4  H   UNL     1     -43.137  56.401 -53.576  1.00  0.00     0.169 HD
ENDROOT
BRANCH   2   5
HETATM    5  C   UNL     1     -43.170  57.836 -52.089  1.00  0.00     0.057 A 
HETATM    6  C   UNL     1     -42.065  58.638 -52.433  1.00  0.00     0.060 A 
HETATM    7 CL   UNL     1     -40.776  58.017 -53.408  1.00  0.00    -0.082 Cl
HETATM    8  C   UNL     1     -41.981  59.962 -52.002  1.00  0.00     0.027 A 
HETATM    9  C   UNL     1     -43.001  60.502 -51.219  1.00  0.00     0.019 A 
HETATM   10  C   UNL     1     -44.109  59.722 -50.856  1.00  0.00     0.034 A 
HETATM   11  C   UNL     1     -44.178  58.388 -51.288  1.00  0.00     0.048 A 
BRANCH  10  12
HETATM   12  C   UNL     1     -45.156  60.356 -49.995  1.00  0.00     0.251 C 
HETATM   13  N   UNL     1     -44.800  60.717 -48.713  1.00  0.00    -0.355 N 
HETATM   14  H   UNL     1     -43.954  60.352 -48.295  1.00  0.00     0.162 HD
HETATM   15  O   UNL     1     -46.289  60.526 -50.438  1.00  0.00    -0.268 OA
BRANCH  13  16
HETATM   16  C   UNL     1     -45.779  61.227 -47.768  1.00  0.00     0.149 C 
BRANCH  16  17
HETATM   17  C   UNL     1     -45.864  60.343 -46.524  1.00  0.00     0.186 C 
BRANCH  17  18
HETATM   18  O   UNL     1     -46.657  59.190 -46.838  1.00  0.00    -0.394 OA
HETATM   19  C   UNL     1     -47.246  58.628 -45.674  1.00  0.00     0.201 C 
ENDBRANCH  17  18
ENDBRANCH  16  17
ENDBRANCH  13  16
ENDBRANCH  10  12
ENDBRANCH   2   5
BRANCH   1  20
HETATM   20  C   UNL     1     -43.319  54.084 -52.702  1.00  0.00     0.165 C 
BRANCH  20  21
HETATM   21  C   UNL     1     -42.739  54.344 -54.042  1.00  0.00     0.075 A 
HETATM   22  C   UNL     1     -41.491  54.045 -54.541  1.00  0.00     0.077 A 
HETATM   23  C   UNL     1     -40.289  53.375 -54.017  1.00  0.00     0.079 C 
HETATM   24  O   UNL     1     -41.429  54.521 -55.818  1.00  0.00    -0.292 OA
HETATM   25  C   UNL     1     -42.655  55.102 -56.043  1.00  0.00     0.204 A 
HETATM   26  N   UNL     1     -43.472  55.011 -55.003  1.00  0.00    -0.224 NA
BRANCH  25  27
HETATM   27  C   UNL     1     -42.999  55.758 -57.271  1.00  0.00     0.128 A 
HETATM   28  O   UNL     1     -43.567  55.104 -58.337  1.00  0.00    -0.318 OA
HETATM   29  C   UNL     1     -43.747  56.009 -59.331  1.00  0.00     0.142 A 
HETATM   30  C   UNL     1     -43.310  57.249 -58.937  1.00  0.00     0.027 A 
HETATM   31  C   UNL     1     -42.831  57.091 -57.615  1.00  0.00     0.043 A 
ENDBRANCH  25  27
ENDBRANCH  20  21
ENDBRANCH   1  20
TORSDOF 8
ENDMDL
MODEL 6
REMARK VINA RESULT:      -6.8      3.090      5.829
REMARK  8 active torsions:
REMARK  status: ('A' for Active; 'I' for Inactive)
REMARK    1  A    between atoms: C_4  and  C_5 
REMARK    2  A    between atoms: C_11  and  C_12 
REMARK    3  A    between atoms: C_12  and  C_13 
REMARK       I    between atoms: C_13  and  N_14 
REMARK    4  A    between atoms: N_14  and  C_15 
REMARK    5  A    between atoms: C_20  and  C_21 
REMARK       I    between atoms: C_21  and  N_22 
REMARK    6  A    between atoms: N_22  and  C_23 
REMARK    7  A    between atoms: C_23  and  C_24 
REMARK    8  A    between atoms: C_24  and  O_25 
ROOT
HETATM    1  C   UNL     1     -41.947  54.665 -55.530  1.00  0.00     0.228 C 
HETATM    2  N   UNL     1     -41.875  55.904 -56.142  1.00  0.00    -0.325 N 
HETATM    3  O   UNL     1     -42.977  54.086 -55.189  1.00  0.00    -0.273 OA
HETATM    4  H   UNL     1     -40.936  56.243 -56.363  1.00  0.00     0.169 HD
ENDROOT
BRANCH   2   5
HETATM    5  C   UNL     1     -42.927  56.792 -56.464  1.00  0.00     0.057 A 
HETATM    6  C   UNL     1     -43.440  56.775 -57.775  1.00  0.00     0.060 A 
HETATM    7 CL   UNL     1     -42.802  55.699 -58.973  1.00  0.00    -0.082 Cl
HETATM    8  C   UNL     1     -44.484  57.622 -58.146  1.00  0.00     0.027 A 
HETATM    9  C   UNL     1     -45.029  58.500 -57.209  1.00  0.00     0.019 A 
HETATM   10  C   UNL     1     -44.532  58.542 -55.898  1.00  0.00     0.034 A 
HETATM   11  C   UNL     1     -43.474  57.691 -55.540  1.00  0.00     0.048 A 
BRANCH  10  12
HETATM   12  C   UNL     1     -45.147  59.523 -54.950  1.00  0.00     0.251 C 
HETATM   13  N   UNL     1     -45.119  59.220 -53.606  1.00  0.00    -0.355 N 
HETATM   14  H   UNL     1     -44.914  58.278 -53.298  1.00  0.00     0.162 HD
HETATM   15  O   UNL     1     -45.664  60.548 -55.385  1.00  0.00    -0.268 OA
BRANCH  13  16
HETATM   16  C   UNL     1     -45.795  60.051 -52.625  1.00  0.00     0.149 C 
BRANCH  16  17
HETATM   17  C   UNL     1     -45.201  59.861 -51.230  1.00  0.00     0.186 C 
BRANCH  17  18
HETATM   18  O   UNL     1     -45.242  61.118 -50.542  1.00  0.00    -0.394 OA
HETATM   19  C   UNL     1     -45.446  60.944 -49.146  1.00  0.00     0.201 C 
ENDBRANCH  17  18
ENDBRANCH  16  17
ENDBRANCH  13  16
ENDBRANCH  10  12
ENDBRANCH   2   5
BRANCH   1  20
HETATM   20  C   UNL     1     -40.592  53.994 -55.367  1.00  0.00     0.165 C 
BRANCH  20  21
HETATM   21  C   UNL     1     -40.450  53.391 -54.020  1.00  0.00     0.075 A 
HETATM   22  C   UNL     1     -40.205  52.087 -53.654  1.00  0.00     0.077 A 
HETATM   23  C   UNL     1     -39.977  50.824 -54.376  1.00  0.00     0.079 C 
HETATM   24  O   UNL     1     -40.197  52.032 -52.290  1.00  0.00    -0.292 OA
HETATM   25  C   UNL     1     -40.446  53.320 -51.879  1.00  0.00     0.204 A 
HETATM   26  N   UNL     1     -40.598  54.168 -52.888  1.00  0.00    -0.224 NA
BRANCH  25  27
HETATM   27  C   UNL     1     -40.553  53.697 -50.500  1.00  0.00     0.128 A 
HETATM   28  O   UNL     1     -40.343  52.819 -49.464  1.00  0.00    -0.318 OA
HETATM   29  C   UNL     1     -40.538  53.493 -48.304  1.00  0.00     0.142 A 
HETATM   30  C   UNL     1     -40.868  54.802 -48.556  1.00  0.00     0.027 A 
HETATM   31  C   UNL     1     -40.877  54.935 -49.966  1.00  0.00     0.043 A 
ENDBRANCH  25  27
ENDBRANCH  20  21
ENDBRANCH   1  20
TORSDOF 8
ENDMDL
MODEL 7
REMARK VINA RESULT:      -6.8      2.291      2.757
REMARK  8 active torsions:
REMARK  status: ('A' for Active; 'I' for Inactive)
REMARK    1  A    between atoms: C_4  and  C_5 
REMARK    2  A    between atoms: C_11  and  C_12 
REMARK    3  A    between atoms: C_12  and  C_13 
REMARK       I    between atoms: C_13  and  N_14 
REMARK    4  A    between atoms: N_14  and  C_15 
REMARK    5  A    between atoms: C_20  and  C_21 
REMARK       I    between atoms: C_21  and  N_22 
REMARK    6  A    between atoms: N_22  and  C_23 
REMARK    7  A    between atoms: C_23  and  C_24 
REMARK    8  A    between atoms: C_24  and  O_25 
ROOT
HETATM    1  C   UNL     1     -42.341  56.088 -52.669  1.00  0.00     0.228 C 
HETATM    2  N   UNL     1     -41.599  56.181 -53.833  1.00  0.00    -0.325 N 
HETATM    3  O   UNL     1     -43.568  56.029 -52.595  1.00  0.00    -0.273 OA
HETATM    4  H   UNL     1     -40.584  56.220 -53.718  1.00  0.00     0.169 HD
ENDROOT
BRANCH   2   5
HETATM    5  C   UNL     1     -42.059  56.278 -55.167  1.00  0.00     0.057 A 
HETATM    6  C   UNL     1     -42.534  55.112 -55.797  1.00  0.00     0.060 A 
HETATM    7 CL   UNL     1     -42.556  53.591 -54.969  1.00  0.00    -0.082 Cl
HETATM    8  C   UNL     1     -43.008  55.151 -57.108  1.00  0.00     0.027 A 
HETATM    9  C   UNL     1     -43.012  56.357 -57.808  1.00  0.00     0.019 A 
HETATM   10  C   UNL     1     -42.537  57.532 -57.205  1.00  0.00     0.034 A 
HETATM   11  C   UNL     1     -42.054  57.478 -55.888  1.00  0.00     0.048 A 
BRANCH  10  12
HETATM   12  C   UNL     1     -42.548  58.787 -58.020  1.00  0.00     0.251 C 
HETATM   13  N   UNL     1     -43.220  58.764 -59.223  1.00  0.00    -0.355 N 
HETATM   14  H   UNL     1     -43.482  57.884 -59.647  1.00  0.00     0.162 HD
HETATM   15  O   UNL     1     -41.959  59.784 -57.612  1.00  0.00    -0.268 OA
BRANCH  13  16
HETATM   16  C   UNL     1     -43.184  59.894 -60.136  1.00  0.00     0.149 C 
BRANCH  16  17
HETATM   17  C   UNL     1     -44.592  60.319 -60.552  1.00  0.00     0.186 C 
BRANCH  17  18
HETATM   18  O   UNL     1     -45.421  59.151 -60.609  1.00  0.00    -0.394 OA
HETATM   19  C   UNL     1     -46.787  59.469 -60.381  1.00  0.00     0.201 C 
ENDBRANCH  17  18
ENDBRANCH  16  17
ENDBRANCH  13  16
ENDBRANCH  10  12
ENDBRANCH   2   5
BRANCH   1  20
HETATM   20  C   UNL     1     -41.486  55.982 -51.416  1.00  0.00     0.165 C 
BRANCH  20  21
HETATM   21  C   UNL     1     -40.942  54.612 -51.251  1.00  0.00     0.075 A 
HETATM   22  C   UNL     1     -40.448  53.983 -50.131  1.00  0.00     0.077 A 
HETATM   23  C   UNL     1     -40.273  54.354 -48.716  1.00  0.00     0.079 C 
HETATM   24  O   UNL     1     -40.036  52.736 -50.501  1.00  0.00    -0.292 OA
HETATM   25  C   UNL     1     -40.294  52.660 -51.849  1.00  0.00     0.204 A 
HETATM   26  N   UNL     1     -40.844  53.764 -52.337  1.00  0.00    -0.224 NA
BRANCH  25  27
HETATM   27  C   UNL     1     -39.978  51.510 -52.645  1.00  0.00     0.128 A 
HETATM   28  O   UNL     1     -39.763  50.263 -52.110  1.00  0.00    -0.318 OA
HETATM   29  C   UNL     1     -39.475  49.418 -53.130  1.00  0.00     0.142 A 
HETATM   30  C   UNL     1     -39.500  50.085 -54.330  1.00  0.00     0.027 A 
HETATM   31  C   UNL     1     -39.824  51.428 -54.021  1.00  0.00     0.043 A 
ENDBRANCH  25  27
ENDBRANCH  20  21
ENDBRANCH   1  20
TORSDOF 8
ENDMDL
MODEL 8
REMARK VINA RESULT:      -6.8      3.927      5.691
REMARK  8 active torsions:
REMARK  status: ('A' for Active; 'I' for Inactive)
REMARK    1  A    between atoms: C_4  and  C_5 
REMARK    2  A    between atoms: C_11  and  C_12 
REMARK    3  A    between atoms: C_12  and  C_13 
REMARK       I    between atoms: C_13  and  N_14 
REMARK    4  A    between atoms: N_14  and  C_15 
REMARK    5  A    between atoms: C_20  and  C_21 
REMARK       I    between atoms: C_21  and  N_22 
REMARK    6  A    between atoms: N_22  and  C_23 
REMARK    7  A    between atoms: C_23  and  C_24 
REMARK    8  A    between atoms: C_24  and  O_25 
ROOT
HETATM    1  C   UNL     1     -42.777  55.124 -55.878  1.00  0.00     0.228 C 
HETATM    2  N   UNL     1     -43.557  55.942 -56.676  1.00  0.00    -0.325 N 
HETATM    3  O   UNL     1     -41.556  54.997 -55.947  1.00  0.00    -0.273 OA
HETATM    4  H   UNL     1     -44.561  55.932 -56.486  1.00  0.00     0.169 HD
ENDROOT
BRANCH   2   5
HETATM    5  C   UNL     1     -43.157  56.761 -57.757  1.00  0.00     0.057 A 
HETATM    6  C   UNL     1     -43.344  56.280 -59.066  1.00  0.00     0.060 A 
HETATM    7 CL   UNL     1     -44.041  54.721 -59.357  1.00  0.00    -0.082 Cl
HETATM    8  C   UNL     1     -42.977  57.050 -60.170  1.00  0.00     0.027 A 
HETATM    9  C   UNL     1     -42.416  58.312 -59.979  1.00  0.00     0.019 A 
HETATM   10  C   UNL     1     -42.214  58.812 -58.684  1.00  0.00     0.034 A 
HETATM   11  C   UNL     1     -42.578  58.025 -57.581  1.00  0.00     0.048 A 
BRANCH  10  12
HETATM   12  C   UNL     1     -41.587  60.164 -58.550  1.00  0.00     0.251 C 
HETATM   13  N   UNL     1     -41.617  60.997 -59.648  1.00  0.00    -0.355 N 
HETATM   14  H   UNL     1     -41.831  60.627 -60.565  1.00  0.00     0.162 HD
HETATM   15  O   UNL     1     -41.059  60.490 -57.490  1.00  0.00    -0.268 OA
BRANCH  13  16
HETATM   16  C   UNL     1     -40.931  62.278 -59.651  1.00  0.00     0.149 C 
BRANCH  16  17
HETATM   17  C   UNL     1     -40.722  62.795 -61.074  1.00  0.00     0.186 C 
BRANCH  17  18
HETATM   18  O   UNL     1     -39.339  63.137 -61.236  1.00  0.00    -0.394 OA
HETATM   19  C   UNL     1     -38.980  63.222 -62.608  1.00  0.00     0.201 C 
ENDBRANCH  17  18
ENDBRANCH  16  17
ENDBRANCH  13  16
ENDBRANCH  10  12
ENDBRANCH   2   5
BRANCH   1  20
HETATM   20  C   UNL     1     -43.569  54.407 -54.796  1.00  0.00     0.165 C 
BRANCH  20  21
HETATM   21  C   UNL     1     -43.209  54.905 -53.446  1.00  0.00     0.075 A 
HETATM   22  C   UNL     1     -43.465  56.121 -52.852  1.00  0.00     0.077 A 
HETATM   23  C   UNL     1     -44.168  57.351 -53.253  1.00  0.00     0.079 C 
HETATM   24  O   UNL     1     -42.896  56.106 -51.612  1.00  0.00    -0.292 OA
HETATM   25  C   UNL     1     -42.304  54.870 -51.505  1.00  0.00     0.204 A 
HETATM   26  N   UNL     1     -42.475  54.116 -52.583  1.00  0.00    -0.224 NA
BRANCH  25  27
HETATM   27  C   UNL     1     -41.561  54.453 -50.352  1.00  0.00     0.128 A 
HETATM   28  O   UNL     1     -41.030  53.193 -50.217  1.00  0.00    -0.318 OA
HETATM   29  C   UNL     1     -40.409  53.132 -49.013  1.00  0.00     0.142 A 
HETATM   30  C   UNL     1     -40.519  54.331 -48.353  1.00  0.00     0.027 A 
HETATM   31  C   UNL     1     -41.257  55.181 -49.211  1.00  0.00     0.043 A 
ENDBRANCH  25  27
ENDBRANCH  20  21
ENDBRANCH   1  20
TORSDOF 8
ENDMDL
MODEL 9
REMARK VINA RESULT:      -6.7      4.143      7.527
REMARK  8 active torsions:
REMARK  status: ('A' for Active; 'I' for Inactive)
REMARK    1  A    between atoms: C_4  and  C_5 
REMARK    2  A    between atoms: C_11  and  C_12 
REMARK    3  A    between atoms: C_12  and  C_13 
REMARK       I    between atoms: C_13  and  N_14 
REMARK    4  A    between atoms: N_14  and  C_15 
REMARK    5  A    between atoms: C_20  and  C_21 
REMARK       I    between atoms: C_21  and  N_22 
REMARK    6  A    between atoms: N_22  and  C_23 
REMARK    7  A    between atoms: C_23  and  C_24 
REMARK    8  A    between atoms: C_24  and  O_25 
ROOT
HETATM    1  C   UNL     1     -44.180  57.785 -53.937  1.00  0.00     0.228 C 
HETATM    2  N   UNL     1     -43.718  57.709 -52.635  1.00  0.00    -0.325 N 
HETATM    3  O   UNL     1     -44.191  58.791 -54.644  1.00  0.00    -0.273 OA
HETATM    4  H   UNL     1     -43.780  56.791 -52.188  1.00  0.00     0.169 HD
ENDROOT
BRANCH   2   5
HETATM    5  C   UNL     1     -43.211  58.744 -51.817  1.00  0.00     0.057 A 
HETATM    6  C   UNL     1     -41.817  58.932 -51.761  1.00  0.00     0.060 A 
HETATM    7 CL   UNL     1     -40.740  57.922 -52.666  1.00  0.00    -0.082 Cl
HETATM    8  C   UNL     1     -41.263  59.945 -50.978  1.00  0.00     0.027 A 
HETATM    9  C   UNL     1     -42.096  60.783 -50.238  1.00  0.00     0.019 A 
HETATM   10  C   UNL     1     -43.488  60.612 -50.271  1.00  0.00     0.034 A 
HETATM   11  C   UNL     1     -44.034  59.584 -51.055  1.00  0.00     0.048 A 
BRANCH  10  12
HETATM   12  C   UNL     1     -44.323  61.532 -49.435  1.00  0.00     0.251 C 
HETATM   13  N   UNL     1     -45.355  60.979 -48.709  1.00  0.00    -0.355 N 
HETATM   14  H   UNL     1     -45.685  60.045 -48.917  1.00  0.00     0.162 HD
HETATM   15  O   UNL     1     -44.082  62.736 -49.427  1.00  0.00    -0.268 OA
BRANCH  13  16
HETATM   16  C   UNL     1     -46.291  61.806 -47.966  1.00  0.00     0.149 C 
BRANCH  16  17
HETATM   17  C   UNL     1     -46.500  61.275 -46.548  1.00  0.00     0.186 C 
BRANCH  17  18
HETATM   18  O   UNL     1     -45.984  59.939 -46.482  1.00  0.00    -0.394 OA
HETATM   19  C   UNL     1     -46.892  59.060 -45.831  1.00  0.00     0.201 C 
ENDBRANCH  17  18
ENDBRANCH  16  17
ENDBRANCH  13  16
ENDBRANCH  10  12
ENDBRANCH   2   5
BRANCH   1  20
HETATM   20  C   UNL     1     -44.632  56.444 -54.495  1.00  0.00     0.165 C 
BRANCH  20  21
HETATM   21  C   UNL     1     -43.474  55.564 -54.783  1.00  0.00     0.075 A 
HETATM   22  C   UNL     1     -42.832  55.303 -55.973  1.00  0.00     0.077 A 
HETATM   23  C   UNL     1     -42.986  55.760 -57.364  1.00  0.00     0.079 C 
HETATM   24  O   UNL     1     -41.843  54.397 -55.723  1.00  0.00    -0.292 OA
HETATM   25  C   UNL     1     -41.930  54.136 -54.376  1.00  0.00     0.204 A 
HETATM   26  N   UNL     1     -42.892  54.822 -53.773  1.00  0.00    -0.224 NA
BRANCH  25  27
HETATM   27  C   UNL     1     -41.079  53.200 -53.701  1.00  0.00     0.128 A 
HETATM   28  O   UNL     1     -40.716  53.330 -52.383  1.00  0.00    -0.318 OA
HETATM   29  C   UNL     1     -39.902  52.291 -52.072  1.00  0.00     0.142 A 
HETATM   30  C   UNL     1     -39.724  51.475 -53.162  1.00  0.00     0.027 A 
HETATM   31  C   UNL     1     -40.480  52.056 -54.209  1.00  0.00     0.043 A 
ENDBRANCH  25  27
ENDBRANCH  20  21
ENDBRANCH   1  20
TORSDOF 8
ENDMDL
MODEL 10
REMARK VINA RESULT:      -6.6      3.733      5.577
REMARK  8 active torsions:
REMARK  status: ('A' for Active; 'I' for Inactive)
REMARK    1  A    between atoms: C_4  and  C_5 
REMARK    2  A    between atoms: C_11  and  C_12 
REMARK    3  A    between atoms: C_12  and  C_13 
REMARK       I    between atoms: C_13  and  N_14 
REMARK    4  A    between atoms: N_14  and  C_15 
REMARK    5  A    between atoms: C_20  and  C_21 
REMARK       I    between atoms: C_21  and  N_22 
REMARK    6  A    between atoms: N_22  and  C_23 
REMARK    7  A    between atoms: C_23  and  C_24 
REMARK    8  A    between atoms: C_24  and  O_25 
ROOT
HETATM    1  C   UNL     1     -42.274  54.990 -55.779  1.00  0.00     0.228 C 
HETATM    2  N   UNL     1     -43.143  55.419 -56.767  1.00  0.00    -0.325 N 
HETATM    3  O   UNL     1     -41.197  55.508 -55.488  1.00  0.00    -0.273 OA
HETATM    4  H   UNL     1     -44.001  54.875 -56.879  1.00  0.00     0.169 HD
ENDROOT
BRANCH   2   5
HETATM    5  C   UNL     1     -42.982  56.486 -57.680  1.00  0.00     0.057 A 
HETATM    6  C   UNL     1     -43.329  56.271 -59.028  1.00  0.00     0.060 A 
HETATM    7 CL   UNL     1     -43.934  54.740 -59.564  1.00  0.00    -0.082 Cl
HETATM    8  C   UNL     1     -43.201  57.292 -59.970  1.00  0.00     0.027 A 
HETATM    9  C   UNL     1     -42.722  58.541 -59.578  1.00  0.00     0.019 A 
HETATM   10  C   UNL     1     -42.363  58.779 -58.243  1.00  0.00     0.034 A 
HETATM   11  C   UNL     1     -42.488  57.742 -57.305  1.00  0.00     0.048 A 
BRANCH  10  12
HETATM   12  C   UNL     1     -41.835  60.135 -57.894  1.00  0.00     0.251 C 
HETATM   13  N   UNL     1     -41.945  61.129 -58.843  1.00  0.00    -0.355 N 
HETATM   14  H   UNL     1     -42.147  60.897 -59.806  1.00  0.00     0.162 HD
HETATM   15  O   UNL     1     -41.315  60.324 -56.798  1.00  0.00    -0.268 OA
BRANCH  13  16
HETATM   16  C   UNL     1     -41.354  62.441 -58.640  1.00  0.00     0.149 C 
BRANCH  16  17
HETATM   17  C   UNL     1     -39.926  62.498 -59.182  1.00  0.00     0.186 C 
BRANCH  17  18
HETATM   18  O   UNL     1     -39.824  63.610 -60.082  1.00  0.00    -0.394 OA
HETATM   19  C   UNL     1     -39.423  63.195 -61.380  1.00  0.00     0.201 C 
ENDBRANCH  17  18
ENDBRANCH  16  17
ENDBRANCH  13  16
ENDBRANCH  10  12
ENDBRANCH   2   5
BRANCH   1  20
HETATM   20  C   UNL     1     -42.807  53.813 -54.978  1.00  0.00     0.165 C 
BRANCH  20  21
HETATM   21  C   UNL     1     -41.919  53.494 -53.834  1.00  0.00     0.075 A 
HETATM   22  C   UNL     1     -40.902  52.573 -53.730  1.00  0.00     0.077 A 
HETATM   23  C   UNL     1     -40.284  51.592 -54.639  1.00  0.00     0.079 C 
HETATM   24  O   UNL     1     -40.408  52.638 -52.460  1.00  0.00    -0.292 OA
HETATM   25  C   UNL     1     -41.160  53.604 -51.833  1.00  0.00     0.204 A 
HETATM   26  N   UNL     1     -42.074  54.147 -52.626  1.00  0.00    -0.224 NA
BRANCH  25  27
HETATM   27  C   UNL     1     -40.984  53.966 -50.457  1.00  0.00     0.128 A 
HETATM   28  O   UNL     1     -41.431  55.153 -49.931  1.00  0.00    -0.318 OA
HETATM   29  C   UNL     1     -41.090  55.180 -48.619  1.00  0.00     0.142 A 
HETATM   30  C   UNL     1     -40.429  54.028 -48.270  1.00  0.00     0.027 A 
HETATM   31  C   UNL     1     -40.361  53.247 -49.448  1.00  0.00     0.043 A 
ENDBRANCH  25  27
ENDBRANCH  20  21
ENDBRANCH   1  20
TORSDOF 8
ENDMDL
