MODEL 1
REMARK VINA RESULT:      -9.6      0.000      0.000
REMARK  7 active torsions:
REMARK  status: ('A' for Active; 'I' for Inactive)
REMARK    1  A    between atoms: C_6  and  N_7 
REMARK    2  A    between atoms: C_10  and  C_11 
REMARK       I    between atoms: C_11  and  N_12 
REMARK    3  A    between atoms: N_12  and  C_13 
REMARK    4  A    between atoms: C_16  and  C_17 
REMARK    5  A    between atoms: C_17  and  N_18 
REMARK    6  A    between atoms: C_21  and  C_22 
REMARK       I    between atoms: C_22  and  N_23 
REMARK    7  A    between atoms: C_31  and  C_32 
ROOT
HETATM    1  C   UNL     1     -42.934  57.030 -52.861  1.00  0.00     0.278 C 
HETATM    2  N   UNL     1     -42.535  57.908 -51.869  1.00  0.00    -0.322 N 
HETATM    3  O   UNL     1     -43.979  57.086 -53.496  1.00  0.00    -0.265 OA
HETATM    4  H   UNL     1     -41.651  57.681 -51.418  1.00  0.00     0.169 HD
ENDROOT
BRANCH   2   5
HETATM    5  C   UNL     1     -43.220  59.050 -51.413  1.00  0.00     0.035 A 
HETATM    6  C   UNL     1     -42.585  60.236 -51.040  1.00  0.00     0.030 A 
HETATM    7  C   UNL     1     -43.325  61.335 -50.593  1.00  0.00     0.011 A 
HETATM    8  C   UNL     1     -44.723  61.279 -50.530  1.00  0.00    -0.032 A 
HETATM    9  C   UNL     1     -45.361  60.085 -50.891  1.00  0.00     0.011 A 
HETATM   10  C   UNL     1     -44.613  58.981 -51.321  1.00  0.00     0.030 A 
BRANCH   8  11
HETATM   11  C   UNL     1     -45.515  62.477 -50.083  1.00  0.00     0.273 C 
BRANCH  11  12
HETATM   12  N   UNL     1     -45.793  62.481 -48.590  1.00  0.00    -0.066 N 
HETATM   13  H   UNL     1     -46.720  62.907 -48.478  1.00  0.00     0.280 HD
HETATM   14  C   UNL     1     -45.870  61.075 -48.019  1.00  0.00     0.249 C 
HETATM   15  C   UNL     1     -46.276  61.128 -46.543  1.00  0.00     0.103 C 
HETATM   16  C   UNL     1     -45.336  62.034 -45.744  1.00  0.00     0.017 C 
HETATM   17  C   UNL     1     -45.212  63.415 -46.381  1.00  0.00     0.029 C 
HETATM   18  C   UNL     1     -44.801  63.335 -47.844  1.00  0.00     0.235 C 
BRANCH  15  19
HETATM   19  C   UNL     1     -46.264  59.711 -46.006  1.00  0.00     0.221 C 
HETATM   20  N   UNL     1     -45.552  59.510 -44.865  1.00  0.00    -0.370 N 
HETATM   21  H   UNL     1     -45.553  58.575 -44.468  1.00  0.00     0.159 HD
HETATM   22  H   UNL     1     -45.126  60.243 -44.313  1.00  0.00     0.159 HD
HETATM   23  O   UNL     1     -46.862  58.793 -46.553  1.00  0.00    -0.273 OA
ENDBRANCH  15  19
ENDBRANCH  11  12
ENDBRANCH   8  11
ENDBRANCH   2   5
BRANCH   1  24
HETATM   24  C   UNL     1     -41.956  55.979 -53.114  1.00  0.00     0.175 C 
HETATM   25  N   UNL     1     -40.976  56.083 -54.059  1.00  0.00    -0.152 NA
HETATM   26  N   UNL     1     -40.288  54.953 -54.055  1.00  0.00     0.011 NA
HETATM   27  N   UNL     1     -40.887  54.076 -53.200  1.00  0.00    -0.231 N 
HETATM   28  C   UNL     1     -41.827  54.765 -52.464  1.00  0.00     0.174 C 
BRANCH  27  29
HETATM   29  C   UNL     1     -40.525  52.701 -53.239  1.00  0.00     0.058 A 
HETATM   30  C   UNL     1     -39.877  52.137 -52.128  1.00  0.00     0.073 A 
HETATM   31  C   UNL     1     -39.498  50.798 -52.151  1.00  0.00     0.118 A 
HETATM   32  C   UNL     1     -39.733  50.003 -53.264  1.00  0.00     0.042 A 
HETATM   33  F   UNL     1     -38.895  50.268 -51.079  1.00  0.00    -0.206 F 
HETATM   34  C   UNL     1     -40.350  50.559 -54.381  1.00  0.00     0.005 A 
HETATM   35  C   UNL     1     -40.740  51.905 -54.374  1.00  0.00     0.031 A 
ENDBRANCH  27  29
BRANCH  28  36
HETATM   36  C   UNL     1     -42.460  54.293 -51.237  1.00  0.00     0.436 C 
HETATM   37  F   UNL     1     -41.559  53.836 -50.332  1.00  0.00    -0.165 F 
HETATM   38  F   UNL     1     -43.136  55.280 -50.600  1.00  0.00    -0.165 F 
HETATM   39  F   UNL     1     -43.334  53.288 -51.474  1.00  0.00    -0.165 F 
ENDBRANCH  28  36
ENDBRANCH   1  24
TORSDOF 7
ENDMDL
MODEL 2
REMARK VINA RESULT:      -9.4      1.497      1.994
REMARK  7 active torsions:
REMARK  status: ('A' for Active; 'I' for Inactive)
REMARK    1  A    between atoms: C_6  and  N_7 
REMARK    2  A    between atoms: C_10  and  C_11 
REMARK       I    between atoms: C_11  and  N_12 
REMARK    3  A    between atoms: N_12  and  C_13 
REMARK    4  A    between atoms: C_16  and  C_17 
REMARK    5  A    between atoms: C_17  and  N_18 
REMARK    6  A    between atoms: C_21  and  C_22 
REMARK       I    between atoms: C_22  and  N_23 
REMARK    7  A    between atoms: C_31  and  C_32 
ROOT
HETATM    1  C   UNL     1     -42.535  56.329 -51.454  1.00  0.00     0.278 C 
HETATM    2  N   UNL     1     -42.127  57.579 -51.885  1.00  0.00    -0.322 N 
HETATM    3  O   UNL     1     -43.365  56.101 -50.583  1.00  0.00    -0.265 OA
HETATM    4  H   UNL     1     -41.394  57.577 -52.590  1.00  0.00     0.169 HD
ENDROOT
BRANCH   2   5
HETATM    5  C   UNL     1     -42.598  58.830 -51.443  1.00  0.00     0.035 A 
HETATM    6  C   UNL     1     -43.878  59.315 -51.715  1.00  0.00     0.030 A 
HETATM    7  C   UNL     1     -44.283  60.569 -51.248  1.00  0.00     0.011 A 
HETATM    8  C   UNL     1     -43.421  61.359 -50.478  1.00  0.00    -0.032 A 
HETATM    9  C   UNL     1     -42.130  60.880 -50.216  1.00  0.00     0.011 A 
HETATM   10  C   UNL     1     -41.724  59.630 -50.701  1.00  0.00     0.030 A 
BRANCH   8  11
HETATM   11  C   UNL     1     -43.876  62.692 -49.949  1.00  0.00     0.273 C 
BRANCH  11  12
HETATM   12  N   UNL     1     -45.047  62.580 -48.989  1.00  0.00    -0.066 N 
HETATM   13  H   UNL     1     -45.845  62.272 -49.556  1.00  0.00     0.280 HD
HETATM   14  C   UNL     1     -44.815  61.522 -47.924  1.00  0.00     0.249 C 
HETATM   15  C   UNL     1     -46.070  61.358 -47.062  1.00  0.00     0.103 C 
HETATM   16  C   UNL     1     -46.512  62.699 -46.470  1.00  0.00     0.017 C 
HETATM   17  C   UNL     1     -46.662  63.767 -47.548  1.00  0.00     0.029 C 
HETATM   18  C   UNL     1     -45.399  63.915 -48.385  1.00  0.00     0.235 C 
BRANCH  15  19
HETATM   19  C   UNL     1     -45.760  60.350 -45.974  1.00  0.00     0.221 C 
HETATM   20  N   UNL     1     -44.620  60.567 -45.264  1.00  0.00    -0.370 N 
HETATM   21  H   UNL     1     -44.406  59.923 -44.509  1.00  0.00     0.159 HD
HETATM   22  H   UNL     1     -44.036  61.389 -45.347  1.00  0.00     0.159 HD
HETATM   23  O   UNL     1     -46.488  59.396 -45.732  1.00  0.00    -0.273 OA
ENDBRANCH  15  19
ENDBRANCH  11  12
ENDBRANCH   8  11
ENDBRANCH   2   5
BRANCH   1  24
HETATM   24  C   UNL     1     -41.872  55.241 -52.162  1.00  0.00     0.175 C 
HETATM   25  N   UNL     1     -42.009  55.032 -53.504  1.00  0.00    -0.152 NA
HETATM   26  N   UNL     1     -41.309  53.953 -53.819  1.00  0.00     0.011 NA
HETATM   27  N   UNL     1     -40.819  53.397 -52.674  1.00  0.00    -0.231 N 
HETATM   28  C   UNL     1     -41.008  54.293 -51.645  1.00  0.00     0.174 C 
BRANCH  27  29
HETATM   29  C   UNL     1     -40.292  52.077 -52.707  1.00  0.00     0.058 A 
HETATM   30  C   UNL     1     -40.175  51.423 -53.944  1.00  0.00     0.073 A 
HETATM   31  C   UNL     1     -39.678  50.124 -54.000  1.00  0.00     0.118 A 
HETATM   32  C   UNL     1     -39.307  49.447 -52.847  1.00  0.00     0.042 A 
HETATM   33  F   UNL     1     -39.557  49.516 -55.187  1.00  0.00    -0.206 F 
HETATM   34  C   UNL     1     -39.445  50.075 -51.612  1.00  0.00     0.005 A 
HETATM   35  C   UNL     1     -39.941  51.383 -51.539  1.00  0.00     0.031 A 
ENDBRANCH  27  29
BRANCH  28  36
HETATM   36  C   UNL     1     -40.356  54.240 -50.340  1.00  0.00     0.436 C 
HETATM   37  F   UNL     1     -39.047  53.898 -50.429  1.00  0.00    -0.165 F 
HETATM   38  F   UNL     1     -40.370  55.442 -49.713  1.00  0.00    -0.165 F 
HETATM   39  F   UNL     1     -40.948  53.344 -49.516  1.00  0.00    -0.165 F 
ENDBRANCH  28  36
ENDBRANCH   1  24
TORSDOF 7
ENDMDL
MODEL 3
REMARK VINA RESULT:      -9.2      1.701      2.194
REMARK  7 active torsions:
REMARK  status: ('A' for Active; 'I' for Inactive)
REMARK    1  A    between atoms: C_6  and  N_7 
REMARK    2  A    between atoms: C_10  and  C_11 
REMARK       I    between atoms: C_11  and  N_12 
REMARK    3  A    between atoms: N_12  and  C_13 
REMARK    4  A    between atoms: C_16  and  C_17 
REMARK    5  A    between atoms: C_17  and  N_18 
REMARK    6  A    between atoms: C_21  and  C_22 
REMARK       I    between atoms: C_22  and  N_23 
REMARK    7  A    between atoms: C_31  and  C_32 
ROOT
HETATM    1  C   UNL     1     -41.578  56.888 -53.187  1.00  0.00     0.278 C 
HETATM    2  N   UNL     1     -42.950  56.767 -53.064  1.00  0.00    -0.322 N 
HETATM    3  O   UNL     1     -40.927  57.915 -53.044  1.00  0.00    -0.265 OA
HETATM    4  H   UNL     1     -43.324  55.842 -53.262  1.00  0.00     0.169 HD
ENDROOT
BRANCH   2   5
HETATM    5  C   UNL     1     -43.868  57.778 -52.720  1.00  0.00     0.035 A 
HETATM    6  C   UNL     1     -44.307  58.761 -53.608  1.00  0.00     0.030 A 
HETATM    7  C   UNL     1     -45.219  59.739 -53.201  1.00  0.00     0.011 A 
HETATM    8  C   UNL     1     -45.731  59.742 -51.897  1.00  0.00    -0.032 A 
HETATM    9  C   UNL     1     -45.281  58.765 -51.000  1.00  0.00     0.011 A 
HETATM   10  C   UNL     1     -44.353  57.797 -51.409  1.00  0.00     0.030 A 
BRANCH   8  11
HETATM   11  C   UNL     1     -46.740  60.776 -51.476  1.00  0.00     0.273 C 
BRANCH  11  12
HETATM   12  N   UNL     1     -46.142  61.870 -50.610  1.00  0.00    -0.066 N 
HETATM   13  H   UNL     1     -46.858  62.603 -50.550  1.00  0.00     0.280 HD
HETATM   14  C   UNL     1     -45.865  61.392 -49.195  1.00  0.00     0.249 C 
HETATM   15  C   UNL     1     -45.384  62.560 -48.329  1.00  0.00     0.103 C 
HETATM   16  C   UNL     1     -44.174  63.254 -48.960  1.00  0.00     0.017 C 
HETATM   17  C   UNL     1     -44.447  63.653 -50.407  1.00  0.00     0.029 C 
HETATM   18  C   UNL     1     -44.917  62.474 -51.247  1.00  0.00     0.235 C 
BRANCH  15  19
HETATM   19  C   UNL     1     -45.052  62.016 -46.954  1.00  0.00     0.221 C 
HETATM   20  N   UNL     1     -44.712  60.701 -46.898  1.00  0.00    -0.370 N 
HETATM   21  H   UNL     1     -44.455  60.319 -45.992  1.00  0.00     0.159 HD
HETATM   22  H   UNL     1     -44.572  60.105 -47.703  1.00  0.00     0.159 HD
HETATM   23  O   UNL     1     -45.078  62.711 -45.946  1.00  0.00    -0.273 OA
ENDBRANCH  15  19
ENDBRANCH  11  12
ENDBRANCH   8  11
ENDBRANCH   2   5
BRANCH   1  24
HETATM   24  C   UNL     1     -40.925  55.624 -53.510  1.00  0.00     0.175 C 
HETATM   25  N   UNL     1     -40.414  55.343 -54.745  1.00  0.00    -0.152 NA
HETATM   26  N   UNL     1     -39.927  54.114 -54.711  1.00  0.00     0.011 NA
HETATM   27  N   UNL     1     -40.224  53.556 -53.502  1.00  0.00    -0.231 N 
HETATM   28  C   UNL     1     -40.688  54.552 -52.671  1.00  0.00     0.174 C 
BRANCH  27  29
HETATM   29  C   UNL     1     -40.078  52.152 -53.323  1.00  0.00     0.058 A 
HETATM   30  C   UNL     1     -39.620  51.669 -52.087  1.00  0.00     0.073 A 
HETATM   31  C   UNL     1     -39.454  50.300 -51.895  1.00  0.00     0.118 A 
HETATM   32  C   UNL     1     -39.718  49.394 -52.913  1.00  0.00     0.042 A 
HETATM   33  F   UNL     1     -39.031  49.850 -50.707  1.00  0.00    -0.206 F 
HETATM   34  C   UNL     1     -40.146  49.864 -54.151  1.00  0.00     0.005 A 
HETATM   35  C   UNL     1     -40.321  51.239 -54.361  1.00  0.00     0.031 A 
ENDBRANCH  27  29
BRANCH  28  36
HETATM   36  C   UNL     1     -40.813  54.459 -51.220  1.00  0.00     0.436 C 
HETATM   37  F   UNL     1     -39.663  54.055 -50.625  1.00  0.00    -0.165 F 
HETATM   38  F   UNL     1     -41.105  55.657 -50.655  1.00  0.00    -0.165 F 
HETATM   39  F   UNL     1     -41.782  53.588 -50.851  1.00  0.00    -0.165 F 
ENDBRANCH  28  36
ENDBRANCH   1  24
TORSDOF 7
ENDMDL
MODEL 4
REMARK VINA RESULT:      -9.0      2.196      2.804
REMARK  7 active torsions:
REMARK  status: ('A' for Active; 'I' for Inactive)
REMARK    1  A    between atoms: C_6  and  N_7 
REMARK    2  A    between atoms: C_10  and  C_11 
REMARK       I    between atoms: C_11  and  N_12 
REMARK    3  A    between atoms: N_12  and  C_13 
REMARK    4  A    between atoms: C_16  and  C_17 
REMARK    5  A    between atoms: C_17  and  N_18 
REMARK    6  A    between atoms: C_21  and  C_22 
REMARK       I    between atoms: C_22  and  N_23 
REMARK    7  A    between atoms: C_31  and  C_32 
ROOT
HETATM    1  C   UNL     1     -42.485  56.879 -52.935  1.00  0.00     0.278 C 
HETATM    2  N   UNL     1     -42.023  57.644 -51.879  1.00  0.00    -0.322 N 
HETATM    3  O   UNL     1     -43.509  57.076 -53.576  1.00  0.00    -0.265 OA
HETATM    4  H   UNL     1     -41.173  57.305 -51.436  1.00  0.00     0.169 HD
ENDROOT
BRANCH   2   5
HETATM    5  C   UNL     1     -42.607  58.811 -51.352  1.00  0.00     0.035 A 
HETATM    6  C   UNL     1     -43.985  59.005 -51.238  1.00  0.00     0.030 A 
HETATM    7  C   UNL     1     -44.501  60.190 -50.706  1.00  0.00     0.011 A 
HETATM    8  C   UNL     1     -43.646  61.204 -50.256  1.00  0.00    -0.032 A 
HETATM    9  C   UNL     1     -42.263  61.018 -50.382  1.00  0.00     0.011 A 
HETATM   10  C   UNL     1     -41.752  59.835 -50.932  1.00  0.00     0.030 A 
BRANCH   8  11
HETATM   11  C   UNL     1     -44.208  62.463 -49.651  1.00  0.00     0.273 C 
BRANCH  11  12
HETATM   12  N   UNL     1     -45.500  62.911 -50.311  1.00  0.00    -0.066 N 
HETATM   13  H   UNL     1     -45.812  62.119 -50.884  1.00  0.00     0.280 HD
HETATM   14  C   UNL     1     -46.594  63.189 -49.294  1.00  0.00     0.249 C 
HETATM   15  C   UNL     1     -47.908  63.513 -50.010  1.00  0.00     0.103 C 
HETATM   16  C   UNL     1     -47.727  64.663 -51.005  1.00  0.00     0.017 C 
HETATM   17  C   UNL     1     -46.571  64.397 -51.965  1.00  0.00     0.029 C 
HETATM   18  C   UNL     1     -45.276  64.085 -51.228  1.00  0.00     0.235 C 
BRANCH  15  19
HETATM   19  C   UNL     1     -48.942  63.855 -48.956  1.00  0.00     0.221 C 
HETATM   20  N   UNL     1     -48.493  63.913 -47.674  1.00  0.00    -0.370 N 
HETATM   21  H   UNL     1     -49.160  64.170 -46.953  1.00  0.00     0.159 HD
HETATM   22  H   UNL     1     -47.522  63.844 -47.398  1.00  0.00     0.159 HD
HETATM   23  O   UNL     1     -50.116  64.074 -49.230  1.00  0.00    -0.273 OA
ENDBRANCH  15  19
ENDBRANCH  11  12
ENDBRANCH   8  11
ENDBRANCH   2   5
BRANCH   1  24
HETATM   24  C   UNL     1     -41.605  55.760 -53.252  1.00  0.00     0.175 C 
HETATM   25  N   UNL     1     -40.817  55.724 -54.366  1.00  0.00    -0.152 NA
HETATM   26  N   UNL     1     -40.175  54.567 -54.370  1.00  0.00     0.011 NA
HETATM   27  N   UNL     1     -40.630  53.808 -53.332  1.00  0.00    -0.231 N 
HETATM   28  C   UNL     1     -41.393  54.611 -52.513  1.00  0.00     0.174 C 
BRANCH  27  29
HETATM   29  C   UNL     1     -40.323  52.419 -53.292  1.00  0.00     0.058 A 
HETATM   30  C   UNL     1     -39.753  51.882 -52.127  1.00  0.00     0.073 A 
HETATM   31  C   UNL     1     -39.429  50.530 -52.071  1.00  0.00     0.118 A 
HETATM   32  C   UNL     1     -39.644  49.695 -53.158  1.00  0.00     0.042 A 
HETATM   33  F   UNL     1     -38.900  50.027 -50.948  1.00  0.00    -0.206 F 
HETATM   34  C   UNL     1     -40.183  50.222 -54.328  1.00  0.00     0.005 A 
HETATM   35  C   UNL     1     -40.516  51.581 -54.401  1.00  0.00     0.031 A 
ENDBRANCH  27  29
BRANCH  28  36
HETATM   36  C   UNL     1     -41.798  54.293 -51.147  1.00  0.00     0.436 C 
HETATM   37  F   UNL     1     -42.104  52.981 -50.990  1.00  0.00    -0.165 F 
HETATM   38  F   UNL     1     -40.810  54.539 -50.252  1.00  0.00    -0.165 F 
HETATM   39  F   UNL     1     -42.882  55.006 -50.763  1.00  0.00    -0.165 F 
ENDBRANCH  28  36
ENDBRANCH   1  24
TORSDOF 7
ENDMDL
MODEL 5
REMARK VINA RESULT:      -8.7     18.219     20.636
REMARK  7 active torsions:
REMARK  status: ('A' for Active; 'I' for Inactive)
REMARK    1  A    between atoms: C_6  and  N_7 
REMARK    2  A    between atoms: C_10  and  C_11 
REMARK       I    between atoms: C_11  and  N_12 
REMARK    3  A    between atoms: N_12  and  C_13 
REMARK    4  A    between atoms: C_16  and  C_17 
REMARK    5  A    between atoms: C_17  and  N_18 
REMARK    6  A    between atoms: C_21  and  C_22 
REMARK       I    between atoms: C_22  and  N_23 
REMARK    7  A    between atoms: C_31  and  C_32 
ROOT
HETATM    1  C   UNL     1     -35.691  40.898 -52.567  1.00  0.00     0.278 C 
HETATM    2  N   UNL     1     -35.433  39.575 -52.256  1.00  0.00    -0.322 N 
HETATM    3  O   UNL     1     -35.312  41.875 -51.935  1.00  0.00    -0.265 OA
HETATM    4  H   UNL     1     -35.866  38.891 -52.872  1.00  0.00     0.169 HD
ENDROOT
BRANCH   2   5
HETATM    5  C   UNL     1     -34.663  39.085 -51.183  1.00  0.00     0.035 A 
HETATM    6  C   UNL     1     -35.151  38.935 -49.885  1.00  0.00     0.030 A 
HETATM    7  C   UNL     1     -34.332  38.444 -48.863  1.00  0.00     0.011 A 
HETATM    8  C   UNL     1     -33.008  38.072 -49.125  1.00  0.00    -0.032 A 
HETATM    9  C   UNL     1     -32.511  38.235 -50.425  1.00  0.00     0.011 A 
HETATM   10  C   UNL     1     -33.332  38.743 -51.440  1.00  0.00     0.030 A 
BRANCH   8  11
HETATM   11  C   UNL     1     -32.143  37.510 -48.029  1.00  0.00     0.273 C 
BRANCH  11  12
HETATM   12  N   UNL     1     -31.844  38.520 -46.934  1.00  0.00    -0.066 N 
HETATM   13  H   UNL     1     -32.618  39.194 -46.956  1.00  0.00     0.280 HD
HETATM   14  C   UNL     1     -31.839  37.883 -45.555  1.00  0.00     0.249 C 
HETATM   15  C   UNL     1     -31.661  38.959 -44.479  1.00  0.00     0.103 C 
HETATM   16  C   UNL     1     -30.408  39.799 -44.741  1.00  0.00     0.017 C 
HETATM   17  C   UNL     1     -30.396  40.362 -46.159  1.00  0.00     0.029 C 
HETATM   18  C   UNL     1     -30.568  39.273 -47.208  1.00  0.00     0.235 C 
BRANCH  15  19
HETATM   19  C   UNL     1     -31.587  38.265 -43.134  1.00  0.00     0.221 C 
HETATM   20  N   UNL     1     -30.340  37.965 -42.682  1.00  0.00    -0.370 N 
HETATM   21  H   UNL     1     -30.263  37.527 -41.769  1.00  0.00     0.159 HD
HETATM   22  H   UNL     1     -29.480  38.257 -43.126  1.00  0.00     0.159 HD
HETATM   23  O   UNL     1     -32.585  37.991 -42.478  1.00  0.00    -0.273 OA
ENDBRANCH  15  19
ENDBRANCH  11  12
ENDBRANCH   8  11
ENDBRANCH   2   5
BRANCH   1  24
HETATM   24  C   UNL     1     -36.487  41.049 -53.779  1.00  0.00     0.175 C 
HETATM   25  N   UNL     1     -37.852  41.020 -53.783  1.00  0.00    -0.152 NA
HETATM   26  N   UNL     1     -38.256  41.151 -55.037  1.00  0.00     0.011 NA
HETATM   27  N   UNL     1     -37.164  41.147 -55.853  1.00  0.00    -0.231 N 
HETATM   28  C   UNL     1     -36.038  41.269 -55.068  1.00  0.00     0.174 C 
BRANCH  27  29
HETATM   29  C   UNL     1     -37.337  40.973 -57.254  1.00  0.00     0.058 A 
HETATM   30  C   UNL     1     -37.124  42.069 -58.107  1.00  0.00     0.073 A 
HETATM   31  C   UNL     1     -37.305  41.927 -59.479  1.00  0.00     0.118 A 
HETATM   32  C   UNL     1     -37.711  40.720 -60.029  1.00  0.00     0.042 A 
HETATM   33  F   UNL     1     -37.083  42.976 -60.283  1.00  0.00    -0.206 F 
HETATM   34  C   UNL     1     -37.952  39.635 -59.192  1.00  0.00     0.005 A 
HETATM   35  C   UNL     1     -37.773  39.760 -57.807  1.00  0.00     0.031 A 
ENDBRANCH  27  29
BRANCH  28  36
HETATM   36  C   UNL     1     -34.704  41.622 -55.542  1.00  0.00     0.436 C 
HETATM   37  F   UNL     1     -33.734  41.294 -54.653  1.00  0.00    -0.165 F 
HETATM   38  F   UNL     1     -34.378  40.968 -56.684  1.00  0.00    -0.165 F 
HETATM   39  F   UNL     1     -34.590  42.949 -55.787  1.00  0.00    -0.165 F 
ENDBRANCH  28  36
ENDBRANCH   1  24
TORSDOF 7
ENDMDL
MODEL 6
REMARK VINA RESULT:      -8.7     18.107     20.821
REMARK  7 active torsions:
REMARK  status: ('A' for Active; 'I' for Inactive)
REMARK    1  A    between atoms: C_6  and  N_7 
REMARK    2  A    between atoms: C_10  and  C_11 
REMARK       I    between atoms: C_11  and  N_12 
REMARK    3  A    between atoms: N_12  and  C_13 
REMARK    4  A    between atoms: C_16  and  C_17 
REMARK    5  A    between atoms: C_17  and  N_18 
REMARK    6  A    between atoms: C_21  and  C_22 
REMARK       I    between atoms: C_22  and  N_23 
REMARK    7  A    between atoms: C_31  and  C_32 
ROOT
HETATM    1  C   UNL     1     -34.566  40.983 -51.673  1.00  0.00     0.278 C 
HETATM    2  N   UNL     1     -34.852  39.685 -51.288  1.00  0.00    -0.322 N 
HETATM    3  O   UNL     1     -33.778  41.742 -51.125  1.00  0.00    -0.265 OA
HETATM    4  H   UNL     1     -35.568  39.216 -51.838  1.00  0.00     0.169 HD
ENDROOT
BRANCH   2   5
HETATM    5  C   UNL     1     -34.279  38.966 -50.221  1.00  0.00     0.035 A 
HETATM    6  C   UNL     1     -34.892  38.807 -48.978  1.00  0.00     0.030 A 
HETATM    7  C   UNL     1     -34.267  38.082 -47.958  1.00  0.00     0.011 A 
HETATM    8  C   UNL     1     -33.020  37.479 -48.169  1.00  0.00    -0.032 A 
HETATM    9  C   UNL     1     -32.397  37.650 -49.413  1.00  0.00     0.011 A 
HETATM   10  C   UNL     1     -33.020  38.392 -50.424  1.00  0.00     0.030 A 
BRANCH   8  11
HETATM   11  C   UNL     1     -32.370  36.670 -47.080  1.00  0.00     0.273 C 
BRANCH  11  12
HETATM   12  N   UNL     1     -31.642  37.526 -46.059  1.00  0.00    -0.066 N 
HETATM   13  H   UNL     1     -30.953  36.908 -45.615  1.00  0.00     0.280 HD
HETATM   14  C   UNL     1     -30.873  38.663 -46.710  1.00  0.00     0.249 C 
HETATM   15  C   UNL     1     -30.057  39.418 -45.657  1.00  0.00     0.103 C 
HETATM   16  C   UNL     1     -30.947  39.896 -44.507  1.00  0.00     0.017 C 
HETATM   17  C   UNL     1     -31.769  38.752 -43.921  1.00  0.00     0.029 C 
HETATM   18  C   UNL     1     -32.576  38.023 -44.986  1.00  0.00     0.235 C 
BRANCH  15  19
HETATM   19  C   UNL     1     -29.373  40.583 -46.344  1.00  0.00     0.221 C 
HETATM   20  N   UNL     1     -28.198  40.302 -46.970  1.00  0.00    -0.370 N 
HETATM   21  H   UNL     1     -27.735  41.060 -47.463  1.00  0.00     0.159 HD
HETATM   22  H   UNL     1     -27.814  39.374 -47.089  1.00  0.00     0.159 HD
HETATM   23  O   UNL     1     -29.842  41.714 -46.349  1.00  0.00    -0.273 OA
ENDBRANCH  15  19
ENDBRANCH  11  12
ENDBRANCH   8  11
ENDBRANCH   2   5
BRANCH   1  24
HETATM   24  C   UNL     1     -35.311  41.399 -52.856  1.00  0.00     0.175 C 
HETATM   25  N   UNL     1     -36.328  42.309 -52.815  1.00  0.00    -0.152 NA
HETATM   26  N   UNL     1     -36.808  42.435 -54.041  1.00  0.00     0.011 NA
HETATM   27  N   UNL     1     -36.188  41.530 -54.851  1.00  0.00    -0.231 N 
HETATM   28  C   UNL     1     -35.118  40.998 -54.165  1.00  0.00     0.174 C 
BRANCH  27  29
HETATM   29  C   UNL     1     -36.730  41.255 -56.138  1.00  0.00     0.058 A 
HETATM   30  C   UNL     1     -36.539  42.190 -57.169  1.00  0.00     0.073 A 
HETATM   31  C   UNL     1     -37.074  41.951 -58.431  1.00  0.00     0.118 A 
HETATM   32  C   UNL     1     -37.814  40.807 -58.693  1.00  0.00     0.042 A 
HETATM   33  F   UNL     1     -36.871  42.843 -59.410  1.00  0.00    -0.206 F 
HETATM   34  C   UNL     1     -38.034  39.888 -57.671  1.00  0.00     0.005 A 
HETATM   35  C   UNL     1     -37.500  40.111 -56.395  1.00  0.00     0.031 A 
ENDBRANCH  27  29
BRANCH  28  36
HETATM   36  C   UNL     1     -34.017  40.246 -54.757  1.00  0.00     0.436 C 
HETATM   37  F   UNL     1     -33.694  40.690 -55.997  1.00  0.00    -0.165 F 
HETATM   38  F   UNL     1     -32.877  40.354 -54.031  1.00  0.00    -0.165 F 
HETATM   39  F   UNL     1     -34.306  38.929 -54.867  1.00  0.00    -0.165 F 
ENDBRANCH  28  36
ENDBRANCH   1  24
TORSDOF 7
ENDMDL
MODEL 7
REMARK VINA RESULT:      -8.6      3.458      4.546
REMARK  7 active torsions:
REMARK  status: ('A' for Active; 'I' for Inactive)
REMARK    1  A    between atoms: C_6  and  N_7 
REMARK    2  A    between atoms: C_10  and  C_11 
REMARK       I    between atoms: C_11  and  N_12 
REMARK    3  A    between atoms: N_12  and  C_13 
REMARK    4  A    between atoms: C_16  and  C_17 
REMARK    5  A    between atoms: C_17  and  N_18 
REMARK    6  A    between atoms: C_21  and  C_22 
REMARK       I    between atoms: C_22  and  N_23 
REMARK    7  A    between atoms: C_31  and  C_32 
ROOT
HETATM    1  C   UNL     1     -41.597  56.952 -53.168  1.00  0.00     0.278 C 
HETATM    2  N   UNL     1     -42.976  56.878 -53.235  1.00  0.00    -0.322 N 
HETATM    3  O   UNL     1     -40.941  57.939 -52.861  1.00  0.00    -0.265 OA
HETATM    4  H   UNL     1     -43.349  55.985 -53.551  1.00  0.00     0.169 HD
ENDROOT
BRANCH   2   5
HETATM    5  C   UNL     1     -43.902  57.896 -52.937  1.00  0.00     0.035 A 
HETATM    6  C   UNL     1     -44.353  58.831 -53.871  1.00  0.00     0.030 A 
HETATM    7  C   UNL     1     -45.272  59.820 -53.508  1.00  0.00     0.011 A 
HETATM    8  C   UNL     1     -45.778  59.883 -52.204  1.00  0.00    -0.032 A 
HETATM    9  C   UNL     1     -45.315  58.956 -51.261  1.00  0.00     0.011 A 
HETATM   10  C   UNL     1     -44.381  57.977 -51.626  1.00  0.00     0.030 A 
BRANCH   8  11
HETATM   11  C   UNL     1     -46.794  60.929 -51.830  1.00  0.00     0.273 C 
BRANCH  11  12
HETATM   12  N   UNL     1     -47.488  61.538 -53.035  1.00  0.00    -0.066 N 
HETATM   13  H   UNL     1     -47.488  60.808 -53.757  1.00  0.00     0.280 HD
HETATM   14  C   UNL     1     -48.939  61.884 -52.745  1.00  0.00     0.249 C 
HETATM   15  C   UNL     1     -49.628  62.374 -54.021  1.00  0.00     0.103 C 
HETATM   16  C   UNL     1     -48.862  63.541 -54.649  1.00  0.00     0.017 C 
HETATM   17  C   UNL     1     -47.390  63.199 -54.858  1.00  0.00     0.029 C 
HETATM   18  C   UNL     1     -46.727  62.721 -53.574  1.00  0.00     0.235 C 
BRANCH  15  19
HETATM   19  C   UNL     1     -51.045  62.776 -53.661  1.00  0.00     0.221 C 
HETATM   20  N   UNL     1     -51.964  61.775 -53.641  1.00  0.00    -0.370 N 
HETATM   21  H   UNL     1     -52.914  62.013 -53.373  1.00  0.00     0.159 HD
HETATM   22  H   UNL     1     -51.751  60.792 -53.749  1.00  0.00     0.159 HD
HETATM   23  O   UNL     1     -51.355  63.930 -53.394  1.00  0.00    -0.273 OA
ENDBRANCH  15  19
ENDBRANCH  11  12
ENDBRANCH   8  11
ENDBRANCH   2   5
BRANCH   1  24
HETATM   24  C   UNL     1     -40.945  55.691 -53.499  1.00  0.00     0.175 C 
HETATM   25  N   UNL     1     -40.424  55.422 -54.732  1.00  0.00    -0.152 NA
HETATM   26  N   UNL     1     -39.941  54.190 -54.708  1.00  0.00     0.011 NA
HETATM   27  N   UNL     1     -40.250  53.620 -53.508  1.00  0.00    -0.231 N 
HETATM   28  C   UNL     1     -40.719  54.608 -52.670  1.00  0.00     0.174 C 
BRANCH  27  29
HETATM   29  C   UNL     1     -40.110  52.214 -53.344  1.00  0.00     0.058 A 
HETATM   30  C   UNL     1     -39.633  51.717 -52.121  1.00  0.00     0.073 A 
HETATM   31  C   UNL     1     -39.472  50.346 -51.943  1.00  0.00     0.118 A 
HETATM   32  C   UNL     1     -39.760  49.451 -52.964  1.00  0.00     0.042 A 
HETATM   33  F   UNL     1     -39.031  49.883 -50.766  1.00  0.00    -0.206 F 
HETATM   34  C   UNL     1     -40.207  49.934 -54.190  1.00  0.00     0.005 A 
HETATM   35  C   UNL     1     -40.376  51.312 -54.385  1.00  0.00     0.031 A 
ENDBRANCH  27  29
BRANCH  28  36
HETATM   36  C   UNL     1     -40.857  54.499 -51.221  1.00  0.00     0.436 C 
HETATM   37  F   UNL     1     -39.696  54.147 -50.615  1.00  0.00    -0.165 F 
HETATM   38  F   UNL     1     -41.214  55.677 -50.653  1.00  0.00    -0.165 F 
HETATM   39  F   UNL     1     -41.786  53.580 -50.870  1.00  0.00    -0.165 F 
ENDBRANCH  28  36
ENDBRANCH   1  24
TORSDOF 7
ENDMDL
MODEL 8
REMARK VINA RESULT:      -8.6      6.059      9.601
REMARK  7 active torsions:
REMARK  status: ('A' for Active; 'I' for Inactive)
REMARK    1  A    between atoms: C_6  and  N_7 
REMARK    2  A    between atoms: C_10  and  C_11 
REMARK       I    between atoms: C_11  and  N_12 
REMARK    3  A    between atoms: N_12  and  C_13 
REMARK    4  A    between atoms: C_16  and  C_17 
REMARK    5  A    between atoms: C_17  and  N_18 
REMARK    6  A    between atoms: C_21  and  C_22 
REMARK       I    between atoms: C_22  and  N_23 
REMARK    7  A    between atoms: C_31  and  C_32 
ROOT
HETATM    1  C   UNL     1     -43.090  56.747 -57.059  1.00  0.00     0.278 C 
HETATM    2  N   UNL     1     -43.063  55.393 -56.778  1.00  0.00    -0.322 N 
HETATM    3  O   UNL     1     -42.493  57.624 -56.447  1.00  0.00    -0.265 OA
HETATM    4  H   UNL     1     -43.657  54.815 -57.367  1.00  0.00     0.169 HD
ENDROOT
BRANCH   2   5
HETATM    5  C   UNL     1     -42.326  54.746 -55.768  1.00  0.00     0.035 A 
HETATM    6  C   UNL     1     -40.936  54.612 -55.788  1.00  0.00     0.030 A 
HETATM    7  C   UNL     1     -40.265  53.954 -54.753  1.00  0.00     0.011 A 
HETATM    8  C   UNL     1     -40.969  53.432 -53.661  1.00  0.00    -0.032 A 
HETATM    9  C   UNL     1     -42.365  53.552 -53.646  1.00  0.00     0.011 A 
HETATM   10  C   UNL     1     -43.034  54.197 -54.694  1.00  0.00     0.030 A 
BRANCH   8  11
HETATM   11  C   UNL     1     -40.237  52.757 -52.533  1.00  0.00     0.273 C 
BRANCH  11  12
HETATM   12  N   UNL     1     -40.164  53.610 -51.279  1.00  0.00    -0.066 N 
HETATM   13  H   UNL     1     -39.172  53.843 -51.155  1.00  0.00     0.280 HD
HETATM   14  C   UNL     1     -40.918  54.920 -51.433  1.00  0.00     0.249 C 
HETATM   15  C   UNL     1     -40.710  55.796 -50.195  1.00  0.00     0.103 C 
HETATM   16  C   UNL     1     -41.094  55.047 -48.917  1.00  0.00     0.017 C 
HETATM   17  C   UNL     1     -40.386  53.699 -48.822  1.00  0.00     0.029 C 
HETATM   18  C   UNL     1     -40.614  52.845 -50.061  1.00  0.00     0.235 C 
BRANCH  15  19
HETATM   19  C   UNL     1     -41.541  57.052 -50.368  1.00  0.00     0.221 C 
HETATM   20  N   UNL     1     -42.874  56.866 -50.558  1.00  0.00    -0.370 N 
HETATM   21  H   UNL     1     -43.457  57.693 -50.646  1.00  0.00     0.159 HD
HETATM   22  H   UNL     1     -43.348  55.975 -50.493  1.00  0.00     0.159 HD
HETATM   23  O   UNL     1     -41.053  58.175 -50.333  1.00  0.00    -0.273 OA
ENDBRANCH  15  19
ENDBRANCH  11  12
ENDBRANCH   8  11
ENDBRANCH   2   5
BRANCH   1  24
HETATM   24  C   UNL     1     -43.925  57.071 -58.209  1.00  0.00     0.175 C 
HETATM   25  N   UNL     1     -43.644  56.649 -59.477  1.00  0.00    -0.152 NA
HETATM   26  N   UNL     1     -44.572  57.139 -60.282  1.00  0.00     0.011 NA
HETATM   27  N   UNL     1     -45.383  57.969 -59.565  1.00  0.00    -0.231 N 
HETATM   28  C   UNL     1     -45.103  57.795 -58.227  1.00  0.00     0.174 C 
BRANCH  27  29
HETATM   29  C   UNL     1     -46.266  58.849 -60.250  1.00  0.00     0.058 A 
HETATM   30  C   UNL     1     -47.423  58.321 -60.847  1.00  0.00     0.073 A 
HETATM   31  C   UNL     1     -48.293  59.159 -61.536  1.00  0.00     0.118 A 
HETATM   32  C   UNL     1     -48.034  60.517 -61.663  1.00  0.00     0.042 A 
HETATM   33  F   UNL     1     -49.401  58.646 -62.088  1.00  0.00    -0.206 F 
HETATM   34  C   UNL     1     -46.877  61.046 -61.100  1.00  0.00     0.005 A 
HETATM   35  C   UNL     1     -45.990  60.216 -60.400  1.00  0.00     0.031 A 
ENDBRANCH  27  29
BRANCH  28  36
HETATM   36  C   UNL     1     -45.941  58.239 -57.118  1.00  0.00     0.436 C 
HETATM   37  F   UNL     1     -45.963  59.589 -56.994  1.00  0.00    -0.165 F 
HETATM   38  F   UNL     1     -47.236  57.874 -57.280  1.00  0.00    -0.165 F 
HETATM   39  F   UNL     1     -45.521  57.735 -55.934  1.00  0.00    -0.165 F 
ENDBRANCH  28  36
ENDBRANCH   1  24
TORSDOF 7
ENDMDL
MODEL 9
REMARK VINA RESULT:      -8.5      3.464     10.041
REMARK  7 active torsions:
REMARK  status: ('A' for Active; 'I' for Inactive)
REMARK    1  A    between atoms: C_6  and  N_7 
REMARK    2  A    between atoms: C_10  and  C_11 
REMARK       I    between atoms: C_11  and  N_12 
REMARK    3  A    between atoms: N_12  and  C_13 
REMARK    4  A    between atoms: C_16  and  C_17 
REMARK    5  A    between atoms: C_17  and  N_18 
REMARK    6  A    between atoms: C_21  and  C_22 
REMARK       I    between atoms: C_22  and  N_23 
REMARK    7  A    between atoms: C_31  and  C_32 
ROOT
HETATM    1  C   UNL     1     -42.909  59.550 -52.575  1.00  0.00     0.278 C 
HETATM    2  N   UNL     1     -42.727  58.270 -52.084  1.00  0.00    -0.322 N 
HETATM    3  O   UNL     1     -42.694  59.921 -53.722  1.00  0.00    -0.265 OA
HETATM    4  H   UNL     1     -42.916  58.154 -51.091  1.00  0.00     0.169 HD
ENDROOT
BRANCH   2   5
HETATM    5  C   UNL     1     -42.298  57.135 -52.798  1.00  0.00     0.035 A 
HETATM    6  C   UNL     1     -40.997  56.967 -53.276  1.00  0.00     0.030 A 
HETATM    7  C   UNL     1     -40.636  55.815 -53.982  1.00  0.00     0.011 A 
HETATM    8  C   UNL     1     -41.566  54.793 -54.207  1.00  0.00    -0.032 A 
HETATM    9  C   UNL     1     -42.876  54.965 -53.741  1.00  0.00     0.011 A 
HETATM   10  C   UNL     1     -43.237  56.130 -53.050  1.00  0.00     0.030 A 
BRANCH   8  11
HETATM   11  C   UNL     1     -41.160  53.540 -54.936  1.00  0.00     0.273 C 
BRANCH  11  12
HETATM   12  N   UNL     1     -40.322  52.603 -54.083  1.00  0.00    -0.066 N 
HETATM   13  H   UNL     1     -39.355  52.937 -54.169  1.00  0.00     0.280 HD
HETATM   14  C   UNL     1     -40.696  52.680 -52.613  1.00  0.00     0.249 C 
HETATM   15  C   UNL     1     -39.742  51.817 -51.782  1.00  0.00     0.103 C 
HETATM   16  C   UNL     1     -39.703  50.378 -52.303  1.00  0.00     0.017 C 
HETATM   17  C   UNL     1     -39.404  50.330 -53.799  1.00  0.00     0.029 C 
HETATM   18  C   UNL     1     -40.370  51.190 -54.602  1.00  0.00     0.235 C 
BRANCH  15  19
HETATM   19  C   UNL     1     -40.204  51.868 -50.339  1.00  0.00     0.221 C 
HETATM   20  N   UNL     1     -40.384  50.668 -49.726  1.00  0.00    -0.370 N 
HETATM   21  H   UNL     1     -40.664  50.675 -48.750  1.00  0.00     0.159 HD
HETATM   22  H   UNL     1     -40.140  49.772 -50.126  1.00  0.00     0.159 HD
HETATM   23  O   UNL     1     -40.401  52.922 -49.747  1.00  0.00    -0.273 OA
ENDBRANCH  15  19
ENDBRANCH  11  12
ENDBRANCH   8  11
ENDBRANCH   2   5
BRANCH   1  24
HETATM   24  C   UNL     1     -43.412  60.477 -51.568  1.00  0.00     0.175 C 
HETATM   25  N   UNL     1     -42.649  61.465 -51.016  1.00  0.00    -0.152 NA
HETATM   26  N   UNL     1     -43.391  62.097 -50.121  1.00  0.00     0.011 NA
HETATM   27  N   UNL     1     -44.587  61.452 -50.007  1.00  0.00    -0.231 N 
HETATM   28  C   UNL     1     -44.687  60.544 -51.038  1.00  0.00     0.174 C 
BRANCH  27  29
HETATM   29  C   UNL     1     -45.439  61.747 -48.907  1.00  0.00     0.058 A 
HETATM   30  C   UNL     1     -45.236  61.075 -47.691  1.00  0.00     0.073 A 
HETATM   31  C   UNL     1     -46.068  61.335 -46.606  1.00  0.00     0.118 A 
HETATM   32  C   UNL     1     -47.115  62.241 -46.704  1.00  0.00     0.042 A 
HETATM   33  F   UNL     1     -45.854  60.699 -45.447  1.00  0.00    -0.206 F 
HETATM   34  C   UNL     1     -47.343  62.892 -47.912  1.00  0.00     0.005 A 
HETATM   35  C   UNL     1     -46.514  62.643 -49.014  1.00  0.00     0.031 A 
ENDBRANCH  27  29
BRANCH  28  36
HETATM   36  C   UNL     1     -45.913  59.883 -51.473  1.00  0.00     0.436 C 
HETATM   37  F   UNL     1     -46.941  60.754 -51.635  1.00  0.00    -0.165 F 
HETATM   38  F   UNL     1     -45.767  59.277 -52.677  1.00  0.00    -0.165 F 
HETATM   39  F   UNL     1     -46.321  58.942 -50.591  1.00  0.00    -0.165 F 
ENDBRANCH  28  36
ENDBRANCH   1  24
TORSDOF 7
ENDMDL
MODEL 10
REMARK VINA RESULT:      -8.5      3.968      5.024
REMARK  7 active torsions:
REMARK  status: ('A' for Active; 'I' for Inactive)
REMARK    1  A    between atoms: C_6  and  N_7 
REMARK    2  A    between atoms: C_10  and  C_11 
REMARK       I    between atoms: C_11  and  N_12 
REMARK    3  A    between atoms: N_12  and  C_13 
REMARK    4  A    between atoms: C_16  and  C_17 
REMARK    5  A    between atoms: C_17  and  N_18 
REMARK    6  A    between atoms: C_21  and  C_22 
REMARK       I    between atoms: C_22  and  N_23 
REMARK    7  A    between atoms: C_31  and  C_32 
ROOT
HETATM    1  C   UNL     1     -43.163  57.457 -52.463  1.00  0.00     0.278 C 
HETATM    2  N   UNL     1     -44.499  57.762 -52.653  1.00  0.00    -0.322 N 
HETATM    3  O   UNL     1     -42.256  58.261 -52.296  1.00  0.00    -0.265 OA
HETATM    4  H   UNL     1     -45.108  56.964 -52.819  1.00  0.00     0.169 HD
ENDROOT
BRANCH   2   5
HETATM    5  C   UNL     1     -45.090  59.040 -52.658  1.00  0.00     0.035 A 
HETATM    6  C   UNL     1     -45.125  59.872 -53.778  1.00  0.00     0.030 A 
HETATM    7  C   UNL     1     -45.726  61.133 -53.715  1.00  0.00     0.011 A 
HETATM    8  C   UNL     1     -46.327  61.581 -52.532  1.00  0.00    -0.032 A 
HETATM    9  C   UNL     1     -46.281  60.753 -51.403  1.00  0.00     0.011 A 
HETATM   10  C   UNL     1     -45.662  59.498 -51.467  1.00  0.00     0.030 A 
BRANCH   8  11
HETATM   11  C   UNL     1     -47.004  62.924 -52.482  1.00  0.00     0.273 C 
BRANCH  11  12
HETATM   12  N   UNL     1     -48.153  63.046 -53.468  1.00  0.00    -0.066 N 
HETATM   13  H   UNL     1     -47.823  62.610 -54.337  1.00  0.00     0.280 HD
HETATM   14  C   UNL     1     -49.381  62.275 -53.015  1.00  0.00     0.249 C 
HETATM   15  C   UNL     1     -50.462  62.323 -54.098  1.00  0.00     0.103 C 
HETATM   16  C   UNL     1     -50.788  63.767 -54.489  1.00  0.00     0.017 C 
HETATM   17  C   UNL     1     -49.530  64.545 -54.864  1.00  0.00     0.029 C 
HETATM   18  C   UNL     1     -48.475  64.487 -53.769  1.00  0.00     0.235 C 
BRANCH  15  19
HETATM   19  C   UNL     1     -51.687  61.607 -53.566  1.00  0.00     0.221 C 
HETATM   20  N   UNL     1     -52.149  60.572 -54.316  1.00  0.00    -0.370 N 
HETATM   21  H   UNL     1     -52.950  60.056 -53.966  1.00  0.00     0.159 HD
HETATM   22  H   UNL     1     -51.681  60.196 -55.131  1.00  0.00     0.159 HD
HETATM   23  O   UNL     1     -52.235  61.928 -52.518  1.00  0.00    -0.273 OA
ENDBRANCH  15  19
ENDBRANCH  11  12
ENDBRANCH   8  11
ENDBRANCH   2   5
BRANCH   1  24
HETATM   24  C   UNL     1     -42.904  56.022 -52.469  1.00  0.00     0.175 C 
HETATM   25  N   UNL     1     -43.473  55.158 -51.579  1.00  0.00    -0.152 NA
HETATM   26  N   UNL     1     -43.005  53.947 -51.835  1.00  0.00     0.011 NA
HETATM   27  N   UNL     1     -42.051  54.040 -52.806  1.00  0.00    -0.231 N 
HETATM   28  C   UNL     1     -42.106  55.307 -53.343  1.00  0.00     0.174 C 
BRANCH  27  29
HETATM   29  C   UNL     1     -41.188  52.935 -53.047  1.00  0.00     0.058 A 
HETATM   30  C   UNL     1     -40.397  52.448 -51.994  1.00  0.00     0.073 A 
HETATM   31  C   UNL     1     -39.532  51.380 -52.211  1.00  0.00     0.118 A 
HETATM   32  C   UNL     1     -39.421  50.788 -53.462  1.00  0.00     0.042 A 
HETATM   33  F   UNL     1     -38.795  50.914 -51.195  1.00  0.00    -0.206 F 
HETATM   34  C   UNL     1     -40.180  51.280 -54.520  1.00  0.00     0.005 A 
HETATM   35  C   UNL     1     -41.057  52.355 -54.318  1.00  0.00     0.031 A 
ENDBRANCH  27  29
BRANCH  28  36
HETATM   36  C   UNL     1     -41.493  55.725 -54.600  1.00  0.00     0.436 C 
HETATM   37  F   UNL     1     -41.925  54.992 -55.656  1.00  0.00    -0.165 F 
HETATM   38  F   UNL     1     -41.792  57.010 -54.911  1.00  0.00    -0.165 F 
HETATM   39  F   UNL     1     -40.144  55.619 -54.564  1.00  0.00    -0.165 F 
ENDBRANCH  28  36
ENDBRANCH   1  24
TORSDOF 7
ENDMDL
