MODEL 1
REMARK VINA RESULT:      -8.9      0.000      0.000
REMARK  6 active torsions:
REMARK  status: ('A' for Active; 'I' for Inactive)
REMARK    1  A    between atoms: C_8  and  C_9 
REMARK    2  A    between atoms: N_10  and  N_11 
REMARK       I    between atoms: N_11  and  C_12 
REMARK    3  A    between atoms: C_12  and  C_13 
REMARK    4  A    between atoms: C_16  and  N_17 
REMARK    5  A    between atoms: N_17  and  C_18 
REMARK    6  A    between atoms: C_18  and  C_19 
ROOT
HETATM    1  C   UNL     1     -44.165  58.485 -51.191  1.00  0.00     0.033 A 
HETATM    2  C   UNL     1     -42.871  59.008 -51.271  1.00  0.00     0.019 A 
HETATM    3  C   UNL     1     -41.872  58.317 -51.970  1.00  0.00     0.030 A 
HETATM    4  C   UNL     1     -42.127  57.079 -52.572  1.00  0.00     0.028 A 
HETATM    5  C   UNL     1     -43.430  56.569 -52.480  1.00  0.00     0.030 A 
HETATM    6  C   UNL     1     -44.435  57.250 -51.785  1.00  0.00     0.019 A 
ENDROOT
BRANCH   1   7
HETATM    7  C   UNL     1     -45.279  59.196 -50.501  1.00  0.00     0.271 C 
HETATM    8  N   UNL     1     -44.915  60.357 -49.831  1.00  0.00    -0.243 N 
HETATM    9  H   UNL     1     -43.938  60.620 -49.773  1.00  0.00     0.192 HD
HETATM   10  O   UNL     1     -46.413  58.736 -50.590  1.00  0.00    -0.266 OA
BRANCH   8  11
HETATM   11  N   UNL     1     -45.727  61.175 -49.089  1.00  0.00    -0.183 NA
HETATM   12  C   UNL     1     -45.406  61.454 -47.866  1.00  0.00     0.152 C 
BRANCH  12  13
HETATM   13  C   UNL     1     -46.266  62.339 -47.100  1.00  0.00     0.011 A 
HETATM   14  C   UNL     1     -45.960  62.981 -45.857  1.00  0.00     0.004 A 
HETATM   15  C   UNL     1     -44.833  62.997 -45.008  1.00  0.00     0.014 A 
HETATM   16  C   UNL     1     -47.082  63.721 -45.480  1.00  0.00     0.043 A 
HETATM   17  C   UNL     1     -44.869  63.743 -43.824  1.00  0.00     0.001 A 
HETATM   18  C   UNL     1     -46.006  64.469 -43.478  1.00  0.00     0.002 A 
HETATM   19  C   UNL     1     -47.135  64.474 -44.301  1.00  0.00     0.030 A 
HETATM   20  N   UNL     1     -48.031  63.545 -46.460  1.00  0.00    -0.364 N 
HETATM   21  H   UNL     1     -48.949  63.968 -46.453  1.00  0.00     0.165 HD
HETATM   22  C   UNL     1     -47.554  62.713 -47.435  1.00  0.00     0.102 A 
ENDBRANCH  12  13
ENDBRANCH   8  11
ENDBRANCH   1   7
BRANCH   4  23
HETATM   23  N   UNL     1     -41.209  56.403 -53.374  1.00  0.00    -0.386 N 
HETATM   24  H   UNL     1     -40.577  57.030 -53.865  1.00  0.00     0.160 HD
BRANCH  23  25
HETATM   25  C   UNL     1     -41.616  55.269 -54.191  1.00  0.00     0.158 C 
BRANCH  25  26
HETATM   26  C   UNL     1     -41.008  54.003 -53.628  1.00  0.00    -0.038 A 
HETATM   27  C   UNL     1     -40.833  52.870 -54.440  1.00  0.00     0.048 A 
HETATM   28  C   UNL     1     -40.294  51.738 -53.865  1.00  0.00     0.105 A 
HETATM   29  C   UNL     1     -39.930  51.697 -52.539  1.00  0.00     0.105 A 
HETATM   30  O   UNL     1     -40.065  50.558 -54.501  1.00  0.00    -0.323 OA
HETATM   31  O   UNL     1     -39.425  50.488 -52.176  1.00  0.00    -0.323 OA
HETATM   32  C   UNL     1     -40.081  52.786 -51.711  1.00  0.00     0.040 A 
HETATM   33  C   UNL     1     -39.520  49.768 -53.423  1.00  0.00     0.352 A 
HETATM   34  C   UNL     1     -40.627  53.949 -52.265  1.00  0.00     0.012 A 
ENDBRANCH  25  26
ENDBRANCH  23  25
ENDBRANCH   4  23
TORSDOF 6
ENDMDL
MODEL 2
REMARK VINA RESULT:      -8.7      6.563      9.261
REMARK  6 active torsions:
REMARK  status: ('A' for Active; 'I' for Inactive)
REMARK    1  A    between atoms: C_8  and  C_9 
REMARK    2  A    between atoms: N_10  and  N_11 
REMARK       I    between atoms: N_11  and  C_12 
REMARK    3  A    between atoms: C_12  and  C_13 
REMARK    4  A    between atoms: C_16  and  N_17 
REMARK    5  A    between atoms: N_17  and  C_18 
REMARK    6  A    between atoms: C_18  and  C_19 
ROOT
HETATM    1  C   UNL     1     -42.311  56.527 -53.184  1.00  0.00     0.033 A 
HETATM    2  C   UNL     1     -41.469  56.889 -52.130  1.00  0.00     0.019 A 
HETATM    3  C   UNL     1     -41.302  56.032 -51.033  1.00  0.00     0.030 A 
HETATM    4  C   UNL     1     -41.993  54.817 -50.945  1.00  0.00     0.028 A 
HETATM    5  C   UNL     1     -42.835  54.471 -52.012  1.00  0.00     0.030 A 
HETATM    6  C   UNL     1     -43.008  55.319 -53.111  1.00  0.00     0.019 A 
ENDROOT
BRANCH   1   7
HETATM    7  C   UNL     1     -42.492  57.375 -54.397  1.00  0.00     0.271 C 
HETATM    8  N   UNL     1     -43.521  56.984 -55.243  1.00  0.00    -0.243 N 
HETATM    9  H   UNL     1     -44.032  56.130 -55.053  1.00  0.00     0.192 HD
HETATM   10  O   UNL     1     -41.760  58.348 -54.548  1.00  0.00    -0.266 OA
BRANCH   8  11
HETATM   11  N   UNL     1     -43.878  57.559 -56.436  1.00  0.00    -0.183 NA
HETATM   12  C   UNL     1     -43.428  57.063 -57.544  1.00  0.00     0.152 C 
BRANCH  12  13
HETATM   13  C   UNL     1     -43.831  57.671 -58.799  1.00  0.00     0.011 A 
HETATM   14  C   UNL     1     -43.242  58.810 -59.438  1.00  0.00     0.004 A 
HETATM   15  C   UNL     1     -42.167  59.669 -59.123  1.00  0.00     0.014 A 
HETATM   16  C   UNL     1     -43.958  59.049 -60.611  1.00  0.00     0.043 A 
HETATM   17  C   UNL     1     -41.853  60.727 -59.984  1.00  0.00     0.001 A 
HETATM   18  C   UNL     1     -42.590  60.939 -61.146  1.00  0.00     0.002 A 
HETATM   19  C   UNL     1     -43.658  60.102 -61.484  1.00  0.00     0.030 A 
HETATM   20  N   UNL     1     -44.940  58.088 -60.691  1.00  0.00    -0.364 N 
HETATM   21  H   UNL     1     -45.611  58.015 -61.443  1.00  0.00     0.165 HD
HETATM   22  C   UNL     1     -44.875  57.258 -59.606  1.00  0.00     0.102 A 
ENDBRANCH  12  13
ENDBRANCH   8  11
ENDBRANCH   1   7
BRANCH   4  23
HETATM   23  N   UNL     1     -41.782  53.876 -49.939  1.00  0.00    -0.386 N 
HETATM   24  H   UNL     1     -42.305  54.081 -49.091  1.00  0.00     0.160 HD
BRANCH  23  25
HETATM   25  C   UNL     1     -40.450  53.358 -49.662  1.00  0.00     0.158 C 
BRANCH  25  26
HETATM   26  C   UNL     1     -40.174  52.178 -50.567  1.00  0.00    -0.038 A 
HETATM   27  C   UNL     1     -39.937  52.367 -51.939  1.00  0.00     0.048 A 
HETATM   28  C   UNL     1     -39.714  51.251 -52.718  1.00  0.00     0.105 A 
HETATM   29  C   UNL     1     -39.717  49.981 -52.190  1.00  0.00     0.105 A 
HETATM   30  O   UNL     1     -39.477  51.254 -54.057  1.00  0.00    -0.323 OA
HETATM   31  O   UNL     1     -39.481  49.028 -53.129  1.00  0.00    -0.323 OA
HETATM   32  C   UNL     1     -39.941  49.753 -50.851  1.00  0.00     0.040 A 
HETATM   33  C   UNL     1     -39.337  49.841 -54.312  1.00  0.00     0.352 A 
HETATM   34  C   UNL     1     -40.173  50.866 -50.035  1.00  0.00     0.012 A 
ENDBRANCH  25  26
ENDBRANCH  23  25
ENDBRANCH   4  23
TORSDOF 6
ENDMDL
MODEL 3
REMARK VINA RESULT:      -8.6      6.899     10.673
REMARK  6 active torsions:
REMARK  status: ('A' for Active; 'I' for Inactive)
REMARK    1  A    between atoms: C_8  and  C_9 
REMARK    2  A    between atoms: N_10  and  N_11 
REMARK       I    between atoms: N_11  and  C_12 
REMARK    3  A    between atoms: C_12  and  C_13 
REMARK    4  A    between atoms: C_16  and  N_17 
REMARK    5  A    between atoms: N_17  and  C_18 
REMARK    6  A    between atoms: C_18  and  C_19 
ROOT
HETATM    1  C   UNL     1     -43.796  57.956 -54.601  1.00  0.00     0.033 A 
HETATM    2  C   UNL     1     -45.068  57.888 -55.176  1.00  0.00     0.019 A 
HETATM    3  C   UNL     1     -45.442  58.801 -56.172  1.00  0.00     0.030 A 
HETATM    4  C   UNL     1     -44.576  59.818 -56.592  1.00  0.00     0.028 A 
HETATM    5  C   UNL     1     -43.305  59.871 -56.003  1.00  0.00     0.030 A 
HETATM    6  C   UNL     1     -42.920  58.966 -55.009  1.00  0.00     0.019 A 
ENDROOT
BRANCH   1   7
HETATM    7  C   UNL     1     -43.325  56.986 -53.572  1.00  0.00     0.271 C 
HETATM    8  N   UNL     1     -42.805  55.799 -54.071  1.00  0.00    -0.243 N 
HETATM    9  H   UNL     1     -42.839  55.615 -55.067  1.00  0.00     0.192 HD
HETATM   10  O   UNL     1     -43.402  57.302 -52.388  1.00  0.00    -0.266 OA
BRANCH   8  11
HETATM   11  N   UNL     1     -42.341  54.728 -53.351  1.00  0.00    -0.183 NA
HETATM   12  C   UNL     1     -41.065  54.535 -53.245  1.00  0.00     0.152 C 
BRANCH  12  13
HETATM   13  C   UNL     1     -40.589  53.408 -52.463  1.00  0.00     0.011 A 
HETATM   14  C   UNL     1     -40.254  52.101 -52.943  1.00  0.00     0.004 A 
HETATM   15  C   UNL     1     -40.256  51.488 -54.214  1.00  0.00     0.014 A 
HETATM   16  C   UNL     1     -39.860  51.339 -51.842  1.00  0.00     0.043 A 
HETATM   17  C   UNL     1     -39.870  50.148 -54.337  1.00  0.00     0.001 A 
HETATM   18  C   UNL     1     -39.484  49.416 -53.217  1.00  0.00     0.002 A 
HETATM   19  C   UNL     1     -39.469  49.998 -51.946  1.00  0.00     0.030 A 
HETATM   20  N   UNL     1     -39.942  52.152 -50.736  1.00  0.00    -0.364 N 
HETATM   21  H   UNL     1     -39.712  51.865 -49.794  1.00  0.00     0.165 HD
HETATM   22  C   UNL     1     -40.383  53.396 -51.096  1.00  0.00     0.102 A 
ENDBRANCH  12  13
ENDBRANCH   8  11
ENDBRANCH   1   7
BRANCH   4  23
HETATM   23  N   UNL     1     -44.848  60.679 -57.653  1.00  0.00    -0.386 N 
HETATM   24  H   UNL     1     -45.843  60.758 -57.852  1.00  0.00     0.160 HD
BRANCH  23  25
HETATM   25  C   UNL     1     -44.037  60.663 -58.862  1.00  0.00     0.158 C 
BRANCH  25  26
HETATM   26  C   UNL     1     -43.930  59.243 -59.372  1.00  0.00    -0.038 A 
HETATM   27  C   UNL     1     -45.075  58.540 -59.782  1.00  0.00     0.048 A 
HETATM   28  C   UNL     1     -44.918  57.241 -60.216  1.00  0.00     0.105 A 
HETATM   29  C   UNL     1     -43.686  56.630 -60.257  1.00  0.00     0.105 A 
HETATM   30  O   UNL     1     -45.916  56.420 -60.639  1.00  0.00    -0.323 OA
HETATM   31  O   UNL     1     -43.755  55.351 -60.712  1.00  0.00    -0.323 OA
HETATM   32  C   UNL     1     -42.539  57.285 -59.869  1.00  0.00     0.040 A 
HETATM   33  C   UNL     1     -45.173  55.222 -60.946  1.00  0.00     0.352 A 
HETATM   34  C   UNL     1     -42.666  58.604 -59.421  1.00  0.00     0.012 A 
ENDBRANCH  25  26
ENDBRANCH  23  25
ENDBRANCH   4  23
TORSDOF 6
ENDMDL
MODEL 4
REMARK VINA RESULT:      -8.5      7.250     10.849
REMARK  6 active torsions:
REMARK  status: ('A' for Active; 'I' for Inactive)
REMARK    1  A    between atoms: C_8  and  C_9 
REMARK    2  A    between atoms: N_10  and  N_11 
REMARK       I    between atoms: N_11  and  C_12 
REMARK    3  A    between atoms: C_12  and  C_13 
REMARK    4  A    between atoms: C_16  and  N_17 
REMARK    5  A    between atoms: N_17  and  C_18 
REMARK    6  A    between atoms: C_18  and  C_19 
ROOT
HETATM    1  C   UNL     1     -43.360  58.150 -55.574  1.00  0.00     0.033 A 
HETATM    2  C   UNL     1     -44.586  58.783 -55.788  1.00  0.00     0.019 A 
HETATM    3  C   UNL     1     -44.717  59.745 -56.800  1.00  0.00     0.030 A 
HETATM    4  C   UNL     1     -43.626  60.123 -57.593  1.00  0.00     0.028 A 
HETATM    5  C   UNL     1     -42.403  59.478 -57.362  1.00  0.00     0.030 A 
HETATM    6  C   UNL     1     -42.261  58.516 -56.356  1.00  0.00     0.019 A 
ENDROOT
BRANCH   1   7
HETATM    7  C   UNL     1     -43.171  57.088 -54.545  1.00  0.00     0.271 C 
HETATM    8  N   UNL     1     -41.850  56.779 -54.249  1.00  0.00    -0.243 N 
HETATM    9  H   UNL     1     -41.102  57.212 -54.777  1.00  0.00     0.192 HD
HETATM   10  O   UNL     1     -44.166  56.590 -54.026  1.00  0.00    -0.266 OA
BRANCH   8  11
HETATM   11  N   UNL     1     -41.397  55.822 -53.377  1.00  0.00    -0.183 NA
HETATM   12  C   UNL     1     -41.054  54.658 -53.828  1.00  0.00     0.152 C 
BRANCH  12  13
HETATM   13  C   UNL     1     -40.558  53.663 -52.894  1.00  0.00     0.011 A 
HETATM   14  C   UNL     1     -40.279  52.285 -53.164  1.00  0.00     0.004 A 
HETATM   15  C   UNL     1     -40.368  51.469 -54.313  1.00  0.00     0.014 A 
HETATM   16  C   UNL     1     -39.838  51.705 -51.974  1.00  0.00     0.043 A 
HETATM   17  C   UNL     1     -40.019  50.116 -54.229  1.00  0.00     0.001 A 
HETATM   18  C   UNL     1     -39.584  49.570 -53.025  1.00  0.00     0.002 A 
HETATM   19  C   UNL     1     -39.483  50.354 -51.872  1.00  0.00     0.030 A 
HETATM   20  N   UNL     1     -39.839  52.693 -51.017  1.00  0.00    -0.364 N 
HETATM   21  H   UNL     1     -39.561  52.560 -50.055  1.00  0.00     0.165 HD
HETATM   22  C   UNL     1     -40.273  53.872 -51.557  1.00  0.00     0.102 A 
ENDBRANCH  12  13
ENDBRANCH   8  11
ENDBRANCH   1   7
BRANCH   4  23
HETATM   23  N   UNL     1     -43.722  60.986 -58.683  1.00  0.00    -0.386 N 
HETATM   24  H   UNL     1     -44.474  61.664 -58.585  1.00  0.00     0.160 HD
BRANCH  23  25
HETATM   25  C   UNL     1     -43.591  60.492 -60.046  1.00  0.00     0.158 C 
BRANCH  25  26
HETATM   26  C   UNL     1     -44.319  59.172 -60.171  1.00  0.00    -0.038 A 
HETATM   27  C   UNL     1     -43.604  57.970 -60.315  1.00  0.00     0.048 A 
HETATM   28  C   UNL     1     -44.323  56.801 -60.447  1.00  0.00     0.105 A 
HETATM   29  C   UNL     1     -45.699  56.786 -60.440  1.00  0.00     0.105 A 
HETATM   30  O   UNL     1     -43.793  55.558 -60.602  1.00  0.00    -0.323 OA
HETATM   31  O   UNL     1     -46.205  55.533 -60.588  1.00  0.00    -0.323 OA
HETATM   32  C   UNL     1     -46.435  57.940 -60.298  1.00  0.00     0.040 A 
HETATM   33  C   UNL     1     -44.992  54.760 -60.697  1.00  0.00     0.352 A 
HETATM   34  C   UNL     1     -45.735  59.143 -60.164  1.00  0.00     0.012 A 
ENDBRANCH  25  26
ENDBRANCH  23  25
ENDBRANCH   4  23
TORSDOF 6
ENDMDL
MODEL 5
REMARK VINA RESULT:      -8.4      6.578      9.082
REMARK  6 active torsions:
REMARK  status: ('A' for Active; 'I' for Inactive)
REMARK    1  A    between atoms: C_8  and  C_9 
REMARK    2  A    between atoms: N_10  and  N_11 
REMARK       I    between atoms: N_11  and  C_12 
REMARK    3  A    between atoms: C_12  and  C_13 
REMARK    4  A    between atoms: C_16  and  N_17 
REMARK    5  A    between atoms: N_17  and  C_18 
REMARK    6  A    between atoms: C_18  and  C_19 
ROOT
HETATM    1  C   UNL     1     -42.849  56.653 -53.794  1.00  0.00     0.033 A 
HETATM    2  C   UNL     1     -41.981  57.129 -52.807  1.00  0.00     0.019 A 
HETATM    3  C   UNL     1     -41.663  56.329 -51.701  1.00  0.00     0.030 A 
HETATM    4  C   UNL     1     -42.226  55.058 -51.533  1.00  0.00     0.028 A 
HETATM    5  C   UNL     1     -43.095  54.597 -52.532  1.00  0.00     0.030 A 
HETATM    6  C   UNL     1     -43.420  55.387 -53.641  1.00  0.00     0.019 A 
ENDROOT
BRANCH   1   7
HETATM    7  C   UNL     1     -43.189  57.438 -55.014  1.00  0.00     0.271 C 
HETATM    8  N   UNL     1     -44.375  57.076 -55.639  1.00  0.00    -0.243 N 
HETATM    9  H   UNL     1     -44.898  56.276 -55.302  1.00  0.00     0.192 HD
HETATM   10  O   UNL     1     -42.434  58.342 -55.360  1.00  0.00    -0.266 OA
BRANCH   8  11
HETATM   11  N   UNL     1     -44.901  57.604 -56.790  1.00  0.00    -0.183 NA
HETATM   12  C   UNL     1     -45.965  58.339 -56.728  1.00  0.00     0.152 C 
BRANCH  12  13
HETATM   13  C   UNL     1     -46.498  58.906 -57.954  1.00  0.00     0.011 A 
HETATM   14  C   UNL     1     -46.901  58.198 -59.131  1.00  0.00     0.004 A 
HETATM   15  C   UNL     1     -46.932  56.835 -59.500  1.00  0.00     0.014 A 
HETATM   16  C   UNL     1     -47.334  59.144 -60.062  1.00  0.00     0.043 A 
HETATM   17  C   UNL     1     -47.387  56.473 -60.773  1.00  0.00     0.001 A 
HETATM   18  C   UNL     1     -47.809  57.443 -61.677  1.00  0.00     0.002 A 
HETATM   19  C   UNL     1     -47.793  58.799 -61.339  1.00  0.00     0.030 A 
HETATM   20  N   UNL     1     -47.209  60.380 -59.471  1.00  0.00    -0.364 N 
HETATM   21  H   UNL     1     -47.453  61.255 -59.914  1.00  0.00     0.165 HD
HETATM   22  C   UNL     1     -46.704  60.250 -58.207  1.00  0.00     0.102 A 
ENDBRANCH  12  13
ENDBRANCH   8  11
ENDBRANCH   1   7
BRANCH   4  23
HETATM   23  N   UNL     1     -41.861  54.176 -50.518  1.00  0.00    -0.386 N 
HETATM   24  H   UNL     1     -42.345  54.360 -49.643  1.00  0.00     0.160 HD
BRANCH  23  25
HETATM   25  C   UNL     1     -40.470  53.795 -50.317  1.00  0.00     0.158 C 
BRANCH  25  26
HETATM   26  C   UNL     1     -40.187  52.517 -51.075  1.00  0.00    -0.038 A 
HETATM   27  C   UNL     1     -40.071  52.525 -52.476  1.00  0.00     0.048 A 
HETATM   28  C   UNL     1     -39.835  51.325 -53.113  1.00  0.00     0.105 A 
HETATM   29  C   UNL     1     -39.712  50.143 -52.420  1.00  0.00     0.105 A 
HETATM   30  O   UNL     1     -39.704  51.154 -54.456  1.00  0.00    -0.323 OA
HETATM   31  O   UNL     1     -39.486  49.082 -53.239  1.00  0.00    -0.323 OA
HETATM   32  C   UNL     1     -39.815  50.093 -51.048  1.00  0.00     0.040 A 
HETATM   33  C   UNL     1     -39.490  49.728 -54.529  1.00  0.00     0.352 A 
HETATM   34  C   UNL     1     -40.056  51.294 -50.373  1.00  0.00     0.012 A 
ENDBRANCH  25  26
ENDBRANCH  23  25
ENDBRANCH   4  23
TORSDOF 6
ENDMDL
MODEL 6
REMARK VINA RESULT:      -8.3      1.701      2.501
REMARK  6 active torsions:
REMARK  status: ('A' for Active; 'I' for Inactive)
REMARK    1  A    between atoms: C_8  and  C_9 
REMARK    2  A    between atoms: N_10  and  N_11 
REMARK       I    between atoms: N_11  and  C_12 
REMARK    3  A    between atoms: C_12  and  C_13 
REMARK    4  A    between atoms: C_16  and  N_17 
REMARK    5  A    between atoms: N_17  and  C_18 
REMARK    6  A    between atoms: C_18  and  C_19 
ROOT
HETATM    1  C   UNL     1     -43.317  57.774 -53.505  1.00  0.00     0.033 A 
HETATM    2  C   UNL     1     -43.619  56.831 -54.490  1.00  0.00     0.019 A 
HETATM    3  C   UNL     1     -42.618  55.987 -54.992  1.00  0.00     0.030 A 
HETATM    4  C   UNL     1     -41.292  56.087 -54.553  1.00  0.00     0.028 A 
HETATM    5  C   UNL     1     -41.007  57.040 -53.564  1.00  0.00     0.030 A 
HETATM    6  C   UNL     1     -41.998  57.886 -53.056  1.00  0.00     0.019 A 
ENDROOT
BRANCH   1   7
HETATM    7  C   UNL     1     -44.347  58.666 -52.900  1.00  0.00     0.271 C 
HETATM    8  N   UNL     1     -44.166  58.949 -51.553  1.00  0.00    -0.243 N 
HETATM    9  H   UNL     1     -43.420  58.496 -51.039  1.00  0.00     0.192 HD
HETATM   10  O   UNL     1     -45.244  59.097 -53.618  1.00  0.00    -0.266 OA
BRANCH   8  11
HETATM   11  N   UNL     1     -44.980  59.705 -50.748  1.00  0.00    -0.183 NA
HETATM   12  C   UNL     1     -44.796  60.985 -50.676  1.00  0.00     0.152 C 
BRANCH  12  13
HETATM   13  C   UNL     1     -45.678  61.773 -49.834  1.00  0.00     0.011 A 
HETATM   14  C   UNL     1     -45.644  61.881 -48.407  1.00  0.00     0.004 A 
HETATM   15  C   UNL     1     -44.829  61.327 -47.396  1.00  0.00     0.014 A 
HETATM   16  C   UNL     1     -46.683  62.732 -48.026  1.00  0.00     0.043 A 
HETATM   17  C   UNL     1     -45.082  61.639 -46.055  1.00  0.00     0.001 A 
HETATM   18  C   UNL     1     -46.129  62.490 -45.710  1.00  0.00     0.002 A 
HETATM   19  C   UNL     1     -46.950  63.056 -46.690  1.00  0.00     0.030 A 
HETATM   20  N   UNL     1     -47.319  63.135 -49.177  1.00  0.00    -0.364 N 
HETATM   21  H   UNL     1     -48.112  63.761 -49.205  1.00  0.00     0.165 HD
HETATM   22  C   UNL     1     -46.727  62.562 -50.268  1.00  0.00     0.102 A 
ENDBRANCH  12  13
ENDBRANCH   8  11
ENDBRANCH   1   7
BRANCH   4  23
HETATM   23  N   UNL     1     -40.282  55.204 -54.930  1.00  0.00    -0.386 N 
HETATM   24  H   UNL     1     -39.594  55.631 -55.545  1.00  0.00     0.160 HD
BRANCH  23  25
HETATM   25  C   UNL     1     -40.585  53.829 -55.300  1.00  0.00     0.158 C 
BRANCH  25  26
HETATM   26  C   UNL     1     -40.291  52.920 -54.127  1.00  0.00    -0.038 A 
HETATM   27  C   UNL     1     -40.067  51.547 -54.323  1.00  0.00     0.048 A 
HETATM   28  C   UNL     1     -39.827  50.764 -53.213  1.00  0.00     0.105 A 
HETATM   29  C   UNL     1     -39.800  51.290 -51.943  1.00  0.00     0.105 A 
HETATM   30  O   UNL     1     -39.599  49.424 -53.224  1.00  0.00    -0.323 OA
HETATM   31  O   UNL     1     -39.551  50.348 -50.996  1.00  0.00    -0.323 OA
HETATM   32  C   UNL     1     -40.010  52.630 -51.708  1.00  0.00     0.040 A 
HETATM   33  C   UNL     1     -39.431  49.165 -51.813  1.00  0.00     0.352 A 
HETATM   34  C   UNL     1     -40.259  53.450 -52.814  1.00  0.00     0.012 A 
ENDBRANCH  25  26
ENDBRANCH  23  25
ENDBRANCH   4  23
TORSDOF 6
ENDMDL
MODEL 7
REMARK VINA RESULT:      -8.2      4.635     11.903
REMARK  6 active torsions:
REMARK  status: ('A' for Active; 'I' for Inactive)
REMARK    1  A    between atoms: C_8  and  C_9 
REMARK    2  A    between atoms: N_10  and  N_11 
REMARK       I    between atoms: N_11  and  C_12 
REMARK    3  A    between atoms: C_12  and  C_13 
REMARK    4  A    between atoms: C_16  and  N_17 
REMARK    5  A    between atoms: N_17  and  C_18 
REMARK    6  A    between atoms: C_18  and  C_19 
ROOT
HETATM    1  C   UNL     1     -45.087  58.946 -51.697  1.00  0.00     0.033 A 
HETATM    2  C   UNL     1     -45.864  59.769 -50.877  1.00  0.00     0.019 A 
HETATM    3  C   UNL     1     -46.495  60.902 -51.409  1.00  0.00     0.030 A 
HETATM    4  C   UNL     1     -46.338  61.261 -52.753  1.00  0.00     0.028 A 
HETATM    5  C   UNL     1     -45.553  60.425 -53.560  1.00  0.00     0.030 A 
HETATM    6  C   UNL     1     -44.920  59.291 -53.040  1.00  0.00     0.019 A 
ENDROOT
BRANCH   1   7
HETATM    7  C   UNL     1     -44.430  57.704 -51.199  1.00  0.00     0.271 C 
HETATM    8  N   UNL     1     -43.070  57.610 -51.461  1.00  0.00    -0.243 N 
HETATM    9  H   UNL     1     -42.614  58.319 -52.023  1.00  0.00     0.192 HD
HETATM   10  O   UNL     1     -45.109  56.885 -50.588  1.00  0.00    -0.266 OA
BRANCH   8  11
HETATM   11  N   UNL     1     -42.236  56.566 -51.151  1.00  0.00    -0.183 NA
HETATM   12  C   UNL     1     -42.256  55.495 -51.879  1.00  0.00     0.152 C 
BRANCH  12  13
HETATM   13  C   UNL     1     -41.353  54.407 -51.549  1.00  0.00     0.011 A 
HETATM   14  C   UNL     1     -40.891  53.371 -52.423  1.00  0.00     0.004 A 
HETATM   15  C   UNL     1     -41.112  53.056 -53.781  1.00  0.00     0.014 A 
HETATM   16  C   UNL     1     -40.055  52.537 -51.679  1.00  0.00     0.043 A 
HETATM   17  C   UNL     1     -40.497  51.929 -54.339  1.00  0.00     0.001 A 
HETATM   18  C   UNL     1     -39.670  51.118 -53.567  1.00  0.00     0.002 A 
HETATM   19  C   UNL     1     -39.431  51.406 -52.221  1.00  0.00     0.030 A 
HETATM   20  N   UNL     1     -40.001  53.050 -50.404  1.00  0.00    -0.364 N 
HETATM   21  H   UNL     1     -39.464  52.650 -49.647  1.00  0.00     0.165 HD
HETATM   22  C   UNL     1     -40.779  54.170 -50.313  1.00  0.00     0.102 A 
ENDBRANCH  12  13
ENDBRANCH   8  11
ENDBRANCH   1   7
BRANCH   4  23
HETATM   23  N   UNL     1     -47.029  62.307 -53.362  1.00  0.00    -0.386 N 
HETATM   24  H   UNL     1     -46.470  62.799 -54.055  1.00  0.00     0.160 HD
BRANCH  23  25
HETATM   25  C   UNL     1     -47.870  63.206 -52.585  1.00  0.00     0.158 C 
BRANCH  25  26
HETATM   26  C   UNL     1     -49.324  62.913 -52.884  1.00  0.00    -0.038 A 
HETATM   27  C   UNL     1     -49.695  62.274 -54.079  1.00  0.00     0.048 A 
HETATM   28  C   UNL     1     -51.038  62.055 -54.307  1.00  0.00     0.105 A 
HETATM   29  C   UNL     1     -52.002  62.438 -53.404  1.00  0.00     0.105 A 
HETATM   30  O   UNL     1     -51.567  61.459 -55.409  1.00  0.00    -0.323 OA
HETATM   31  O   UNL     1     -53.258  62.131 -53.825  1.00  0.00    -0.323 OA
HETATM   32  C   UNL     1     -51.680  63.062 -52.220  1.00  0.00     0.040 A 
HETATM   33  C   UNL     1     -52.976  61.518 -55.099  1.00  0.00     0.352 A 
HETATM   34  C   UNL     1     -50.326  63.301 -51.962  1.00  0.00     0.012 A 
ENDBRANCH  25  26
ENDBRANCH  23  25
ENDBRANCH   4  23
TORSDOF 6
ENDMDL
MODEL 8
REMARK VINA RESULT:      -8.1      7.682     11.904
REMARK  6 active torsions:
REMARK  status: ('A' for Active; 'I' for Inactive)
REMARK    1  A    between atoms: C_8  and  C_9 
REMARK    2  A    between atoms: N_10  and  N_11 
REMARK       I    between atoms: N_11  and  C_12 
REMARK    3  A    between atoms: C_12  and  C_13 
REMARK    4  A    between atoms: C_16  and  N_17 
REMARK    5  A    between atoms: N_17  and  C_18 
REMARK    6  A    between atoms: C_18  and  C_19 
ROOT
HETATM    1  C   UNL     1     -43.202  57.145 -56.599  1.00  0.00     0.033 A 
HETATM    2  C   UNL     1     -43.766  58.247 -55.951  1.00  0.00     0.019 A 
HETATM    3  C   UNL     1     -44.074  59.409 -56.673  1.00  0.00     0.030 A 
HETATM    4  C   UNL     1     -43.796  59.514 -58.041  1.00  0.00     0.028 A 
HETATM    5  C   UNL     1     -43.228  58.399 -58.674  1.00  0.00     0.030 A 
HETATM    6  C   UNL     1     -42.917  57.234 -57.965  1.00  0.00     0.019 A 
ENDROOT
BRANCH   1   7
HETATM    7  C   UNL     1     -42.895  55.868 -55.896  1.00  0.00     0.271 C 
HETATM    8  N   UNL     1     -42.478  56.004 -54.578  1.00  0.00    -0.243 N 
HETATM    9  H   UNL     1     -42.329  56.928 -54.190  1.00  0.00     0.192 HD
HETATM   10  O   UNL     1     -43.051  54.812 -56.501  1.00  0.00    -0.266 OA
BRANCH   8  11
HETATM   11  N   UNL     1     -42.099  55.003 -53.720  1.00  0.00    -0.183 NA
HETATM   12  C   UNL     1     -40.854  54.651 -53.660  1.00  0.00     0.152 C 
BRANCH  12  13
HETATM   13  C   UNL     1     -40.466  53.603 -52.733  1.00  0.00     0.011 A 
HETATM   14  C   UNL     1     -40.187  52.234 -53.042  1.00  0.00     0.004 A 
HETATM   15  C   UNL     1     -40.181  51.474 -54.232  1.00  0.00     0.014 A 
HETATM   16  C   UNL     1     -39.870  51.589 -51.845  1.00  0.00     0.043 A 
HETATM   17  C   UNL     1     -39.865  50.111 -54.181  1.00  0.00     0.001 A 
HETATM   18  C   UNL     1     -39.556  49.500 -52.969  1.00  0.00     0.002 A 
HETATM   19  C   UNL     1     -39.550  50.228 -51.775  1.00  0.00     0.030 A 
HETATM   20  N   UNL     1     -39.944  52.532 -50.846  1.00  0.00    -0.364 N 
HETATM   21  H   UNL     1     -39.761  52.348 -49.869  1.00  0.00     0.165 HD
HETATM   22  C   UNL     1     -40.305  53.744 -51.366  1.00  0.00     0.102 A 
ENDBRANCH  12  13
ENDBRANCH   8  11
ENDBRANCH   1   7
BRANCH   4  23
HETATM   23  N   UNL     1     -44.182  60.595 -58.831  1.00  0.00    -0.386 N 
HETATM   24  H   UNL     1     -44.100  60.406 -59.826  1.00  0.00     0.160 HD
BRANCH  23  25
HETATM   25  C   UNL     1     -43.790  61.955 -58.487  1.00  0.00     0.158 C 
BRANCH  25  26
HETATM   26  C   UNL     1     -42.490  62.291 -59.184  1.00  0.00    -0.038 A 
HETATM   27  C   UNL     1     -42.423  62.346 -60.587  1.00  0.00     0.048 A 
HETATM   28  C   UNL     1     -41.205  62.635 -61.166  1.00  0.00     0.105 A 
HETATM   29  C   UNL     1     -40.077  62.868 -60.414  1.00  0.00     0.105 A 
HETATM   30  O   UNL     1     -40.963  62.719 -62.502  1.00  0.00    -0.323 OA
HETATM   31  O   UNL     1     -38.986  63.130 -61.182  1.00  0.00    -0.323 OA
HETATM   32  C   UNL     1     -40.102  62.829 -59.039  1.00  0.00     0.040 A 
HETATM   33  C   UNL     1     -39.553  63.027 -62.505  1.00  0.00     0.352 A 
HETATM   34  C   UNL     1     -41.322  62.535 -58.421  1.00  0.00     0.012 A 
ENDBRANCH  25  26
ENDBRANCH  23  25
ENDBRANCH   4  23
TORSDOF 6
ENDMDL
MODEL 9
REMARK VINA RESULT:      -8.1      3.068     11.513
REMARK  6 active torsions:
REMARK  status: ('A' for Active; 'I' for Inactive)
REMARK    1  A    between atoms: C_8  and  C_9 
REMARK    2  A    between atoms: N_10  and  N_11 
REMARK       I    between atoms: N_11  and  C_12 
REMARK    3  A    between atoms: C_12  and  C_13 
REMARK    4  A    between atoms: C_16  and  N_17 
REMARK    5  A    between atoms: N_17  and  C_18 
REMARK    6  A    between atoms: C_18  and  C_19 
ROOT
HETATM    1  C   UNL     1     -42.582  58.128 -52.795  1.00  0.00     0.033 A 
HETATM    2  C   UNL     1     -43.934  58.317 -52.494  1.00  0.00     0.019 A 
HETATM    3  C   UNL     1     -44.456  59.612 -52.372  1.00  0.00     0.030 A 
HETATM    4  C   UNL     1     -43.641  60.743 -52.510  1.00  0.00     0.028 A 
HETATM    5  C   UNL     1     -42.287  60.534 -52.810  1.00  0.00     0.030 A 
HETATM    6  C   UNL     1     -41.756  59.246 -52.935  1.00  0.00     0.019 A 
ENDROOT
BRANCH   1   7
HETATM    7  C   UNL     1     -41.980  56.777 -52.983  1.00  0.00     0.271 C 
HETATM    8  N   UNL     1     -42.427  55.803 -52.100  1.00  0.00    -0.243 N 
HETATM    9  H   UNL     1     -43.056  56.057 -51.347  1.00  0.00     0.192 HD
HETATM   10  O   UNL     1     -41.174  56.615 -53.894  1.00  0.00    -0.266 OA
BRANCH   8  11
HETATM   11  N   UNL     1     -42.014  54.498 -52.026  1.00  0.00    -0.183 NA
HETATM   12  C   UNL     1     -40.912  54.210 -51.411  1.00  0.00     0.152 C 
BRANCH  12  13
HETATM   13  C   UNL     1     -40.498  52.821 -51.325  1.00  0.00     0.011 A 
HETATM   14  C   UNL     1     -40.193  51.940 -52.412  1.00  0.00     0.004 A 
HETATM   15  C   UNL     1     -40.178  52.078 -53.817  1.00  0.00     0.014 A 
HETATM   16  C   UNL     1     -39.858  50.700 -51.866  1.00  0.00     0.043 A 
HETATM   17  C   UNL     1     -39.834  50.981 -54.616  1.00  0.00     0.001 A 
HETATM   18  C   UNL     1     -39.507  49.758 -54.038  1.00  0.00     0.002 A 
HETATM   19  C   UNL     1     -39.511  49.593 -52.649  1.00  0.00     0.030 A 
HETATM   20  N   UNL     1     -39.946  50.823 -50.498  1.00  0.00    -0.364 N 
HETATM   21  H   UNL     1     -39.754  50.079 -49.842  1.00  0.00     0.165 HD
HETATM   22  C   UNL     1     -40.333  52.091 -50.162  1.00  0.00     0.102 A 
ENDBRANCH  12  13
ENDBRANCH   8  11
ENDBRANCH   1   7
BRANCH   4  23
HETATM   23  N   UNL     1     -44.123  62.050 -52.512  1.00  0.00    -0.386 N 
HETATM   24  H   UNL     1     -44.048  62.497 -53.422  1.00  0.00     0.160 HD
BRANCH  23  25
HETATM   25  C   UNL     1     -43.827  62.962 -51.416  1.00  0.00     0.158 C 
BRANCH  25  26
HETATM   26  C   UNL     1     -44.717  62.633 -50.238  1.00  0.00    -0.038 A 
HETATM   27  C   UNL     1     -44.223  61.890 -49.152  1.00  0.00     0.048 A 
HETATM   28  C   UNL     1     -45.088  61.601 -48.117  1.00  0.00     0.105 A 
HETATM   29  C   UNL     1     -46.398  62.020 -48.125  1.00  0.00     0.105 A 
HETATM   30  O   UNL     1     -44.777  60.891 -47.000  1.00  0.00    -0.323 OA
HETATM   31  O   UNL     1     -47.075  61.625 -47.013  1.00  0.00    -0.323 OA
HETATM   32  C   UNL     1     -46.920  62.753 -49.166  1.00  0.00     0.040 A 
HETATM   33  C   UNL     1     -46.043  60.904 -46.308  1.00  0.00     0.352 A 
HETATM   34  C   UNL     1     -46.068  63.059 -50.232  1.00  0.00     0.012 A 
ENDBRANCH  25  26
ENDBRANCH  23  25
ENDBRANCH   4  23
TORSDOF 6
ENDMDL
MODEL 10
REMARK VINA RESULT:      -8.0      6.881     11.679
REMARK  6 active torsions:
REMARK  status: ('A' for Active; 'I' for Inactive)
REMARK    1  A    between atoms: C_8  and  C_9 
REMARK    2  A    between atoms: N_10  and  N_11 
REMARK       I    between atoms: N_11  and  C_12 
REMARK    3  A    between atoms: C_12  and  C_13 
REMARK    4  A    between atoms: C_16  and  N_17 
REMARK    5  A    between atoms: N_17  and  C_18 
REMARK    6  A    between atoms: C_18  and  C_19 
ROOT
HETATM    1  C   UNL     1     -43.947  58.024 -55.115  1.00  0.00     0.033 A 
HETATM    2  C   UNL     1     -44.935  59.005 -55.004  1.00  0.00     0.019 A 
HETATM    3  C   UNL     1     -45.410  59.662 -56.148  1.00  0.00     0.030 A 
HETATM    4  C   UNL     1     -44.890  59.383 -57.418  1.00  0.00     0.028 A 
HETATM    5  C   UNL     1     -43.898  58.396 -57.510  1.00  0.00     0.030 A 
HETATM    6  C   UNL     1     -43.417  57.734 -56.376  1.00  0.00     0.019 A 
ENDROOT
BRANCH   1   7
HETATM    7  C   UNL     1     -43.436  57.260 -53.942  1.00  0.00     0.271 C 
HETATM    8  N   UNL     1     -42.619  56.180 -54.250  1.00  0.00    -0.243 N 
HETATM    9  H   UNL     1     -42.474  55.918 -55.218  1.00  0.00     0.192 HD
HETATM   10  O   UNL     1     -43.741  57.640 -52.816  1.00  0.00    -0.266 OA
BRANCH   8  11
HETATM   11  N   UNL     1     -42.049  55.293 -53.372  1.00  0.00    -0.183 NA
HETATM   12  C   UNL     1     -41.233  54.391 -53.815  1.00  0.00     0.152 C 
BRANCH  12  13
HETATM   13  C   UNL     1     -40.624  53.473 -52.870  1.00  0.00     0.011 A 
HETATM   14  C   UNL     1     -40.276  52.102 -53.097  1.00  0.00     0.004 A 
HETATM   15  C   UNL     1     -40.380  51.229 -54.201  1.00  0.00     0.014 A 
HETATM   16  C   UNL     1     -39.732  51.606 -51.911  1.00  0.00     0.043 A 
HETATM   17  C   UNL     1     -39.943  49.905 -54.079  1.00  0.00     0.001 A 
HETATM   18  C   UNL     1     -39.407  49.442 -52.881  1.00  0.00     0.002 A 
HETATM   19  C   UNL     1     -39.289  50.285 -51.772  1.00  0.00     0.030 A 
HETATM   20  N   UNL     1     -39.739  52.637 -50.999  1.00  0.00    -0.364 N 
HETATM   21  H   UNL     1     -39.398  52.566 -50.050  1.00  0.00     0.165 HD
HETATM   22  C   UNL     1     -40.276  53.761 -51.563  1.00  0.00     0.102 A 
ENDBRANCH  12  13
ENDBRANCH   8  11
ENDBRANCH   1   7
BRANCH   4  23
HETATM   23  N   UNL     1     -45.400  59.919 -58.599  1.00  0.00    -0.386 N 
HETATM   24  H   UNL     1     -44.939  60.784 -58.872  1.00  0.00     0.160 HD
BRANCH  23  25
HETATM   25  C   UNL     1     -46.833  59.946 -58.856  1.00  0.00     0.158 C 
BRANCH  25  26
HETATM   26  C   UNL     1     -47.171  58.915 -59.910  1.00  0.00    -0.038 A 
HETATM   27  C   UNL     1     -47.760  59.300 -61.126  1.00  0.00     0.048 A 
HETATM   28  C   UNL     1     -48.067  58.313 -62.039  1.00  0.00     0.105 A 
HETATM   29  C   UNL     1     -47.810  56.985 -61.790  1.00  0.00     0.105 A 
HETATM   30  O   UNL     1     -48.644  58.510 -63.255  1.00  0.00    -0.323 OA
HETATM   31  O   UNL     1     -48.193  56.181 -62.817  1.00  0.00    -0.323 OA
HETATM   32  C   UNL     1     -47.230  56.566 -60.614  1.00  0.00     0.040 A 
HETATM   33  C   UNL     1     -48.727  57.153 -63.739  1.00  0.00     0.352 A 
HETATM   34  C   UNL     1     -46.910  57.544 -59.666  1.00  0.00     0.012 A 
ENDBRANCH  25  26
ENDBRANCH  23  25
ENDBRANCH   4  23
TORSDOF 6
ENDMDL
