MODEL 1
REMARK VINA RESULT:      -8.3      0.000      0.000
REMARK  3 active torsions:
REMARK  status: ('A' for Active; 'I' for Inactive)
REMARK    1  A    between atoms: O_2  and  C_3 
REMARK    2  A    between atoms: C_9  and  C_10 
REMARK       I    between atoms: C_10  and  N_11 
REMARK    3  A    between atoms: N_11  and  C_12 
ROOT
HETATM    1  C   UNL     1     -39.825  51.600 -51.585  1.00  0.00     0.068 A 
HETATM    2  C   UNL     1     -39.961  52.002 -52.915  1.00  0.00     0.044 A 
HETATM    3  C   UNL     1     -40.473  53.267 -53.232  1.00  0.00    -0.043 A 
HETATM    4  C   UNL     1     -40.891  54.126 -52.189  1.00  0.00    -0.001 A 
HETATM    5  C   UNL     1     -41.372  55.438 -52.588  1.00  0.00     0.069 A 
HETATM    6  C   UNL     1     -41.248  55.956 -53.859  1.00  0.00     0.007 A 
HETATM    7  C   UNL     1     -41.778  57.267 -53.794  1.00  0.00     0.153 A 
HETATM    8  N   UNL     1     -42.236  57.537 -52.548  1.00  0.00    -0.168 NA
HETATM    9  N   UNL     1     -41.986  56.405 -51.852  1.00  0.00    -0.276 N 
HETATM   10  H   UNL     1     -42.254  56.370 -50.875  1.00  0.00     0.189 HD
HETATM   11  C   UNL     1     -40.588  55.193 -54.952  1.00  0.00     0.048 C 
HETATM   12  C   UNL     1     -40.661  53.671 -54.689  1.00  0.00     0.044 C 
HETATM   13  C   UNL     1     -40.778  53.713 -50.861  1.00  0.00     0.017 A 
HETATM   14  C   UNL     1     -40.244  52.452 -50.561  1.00  0.00     0.037 A 
ENDROOT
BRANCH   7  15
HETATM   15  C   UNL     1     -41.813  58.279 -54.871  1.00  0.00     0.277 C 
HETATM   16  N   UNL     1     -42.512  57.823 -55.973  1.00  0.00    -0.319 N 
HETATM   17  H   UNL     1     -42.955  56.923 -55.808  1.00  0.00     0.169 HD
HETATM   18  O   UNL     1     -41.326  59.390 -54.716  1.00  0.00    -0.266 OA
BRANCH  16  19
HETATM   19  C   UNL     1     -42.806  58.510 -57.165  1.00  0.00     0.074 A 
HETATM   20  C   UNL     1     -43.767  59.521 -57.306  1.00  0.00     0.144 A 
HETATM   21  F   UNL     1     -44.433  60.014 -56.255  1.00  0.00    -0.204 F 
HETATM   22  C   UNL     1     -44.016  60.116 -58.542  1.00  0.00     0.068 A 
HETATM   23  C   UNL     1     -43.293  59.713 -59.657  1.00  0.00     0.037 A 
HETATM   24 CL   UNL     1     -43.603  60.434 -61.187  1.00  0.00    -0.084 Cl
HETATM   25  C   UNL     1     -42.309  58.733 -59.539  1.00  0.00     0.026 A 
HETATM   26  C   UNL     1     -42.060  58.143 -58.295  1.00  0.00     0.034 A 
ENDBRANCH  16  19
ENDBRANCH   7  15
BRANCH   1  27
HETATM   27  O   UNL     1     -39.285  50.354 -51.418  1.00  0.00    -0.356 OA
HETATM   28  C   UNL     1     -39.505  49.417 -52.464  1.00  0.00     0.210 C 
ENDBRANCH   1  27
TORSDOF 3
ENDMDL
MODEL 2
REMARK VINA RESULT:      -8.3      4.274      5.032
REMARK  3 active torsions:
REMARK  status: ('A' for Active; 'I' for Inactive)
REMARK    1  A    between atoms: O_2  and  C_3 
REMARK    2  A    between atoms: C_9  and  C_10 
REMARK       I    between atoms: C_10  and  N_11 
REMARK    3  A    between atoms: N_11  and  C_12 
ROOT
HETATM    1  C   UNL     1     -39.572  51.292 -53.096  1.00  0.00     0.068 A 
HETATM    2  C   UNL     1     -40.389  52.175 -53.806  1.00  0.00     0.044 A 
HETATM    3  C   UNL     1     -40.870  53.345 -53.204  1.00  0.00    -0.043 A 
HETATM    4  C   UNL     1     -40.552  53.611 -51.852  1.00  0.00    -0.001 A 
HETATM    5  C   UNL     1     -41.048  54.862 -51.305  1.00  0.00     0.069 A 
HETATM    6  C   UNL     1     -41.606  55.870 -52.060  1.00  0.00     0.007 A 
HETATM    7  C   UNL     1     -41.885  56.922 -51.154  1.00  0.00     0.153 A 
HETATM    8  N   UNL     1     -41.541  56.569 -49.892  1.00  0.00    -0.168 NA
HETATM    9  N   UNL     1     -41.053  55.314 -50.021  1.00  0.00    -0.276 N 
HETATM   10  H   UNL     1     -40.732  54.833 -49.189  1.00  0.00     0.189 HD
HETATM   11  C   UNL     1     -41.744  55.756 -53.537  1.00  0.00     0.048 C 
HETATM   12  C   UNL     1     -41.800  54.274 -53.976  1.00  0.00     0.044 C 
HETATM   13  C   UNL     1     -39.756  52.714 -51.137  1.00  0.00     0.017 A 
HETATM   14  C   UNL     1     -39.267  51.558 -51.760  1.00  0.00     0.037 A 
ENDROOT
BRANCH   7  15
HETATM   15  C   UNL     1     -42.420  58.264 -51.467  1.00  0.00     0.277 C 
HETATM   16  N   UNL     1     -43.676  58.449 -50.923  1.00  0.00    -0.319 N 
HETATM   17  H   UNL     1     -43.961  57.674 -50.329  1.00  0.00     0.169 HD
HETATM   18  O   UNL     1     -41.753  59.088 -52.077  1.00  0.00    -0.266 OA
BRANCH  16  19
HETATM   19  C   UNL     1     -44.482  59.602 -50.958  1.00  0.00     0.074 A 
HETATM   20  C   UNL     1     -44.234  60.788 -50.253  1.00  0.00     0.144 A 
HETATM   21  F   UNL     1     -43.111  60.970 -49.547  1.00  0.00    -0.204 F 
HETATM   22  C   UNL     1     -45.115  61.867 -50.318  1.00  0.00     0.068 A 
HETATM   23  C   UNL     1     -46.255  61.776 -51.107  1.00  0.00     0.037 A 
HETATM   24 CL   UNL     1     -47.352  63.098 -51.185  1.00  0.00    -0.084 Cl
HETATM   25  C   UNL     1     -46.508  60.621 -51.844  1.00  0.00     0.026 A 
HETATM   26  C   UNL     1     -45.618  59.543 -51.777  1.00  0.00     0.034 A 
ENDBRANCH  16  19
ENDBRANCH   7  15
BRANCH   1  27
HETATM   27  O   UNL     1     -39.151  50.205 -53.812  1.00  0.00    -0.356 OA
HETATM   28  C   UNL     1     -40.020  49.739 -54.838  1.00  0.00     0.210 C 
ENDBRANCH   1  27
TORSDOF 3
ENDMDL
MODEL 3
REMARK VINA RESULT:      -8.3      4.693      5.829
REMARK  3 active torsions:
REMARK  status: ('A' for Active; 'I' for Inactive)
REMARK    1  A    between atoms: O_2  and  C_3 
REMARK    2  A    between atoms: C_9  and  C_10 
REMARK       I    between atoms: C_10  and  N_11 
REMARK    3  A    between atoms: N_11  and  C_12 
ROOT
HETATM    1  C   UNL     1     -40.117  52.012 -53.270  1.00  0.00     0.068 A 
HETATM    2  C   UNL     1     -40.228  52.789 -52.115  1.00  0.00     0.044 A 
HETATM    3  C   UNL     1     -41.059  53.916 -52.088  1.00  0.00    -0.043 A 
HETATM    4  C   UNL     1     -41.762  54.288 -53.257  1.00  0.00    -0.001 A 
HETATM    5  C   UNL     1     -42.639  55.441 -53.145  1.00  0.00     0.069 A 
HETATM    6  C   UNL     1     -42.978  56.043 -51.953  1.00  0.00     0.007 A 
HETATM    7  C   UNL     1     -43.894  57.070 -52.288  1.00  0.00     0.153 A 
HETATM    8  N   UNL     1     -44.089  57.120 -53.627  1.00  0.00    -0.168 NA
HETATM    9  N   UNL     1     -43.304  56.131 -54.112  1.00  0.00    -0.276 N 
HETATM   10  H   UNL     1     -43.282  55.980 -55.114  1.00  0.00     0.189 HD
HETATM   11  C   UNL     1     -42.465  55.542 -50.650  1.00  0.00     0.048 C 
HETATM   12  C   UNL     1     -41.131  54.782 -50.835  1.00  0.00     0.044 C 
HETATM   13  C   UNL     1     -41.630  53.524 -54.418  1.00  0.00     0.017 A 
HETATM   14  C   UNL     1     -40.810  52.388 -54.422  1.00  0.00     0.037 A 
ENDROOT
BRANCH   7  15
HETATM   15  C   UNL     1     -44.621  57.966 -51.363  1.00  0.00     0.277 C 
HETATM   16  N   UNL     1     -44.226  59.281 -51.516  1.00  0.00    -0.319 N 
HETATM   17  H   UNL     1     -43.585  59.407 -52.296  1.00  0.00     0.169 HD
HETATM   18  O   UNL     1     -45.502  57.542 -50.628  1.00  0.00    -0.266 OA
BRANCH  16  19
HETATM   19  C   UNL     1     -44.720  60.423 -50.859  1.00  0.00     0.074 A 
HETATM   20  C   UNL     1     -46.000  60.970 -51.031  1.00  0.00     0.144 A 
HETATM   21  F   UNL     1     -46.932  60.366 -51.778  1.00  0.00    -0.204 F 
HETATM   22  C   UNL     1     -46.386  62.132 -50.365  1.00  0.00     0.068 A 
HETATM   23  C   UNL     1     -45.496  62.758 -49.502  1.00  0.00     0.037 A 
HETATM   24 CL   UNL     1     -45.961  64.198 -48.686  1.00  0.00    -0.084 Cl
HETATM   25  C   UNL     1     -44.230  62.218 -49.288  1.00  0.00     0.026 A 
HETATM   26  C   UNL     1     -43.849  61.049 -49.956  1.00  0.00     0.034 A 
ENDBRANCH  16  19
ENDBRANCH   7  15
BRANCH   1  27
HETATM   27  O   UNL     1     -39.295  50.926 -53.150  1.00  0.00    -0.356 OA
HETATM   28  C   UNL     1     -39.449  49.897 -54.119  1.00  0.00     0.210 C 
ENDBRANCH   1  27
TORSDOF 3
ENDMDL
MODEL 4
REMARK VINA RESULT:      -8.3      3.427      4.367
REMARK  3 active torsions:
REMARK  status: ('A' for Active; 'I' for Inactive)
REMARK    1  A    between atoms: O_2  and  C_3 
REMARK    2  A    between atoms: C_9  and  C_10 
REMARK       I    between atoms: C_10  and  N_11 
REMARK    3  A    between atoms: N_11  and  C_12 
ROOT
HETATM    1  C   UNL     1     -39.753  50.769 -52.775  1.00  0.00     0.068 A 
HETATM    2  C   UNL     1     -39.890  51.833 -51.882  1.00  0.00     0.044 A 
HETATM    3  C   UNL     1     -40.270  53.103 -52.335  1.00  0.00    -0.043 A 
HETATM    4  C   UNL     1     -40.479  53.312 -53.719  1.00  0.00    -0.001 A 
HETATM    5  C   UNL     1     -40.914  54.641 -54.113  1.00  0.00     0.069 A 
HETATM    6  C   UNL     1     -41.327  55.615 -53.230  1.00  0.00     0.007 A 
HETATM    7  C   UNL     1     -41.724  56.715 -54.028  1.00  0.00     0.153 A 
HETATM    8  N   UNL     1     -41.537  56.445 -55.342  1.00  0.00    -0.168 NA
HETATM    9  N   UNL     1     -41.034  55.190 -55.353  1.00  0.00    -0.276 N 
HETATM   10  H   UNL     1     -40.805  54.769 -56.246  1.00  0.00     0.189 HD
HETATM   11  C   UNL     1     -41.368  55.374 -51.763  1.00  0.00     0.048 C 
HETATM   12  C   UNL     1     -40.368  54.266 -51.355  1.00  0.00     0.044 C 
HETATM   13  C   UNL     1     -40.317  52.252 -54.613  1.00  0.00     0.017 A 
HETATM   14  C   UNL     1     -39.956  50.984 -54.140  1.00  0.00     0.037 A 
ENDROOT
BRANCH   7  15
HETATM   15  C   UNL     1     -42.319  57.990 -53.574  1.00  0.00     0.277 C 
HETATM   16  N   UNL     1     -43.696  57.907 -53.496  1.00  0.00    -0.319 N 
HETATM   17  H   UNL     1     -44.040  56.965 -53.669  1.00  0.00     0.169 HD
HETATM   18  O   UNL     1     -41.620  58.941 -53.253  1.00  0.00    -0.266 OA
BRANCH  16  19
HETATM   19  C   UNL     1     -44.607  58.886 -53.058  1.00  0.00     0.074 A 
HETATM   20  C   UNL     1     -45.179  58.950 -51.780  1.00  0.00     0.144 A 
HETATM   21  F   UNL     1     -44.810  58.119 -50.797  1.00  0.00    -0.204 F 
HETATM   22  C   UNL     1     -46.106  59.938 -51.450  1.00  0.00     0.068 A 
HETATM   23  C   UNL     1     -46.464  60.888 -52.398  1.00  0.00     0.037 A 
HETATM   24 CL   UNL     1     -47.615  62.103 -52.001  1.00  0.00    -0.084 Cl
HETATM   25  C   UNL     1     -45.886  60.868 -53.665  1.00  0.00     0.026 A 
HETATM   26  C   UNL     1     -44.953  59.876 -53.988  1.00  0.00     0.034 A 
ENDBRANCH  16  19
ENDBRANCH   7  15
BRANCH   1  27
HETATM   27  O   UNL     1     -39.405  49.580 -52.196  1.00  0.00    -0.356 OA
HETATM   28  C   UNL     1     -39.484  49.513 -50.777  1.00  0.00     0.210 C 
ENDBRANCH   1  27
TORSDOF 3
ENDMDL
MODEL 5
REMARK VINA RESULT:      -8.2      1.865      2.033
REMARK  3 active torsions:
REMARK  status: ('A' for Active; 'I' for Inactive)
REMARK    1  A    between atoms: O_2  and  C_3 
REMARK    2  A    between atoms: C_9  and  C_10 
REMARK       I    between atoms: C_10  and  N_11 
REMARK    3  A    between atoms: N_11  and  C_12 
ROOT
HETATM    1  C   UNL     1     -39.903  51.991 -51.671  1.00  0.00     0.068 A 
HETATM    2  C   UNL     1     -40.019  52.191 -53.048  1.00  0.00     0.044 A 
HETATM    3  C   UNL     1     -40.889  53.163 -53.560  1.00  0.00    -0.043 A 
HETATM    4  C   UNL     1     -41.684  53.920 -52.668  1.00  0.00    -0.001 A 
HETATM    5  C   UNL     1     -42.530  54.940 -53.264  1.00  0.00     0.069 A 
HETATM    6  C   UNL     1     -42.449  55.343 -54.579  1.00  0.00     0.007 A 
HETATM    7  C   UNL     1     -43.393  56.389 -54.720  1.00  0.00     0.153 A 
HETATM    8  N   UNL     1     -44.049  56.602 -53.554  1.00  0.00    -0.168 NA
HETATM    9  N   UNL     1     -43.511  55.699 -52.703  1.00  0.00    -0.276 N 
HETATM   10  H   UNL     1     -43.857  55.668 -51.751  1.00  0.00     0.189 HD
HETATM   11  C   UNL     1     -41.456  54.755 -55.517  1.00  0.00     0.048 C 
HETATM   12  C   UNL     1     -41.041  53.334 -55.067  1.00  0.00     0.044 C 
HETATM   13  C   UNL     1     -41.584  53.702 -51.293  1.00  0.00     0.017 A 
HETATM   14  C   UNL     1     -40.694  52.740 -50.797  1.00  0.00     0.037 A 
ENDROOT
BRANCH   7  15
HETATM   15  C   UNL     1     -43.648  57.217 -55.918  1.00  0.00     0.277 C 
HETATM   16  N   UNL     1     -42.499  57.395 -56.665  1.00  0.00    -0.319 N 
HETATM   17  H   UNL     1     -41.717  56.849 -56.312  1.00  0.00     0.169 HD
HETATM   18  O   UNL     1     -44.774  57.606 -56.194  1.00  0.00    -0.266 OA
BRANCH  16  19
HETATM   19  C   UNL     1     -42.351  58.072 -57.889  1.00  0.00     0.074 A 
HETATM   20  C   UNL     1     -42.313  57.468 -59.153  1.00  0.00     0.144 A 
HETATM   21  F   UNL     1     -42.534  56.158 -59.318  1.00  0.00    -0.204 F 
HETATM   22  C   UNL     1     -42.120  58.221 -60.311  1.00  0.00     0.068 A 
HETATM   23  C   UNL     1     -41.975  59.599 -60.218  1.00  0.00     0.037 A 
HETATM   24 CL   UNL     1     -41.726  60.533 -61.640  1.00  0.00    -0.084 Cl
HETATM   25  C   UNL     1     -42.042  60.229 -58.977  1.00  0.00     0.026 A 
HETATM   26  C   UNL     1     -42.240  59.468 -57.819  1.00  0.00     0.034 A 
ENDBRANCH  16  19
ENDBRANCH   7  15
BRANCH   1  27
HETATM   27  O   UNL     1     -38.998  51.032 -51.308  1.00  0.00    -0.356 OA
HETATM   28  C   UNL     1     -39.526  49.772 -50.912  1.00  0.00     0.210 C 
ENDBRANCH   1  27
TORSDOF 3
ENDMDL
MODEL 6
REMARK VINA RESULT:      -8.1      5.093      8.820
REMARK  3 active torsions:
REMARK  status: ('A' for Active; 'I' for Inactive)
REMARK    1  A    between atoms: O_2  and  C_3 
REMARK    2  A    between atoms: C_9  and  C_10 
REMARK       I    between atoms: C_10  and  N_11 
REMARK    3  A    between atoms: N_11  and  C_12 
ROOT
HETATM    1  C   UNL     1     -45.104  62.467 -51.339  1.00  0.00     0.068 A 
HETATM    2  C   UNL     1     -45.323  61.326 -52.114  1.00  0.00     0.044 A 
HETATM    3  C   UNL     1     -44.507  60.196 -51.972  1.00  0.00    -0.043 A 
HETATM    4  C   UNL     1     -43.428  60.230 -51.058  1.00  0.00    -0.001 A 
HETATM    5  C   UNL     1     -42.651  59.010 -50.930  1.00  0.00     0.069 A 
HETATM    6  C   UNL     1     -43.020  57.796 -51.468  1.00  0.00     0.007 A 
HETATM    7  C   UNL     1     -42.029  56.874 -51.052  1.00  0.00     0.153 A 
HETATM    8  N   UNL     1     -41.076  57.494 -50.316  1.00  0.00    -0.168 NA
HETATM    9  N   UNL     1     -41.478  58.785 -50.276  1.00  0.00    -0.276 N 
HETATM   10  H   UNL     1     -40.905  59.453 -49.774  1.00  0.00     0.189 HD
HETATM   11  C   UNL     1     -44.282  57.634 -52.238  1.00  0.00     0.048 C 
HETATM   12  C   UNL     1     -44.729  58.978 -52.860  1.00  0.00     0.044 C 
HETATM   13  C   UNL     1     -43.195  61.381 -50.301  1.00  0.00     0.017 A 
HETATM   14  C   UNL     1     -44.034  62.495 -50.442  1.00  0.00     0.037 A 
ENDROOT
BRANCH   7  15
HETATM   15  C   UNL     1     -41.997  55.416 -51.296  1.00  0.00     0.277 C 
HETATM   16  N   UNL     1     -40.968  55.067 -52.151  1.00  0.00    -0.319 N 
HETATM   17  H   UNL     1     -40.366  55.856 -52.377  1.00  0.00     0.169 HD
HETATM   18  O   UNL     1     -42.769  54.658 -50.725  1.00  0.00    -0.266 OA
BRANCH  16  19
HETATM   19  C   UNL     1     -40.584  53.783 -52.577  1.00  0.00     0.074 A 
HETATM   20  C   UNL     1     -39.981  52.806 -51.772  1.00  0.00     0.144 A 
HETATM   21  F   UNL     1     -39.815  52.979 -50.455  1.00  0.00    -0.204 F 
HETATM   22  C   UNL     1     -39.597  51.572 -52.295  1.00  0.00     0.068 A 
HETATM   23  C   UNL     1     -39.826  51.294 -53.637  1.00  0.00     0.037 A 
HETATM   24 CL   UNL     1     -39.345  49.778 -54.292  1.00  0.00    -0.084 Cl
HETATM   25  C   UNL     1     -40.453  52.234 -54.451  1.00  0.00     0.026 A 
HETATM   26  C   UNL     1     -40.840  53.469 -53.919  1.00  0.00     0.034 A 
ENDBRANCH  16  19
ENDBRANCH   7  15
BRANCH   1  27
HETATM   27  O   UNL     1     -45.990  63.485 -51.559  1.00  0.00    -0.356 OA
HETATM   28  C   UNL     1     -47.371  63.169 -51.429  1.00  0.00     0.210 C 
ENDBRANCH   1  27
TORSDOF 3
ENDMDL
MODEL 7
REMARK VINA RESULT:      -8.0      3.461      4.543
REMARK  3 active torsions:
REMARK  status: ('A' for Active; 'I' for Inactive)
REMARK    1  A    between atoms: O_2  and  C_3 
REMARK    2  A    between atoms: C_9  and  C_10 
REMARK       I    between atoms: C_10  and  N_11 
REMARK    3  A    between atoms: N_11  and  C_12 
ROOT
HETATM    1  C   UNL     1     -39.655  51.240 -52.466  1.00  0.00     0.068 A 
HETATM    2  C   UNL     1     -40.006  52.297 -51.625  1.00  0.00     0.044 A 
HETATM    3  C   UNL     1     -40.487  53.503 -52.152  1.00  0.00    -0.043 A 
HETATM    4  C   UNL     1     -40.582  53.657 -53.555  1.00  0.00    -0.001 A 
HETATM    5  C   UNL     1     -41.130  54.916 -54.030  1.00  0.00     0.069 A 
HETATM    6  C   UNL     1     -41.740  55.850 -53.223  1.00  0.00     0.007 A 
HETATM    7  C   UNL     1     -42.184  56.878 -54.089  1.00  0.00     0.153 A 
HETATM    8  N   UNL     1     -41.837  56.606 -55.371  1.00  0.00    -0.168 NA
HETATM    9  N   UNL     1     -41.190  55.421 -55.293  1.00  0.00    -0.276 N 
HETATM   10  H   UNL     1     -40.826  55.013 -56.147  1.00  0.00     0.189 HD
HETATM   11  C   UNL     1     -41.898  55.634 -51.759  1.00  0.00     0.048 C 
HETATM   12  C   UNL     1     -40.819  54.664 -51.222  1.00  0.00     0.044 C 
HETATM   13  C   UNL     1     -40.207  52.607 -54.395  1.00  0.00     0.017 A 
HETATM   14  C   UNL     1     -39.747  51.402 -53.850  1.00  0.00     0.037 A 
ENDROOT
BRANCH   7  15
HETATM   15  C   UNL     1     -42.968  58.079 -53.735  1.00  0.00     0.277 C 
HETATM   16  N   UNL     1     -42.192  59.018 -53.082  1.00  0.00    -0.319 N 
HETATM   17  H   UNL     1     -41.209  58.757 -53.052  1.00  0.00     0.169 HD
HETATM   18  O   UNL     1     -44.139  58.197 -54.070  1.00  0.00    -0.266 OA
BRANCH  16  19
HETATM   19  C   UNL     1     -42.562  60.300 -52.637  1.00  0.00     0.074 A 
HETATM   20  C   UNL     1     -42.876  61.388 -53.463  1.00  0.00     0.144 A 
HETATM   21  F   UNL     1     -42.961  61.265 -54.793  1.00  0.00    -0.204 F 
HETATM   22  C   UNL     1     -43.192  62.636 -52.928  1.00  0.00     0.068 A 
HETATM   23  C   UNL     1     -43.212  62.808 -51.550  1.00  0.00     0.037 A 
HETATM   24 CL   UNL     1     -43.590  64.347 -50.883  1.00  0.00    -0.084 Cl
HETATM   25  C   UNL     1     -42.936  61.735 -50.705  1.00  0.00     0.026 A 
HETATM   26  C   UNL     1     -42.623  60.484 -51.248  1.00  0.00     0.034 A 
ENDBRANCH  16  19
ENDBRANCH   7  15
BRANCH   1  27
HETATM   27  O   UNL     1     -39.228  50.113 -51.819  1.00  0.00    -0.356 OA
HETATM   28  C   UNL     1     -39.860  49.809 -50.581  1.00  0.00     0.210 C 
ENDBRANCH   1  27
TORSDOF 3
ENDMDL
MODEL 8
REMARK VINA RESULT:      -8.0      5.201      8.602
REMARK  3 active torsions:
REMARK  status: ('A' for Active; 'I' for Inactive)
REMARK    1  A    between atoms: O_2  and  C_3 
REMARK    2  A    between atoms: C_9  and  C_10 
REMARK       I    between atoms: C_10  and  N_11 
REMARK    3  A    between atoms: N_11  and  C_12 
ROOT
HETATM    1  C   UNL     1     -44.829  62.019 -49.370  1.00  0.00     0.068 A 
HETATM    2  C   UNL     1     -45.425  60.814 -49.745  1.00  0.00     0.044 A 
HETATM    3  C   UNL     1     -44.739  59.896 -50.551  1.00  0.00    -0.043 A 
HETATM    4  C   UNL     1     -43.443  60.216 -51.018  1.00  0.00    -0.001 A 
HETATM    5  C   UNL     1     -42.774  59.201 -51.813  1.00  0.00     0.069 A 
HETATM    6  C   UNL     1     -43.223  57.906 -51.954  1.00  0.00     0.007 A 
HETATM    7  C   UNL     1     -42.251  57.245 -52.742  1.00  0.00     0.153 A 
HETATM    8  N   UNL     1     -41.261  58.099 -53.096  1.00  0.00    -0.168 NA
HETATM    9  N   UNL     1     -41.618  59.272 -52.529  1.00  0.00    -0.276 N 
HETATM   10  H   UNL     1     -41.018  60.077 -52.665  1.00  0.00     0.189 HD
HETATM   11  C   UNL     1     -44.461  57.431 -51.280  1.00  0.00     0.048 C 
HETATM   12  C   UNL     1     -45.423  58.607 -50.993  1.00  0.00     0.044 C 
HETATM   13  C   UNL     1     -42.858  61.433 -50.662  1.00  0.00     0.017 A 
HETATM   14  C   UNL     1     -43.551  62.330 -49.838  1.00  0.00     0.037 A 
ENDROOT
BRANCH   7  15
HETATM   15  C   UNL     1     -42.218  55.816 -53.121  1.00  0.00     0.277 C 
HETATM   16  N   UNL     1     -40.979  55.255 -52.877  1.00  0.00    -0.319 N 
HETATM   17  H   UNL     1     -40.351  55.893 -52.394  1.00  0.00     0.169 HD
HETATM   18  O   UNL     1     -43.219  55.242 -53.529  1.00  0.00    -0.266 OA
BRANCH  16  19
HETATM   19  C   UNL     1     -40.575  53.919 -53.054  1.00  0.00     0.074 A 
HETATM   20  C   UNL     1     -40.478  53.255 -54.285  1.00  0.00     0.144 A 
HETATM   21  F   UNL     1     -40.661  53.892 -55.448  1.00  0.00    -0.204 F 
HETATM   22  C   UNL     1     -40.107  51.913 -54.357  1.00  0.00     0.068 A 
HETATM   23  C   UNL     1     -39.813  51.218 -53.190  1.00  0.00     0.037 A 
HETATM   24 CL   UNL     1     -39.365  49.560 -53.271  1.00  0.00    -0.084 Cl
HETATM   25  C   UNL     1     -39.870  51.862 -51.957  1.00  0.00     0.026 A 
HETATM   26  C   UNL     1     -40.240  53.210 -51.891  1.00  0.00     0.034 A 
ENDBRANCH  16  19
ENDBRANCH   7  15
BRANCH   1  27
HETATM   27  O   UNL     1     -45.598  62.808 -48.559  1.00  0.00    -0.356 OA
HETATM   28  C   UNL     1     -46.615  62.154 -47.809  1.00  0.00     0.210 C 
ENDBRANCH   1  27
TORSDOF 3
ENDMDL
MODEL 9
REMARK VINA RESULT:      -7.8      2.126      2.366
REMARK  3 active torsions:
REMARK  status: ('A' for Active; 'I' for Inactive)
REMARK    1  A    between atoms: O_2  and  C_3 
REMARK    2  A    between atoms: C_9  and  C_10 
REMARK       I    between atoms: C_10  and  N_11 
REMARK    3  A    between atoms: N_11  and  C_12 
ROOT
HETATM    1  C   UNL     1     -40.064  52.222 -51.798  1.00  0.00     0.068 A 
HETATM    2  C   UNL     1     -40.197  52.526 -53.154  1.00  0.00     0.044 A 
HETATM    3  C   UNL     1     -41.081  53.527 -53.579  1.00  0.00    -0.043 A 
HETATM    4  C   UNL     1     -41.871  54.206 -52.623  1.00  0.00    -0.001 A 
HETATM    5  C   UNL     1     -42.733  55.261 -53.129  1.00  0.00     0.069 A 
HETATM    6  C   UNL     1     -42.670  55.766 -54.409  1.00  0.00     0.007 A 
HETATM    7  C   UNL     1     -43.624  56.811 -54.459  1.00  0.00     0.153 A 
HETATM    8  N   UNL     1     -44.268  56.927 -53.272  1.00  0.00    -0.168 NA
HETATM    9  N   UNL     1     -43.713  55.966 -52.500  1.00  0.00    -0.276 N 
HETATM   10  H   UNL     1     -44.048  55.857 -51.550  1.00  0.00     0.189 HD
HETATM   11  C   UNL     1     -41.683  55.261 -55.401  1.00  0.00     0.048 C 
HETATM   12  C   UNL     1     -41.251  53.814 -55.067  1.00  0.00     0.044 C 
HETATM   13  C   UNL     1     -41.755  53.882 -51.270  1.00  0.00     0.017 A 
HETATM   14  C   UNL     1     -40.851  52.893 -50.861  1.00  0.00     0.037 A 
ENDROOT
BRANCH   7  15
HETATM   15  C   UNL     1     -43.899  57.727 -55.585  1.00  0.00     0.277 C 
HETATM   16  N   UNL     1     -44.665  57.117 -56.561  1.00  0.00    -0.319 N 
HETATM   17  H   UNL     1     -44.980  56.190 -56.284  1.00  0.00     0.169 HD
HETATM   18  O   UNL     1     -43.527  58.892 -55.564  1.00  0.00    -0.266 OA
BRANCH  16  19
HETATM   19  C   UNL     1     -45.173  57.674 -57.748  1.00  0.00     0.074 A 
HETATM   20  C   UNL     1     -44.517  57.683 -58.987  1.00  0.00     0.144 A 
HETATM   21  F   UNL     1     -43.358  57.041 -59.179  1.00  0.00    -0.204 F 
HETATM   22  C   UNL     1     -45.084  58.298 -60.103  1.00  0.00     0.068 A 
HETATM   23  C   UNL     1     -46.330  58.904 -59.994  1.00  0.00     0.037 A 
HETATM   24 CL   UNL     1     -47.030  59.674 -61.363  1.00  0.00    -0.084 Cl
HETATM   25  C   UNL     1     -47.017  58.881 -58.783  1.00  0.00     0.026 A 
HETATM   26  C   UNL     1     -46.445  58.259 -57.668  1.00  0.00     0.034 A 
ENDBRANCH  16  19
ENDBRANCH   7  15
BRANCH   1  27
HETATM   27  O   UNL     1     -39.147  51.245 -51.521  1.00  0.00    -0.356 OA
HETATM   28  C   UNL     1     -39.621  49.904 -51.521  1.00  0.00     0.210 C 
ENDBRANCH   1  27
TORSDOF 3
ENDMDL
MODEL 10
REMARK VINA RESULT:      -7.8      5.195      8.754
REMARK  3 active torsions:
REMARK  status: ('A' for Active; 'I' for Inactive)
REMARK    1  A    between atoms: O_2  and  C_3 
REMARK    2  A    between atoms: C_9  and  C_10 
REMARK       I    between atoms: C_10  and  N_11 
REMARK    3  A    between atoms: N_11  and  C_12 
ROOT
HETATM    1  C   UNL     1     -44.246  62.789 -50.041  1.00  0.00     0.068 A 
HETATM    2  C   UNL     1     -42.986  62.190 -50.073  1.00  0.00     0.044 A 
HETATM    3  C   UNL     1     -42.830  60.874 -50.529  1.00  0.00    -0.043 A 
HETATM    4  C   UNL     1     -43.972  60.138 -50.923  1.00  0.00    -0.001 A 
HETATM    5  C   UNL     1     -43.732  58.795 -51.426  1.00  0.00     0.069 A 
HETATM    6  C   UNL     1     -42.487  58.293 -51.731  1.00  0.00     0.007 A 
HETATM    7  C   UNL     1     -42.711  56.993 -52.246  1.00  0.00     0.153 A 
HETATM    8  N   UNL     1     -44.032  56.695 -52.232  1.00  0.00    -0.168 NA
HETATM    9  N   UNL     1     -44.615  57.801 -51.717  1.00  0.00    -0.276 N 
HETATM   10  H   UNL     1     -45.622  57.808 -51.604  1.00  0.00     0.189 HD
HETATM   11  C   UNL     1     -41.254  59.110 -51.573  1.00  0.00     0.048 C 
HETATM   12  C   UNL     1     -41.455  60.218 -50.512  1.00  0.00     0.044 C 
HETATM   13  C   UNL     1     -45.234  60.731 -50.866  1.00  0.00     0.017 A 
HETATM   14  C   UNL     1     -45.369  62.054 -50.427  1.00  0.00     0.037 A 
ENDROOT
BRANCH   7  15
HETATM   15  C   UNL     1     -41.708  56.056 -52.794  1.00  0.00     0.277 C 
HETATM   16  N   UNL     1     -41.942  54.760 -52.374  1.00  0.00    -0.319 N 
HETATM   17  H   UNL     1     -42.809  54.672 -51.850  1.00  0.00     0.169 HD
HETATM   18  O   UNL     1     -40.845  56.432 -53.575  1.00  0.00    -0.266 OA
BRANCH  16  19
HETATM   19  C   UNL     1     -41.243  53.590 -52.722  1.00  0.00     0.074 A 
HETATM   20  C   UNL     1     -40.282  52.950 -51.927  1.00  0.00     0.144 A 
HETATM   21  F   UNL     1     -40.016  53.351 -50.678  1.00  0.00    -0.204 F 
HETATM   22  C   UNL     1     -39.610  51.814 -52.377  1.00  0.00     0.068 A 
HETATM   23  C   UNL     1     -39.906  51.292 -53.630  1.00  0.00     0.037 A 
HETATM   24 CL   UNL     1     -39.074  49.897 -54.195  1.00  0.00    -0.084 Cl
HETATM   25  C   UNL     1     -40.880  51.888 -54.426  1.00  0.00     0.026 A 
HETATM   26  C   UNL     1     -41.553  53.027 -53.968  1.00  0.00     0.034 A 
ENDBRANCH  16  19
ENDBRANCH   7  15
BRANCH   1  27
HETATM   27  O   UNL     1     -44.250  64.085 -49.602  1.00  0.00    -0.356 OA
HETATM   28  C   UNL     1     -42.984  64.669 -49.323  1.00  0.00     0.210 C 
ENDBRANCH   1  27
TORSDOF 3
ENDMDL
