MODEL 1
REMARK VINA RESULT:      -7.6      0.000      0.000
REMARK  3 active torsions:
REMARK  status: ('A' for Active; 'I' for Inactive)
REMARK    1  A    between atoms: C_2  and  C_3 
REMARK    2  A    between atoms: C_9  and  C_10 
REMARK    3  A    between atoms: C_20  and  N_21 
ROOT
HETATM    1  C   UNL     1     -40.949  56.454 -50.856  1.00  0.00     0.043 A 
HETATM    2  N   UNL     1     -41.278  56.589 -49.523  1.00  0.00    -0.279 N 
HETATM    3  H   UNL     1     -41.451  57.444 -49.006  1.00  0.00     0.189 HD
HETATM    4  N   UNL     1     -41.321  55.423 -48.849  1.00  0.00    -0.148 NA
HETATM    5  C   UNL     1     -41.064  54.532 -49.798  1.00  0.00     0.199 A 
HETATM    6  C   UNL     1     -40.849  55.089 -51.064  1.00  0.00     0.035 A 
HETATM    7  C   UNL     1     -40.496  54.220 -52.215  1.00  0.00     0.106 A 
HETATM    8  C   UNL     1     -40.294  52.782 -51.771  1.00  0.00     0.067 A 
HETATM    9  C   UNL     1     -39.634  51.864 -52.787  1.00  0.00     0.020 C 
HETATM   10  N   UNL     1     -39.088  51.102 -53.629  1.00  0.00    -0.096 N 
HETATM   11  C   UNL     1     -40.520  52.352 -50.503  1.00  0.00     0.139 A 
HETATM   12  O   UNL     1     -40.972  53.222 -49.497  1.00  0.00    -0.277 OA
ENDROOT
BRANCH   7  13
HETATM   13  C   UNL     1     -41.546  54.422 -53.301  1.00  0.00    -0.022 A 
HETATM   14  C   UNL     1     -42.939  54.300 -53.132  1.00  0.00     0.041 A 
HETATM   15 CL   UNL     1     -43.684  53.883 -51.632  1.00  0.00    -0.084 Cl
HETATM   16  C   UNL     1     -43.813  54.503 -54.209  1.00  0.00     0.024 A 
HETATM   17  C   UNL     1     -43.321  54.816 -55.474  1.00  0.00     0.002 A 
HETATM   18  C   UNL     1     -41.952  54.925 -55.670  1.00  0.00     0.001 A 
HETATM   19  C   UNL     1     -41.076  54.729 -54.599  1.00  0.00     0.010 A 
ENDBRANCH   7  13
BRANCH  11  20
HETATM   20  N   UNL     1     -40.307  51.071 -50.047  1.00  0.00    -0.282 NA
HETATM   21  H   UNL     1     -40.844  50.335 -50.497  1.00  0.00     0.126 HD
HETATM   22  H   UNL     1     -39.316  50.856 -49.959  1.00  0.00     0.126 HD
ENDBRANCH  11  20
BRANCH   1  23
HETATM   23  C   UNL     1     -40.759  57.625 -51.770  1.00  0.00     0.029 C 
HETATM   24  C   UNL     1     -40.212  58.837 -51.013  1.00  0.00     0.016 C 
HETATM   25  C   UNL     1     -42.052  57.975 -52.505  1.00  0.00     0.016 C 
ENDBRANCH   1  23
TORSDOF 3
ENDMDL
MODEL 2
REMARK VINA RESULT:      -7.6      3.450      5.225
REMARK  3 active torsions:
REMARK  status: ('A' for Active; 'I' for Inactive)
REMARK    1  A    between atoms: C_2  and  C_3 
REMARK    2  A    between atoms: C_9  and  C_10 
REMARK    3  A    between atoms: C_20  and  N_21 
ROOT
HETATM    1  C   UNL     1     -41.412  57.388 -51.427  1.00  0.00     0.043 A 
HETATM    2  N   UNL     1     -40.580  58.350 -50.892  1.00  0.00    -0.279 N 
HETATM    3  H   UNL     1     -40.198  58.392 -49.953  1.00  0.00     0.189 HD
HETATM    4  N   UNL     1     -40.298  59.362 -51.736  1.00  0.00    -0.148 NA
HETATM    5  C   UNL     1     -40.929  58.996 -52.844  1.00  0.00     0.199 A 
HETATM    6  C   UNL     1     -41.615  57.781 -52.739  1.00  0.00     0.035 A 
HETATM    7  C   UNL     1     -42.414  57.269 -53.882  1.00  0.00     0.106 A 
HETATM    8  C   UNL     1     -42.455  58.279 -55.014  1.00  0.00     0.067 A 
HETATM    9  C   UNL     1     -43.483  58.011 -56.101  1.00  0.00     0.020 C 
HETATM   10  N   UNL     1     -44.334  57.788 -57.003  1.00  0.00    -0.096 N 
HETATM   11  C   UNL     1     -41.756  59.443 -55.004  1.00  0.00     0.139 A 
HETATM   12  O   UNL     1     -40.923  59.796 -53.929  1.00  0.00    -0.277 OA
ENDROOT
BRANCH   7  13
HETATM   13  C   UNL     1     -41.875  55.894 -54.259  1.00  0.00    -0.022 A 
HETATM   14  C   UNL     1     -42.631  54.708 -54.345  1.00  0.00     0.041 A 
HETATM   15 CL   UNL     1     -44.324  54.632 -54.019  1.00  0.00    -0.084 Cl
HETATM   16  C   UNL     1     -42.024  53.495 -54.697  1.00  0.00     0.024 A 
HETATM   17  C   UNL     1     -40.657  53.432 -54.955  1.00  0.00     0.002 A 
HETATM   18  C   UNL     1     -39.888  54.583 -54.860  1.00  0.00     0.001 A 
HETATM   19  C   UNL     1     -40.488  55.797 -54.515  1.00  0.00     0.010 A 
ENDBRANCH   7  13
BRANCH  11  20
HETATM   20  N   UNL     1     -41.798  60.407 -55.986  1.00  0.00    -0.282 NA
HETATM   21  H   UNL     1     -41.674  60.085 -56.942  1.00  0.00     0.126 HD
HETATM   22  H   UNL     1     -42.588  61.038 -55.869  1.00  0.00     0.126 HD
ENDBRANCH  11  20
BRANCH   1  23
HETATM   23  C   UNL     1     -41.923  56.223 -50.637  1.00  0.00     0.029 C 
HETATM   24  C   UNL     1     -41.163  54.941 -50.984  1.00  0.00     0.016 C 
HETATM   25  C   UNL     1     -43.427  56.037 -50.827  1.00  0.00     0.016 C 
ENDBRANCH   1  23
TORSDOF 3
ENDMDL
MODEL 3
REMARK VINA RESULT:      -7.2      3.305      5.434
REMARK  3 active torsions:
REMARK  status: ('A' for Active; 'I' for Inactive)
REMARK    1  A    between atoms: C_2  and  C_3 
REMARK    2  A    between atoms: C_9  and  C_10 
REMARK    3  A    between atoms: C_20  and  N_21 
ROOT
HETATM    1  C   UNL     1     -43.547  57.075 -56.075  1.00  0.00     0.043 A 
HETATM    2  N   UNL     1     -44.891  57.329 -56.262  1.00  0.00    -0.279 N 
HETATM    3  H   UNL     1     -45.398  57.392 -57.138  1.00  0.00     0.189 HD
HETATM    4  N   UNL     1     -45.569  57.558 -55.120  1.00  0.00    -0.148 NA
HETATM    5  C   UNL     1     -44.635  57.392 -54.193  1.00  0.00     0.199 A 
HETATM    6  C   UNL     1     -43.372  57.069 -54.702  1.00  0.00     0.035 A 
HETATM    7  C   UNL     1     -42.213  56.907 -53.787  1.00  0.00     0.106 A 
HETATM    8  C   UNL     1     -42.592  57.262 -52.360  1.00  0.00     0.067 A 
HETATM    9  C   UNL     1     -41.432  57.435 -51.393  1.00  0.00     0.020 C 
HETATM   10  N   UNL     1     -40.470  57.577 -50.590  1.00  0.00    -0.096 N 
HETATM   11  C   UNL     1     -43.856  57.577 -51.978  1.00  0.00     0.139 A 
HETATM   12  O   UNL     1     -44.923  57.588 -52.891  1.00  0.00    -0.277 OA
ENDROOT
BRANCH   7  13
HETATM   13  C   UNL     1     -41.651  55.503 -53.978  1.00  0.00    -0.022 A 
HETATM   14  C   UNL     1     -42.151  54.328 -53.385  1.00  0.00     0.041 A 
HETATM   15 CL   UNL     1     -43.506  54.302 -52.317  1.00  0.00    -0.084 Cl
HETATM   16  C   UNL     1     -41.546  53.087 -53.630  1.00  0.00     0.024 A 
HETATM   17  C   UNL     1     -40.427  52.992 -54.453  1.00  0.00     0.002 A 
HETATM   18  C   UNL     1     -39.905  54.138 -55.036  1.00  0.00     0.001 A 
HETATM   19  C   UNL     1     -40.507  55.377 -54.801  1.00  0.00     0.010 A 
ENDBRANCH   7  13
BRANCH  11  20
HETATM   20  N   UNL     1     -44.235  57.948 -50.707  1.00  0.00    -0.282 NA
HETATM   21  H   UNL     1     -44.242  58.945 -50.510  1.00  0.00     0.126 HD
HETATM   22  H   UNL     1     -45.080  57.468 -50.405  1.00  0.00     0.126 HD
ENDBRANCH  11  20
BRANCH   1  23
HETATM   23  C   UNL     1     -42.590  56.881 -57.210  1.00  0.00     0.029 C 
HETATM   24  C   UNL     1     -42.268  58.208 -57.900  1.00  0.00     0.016 C 
HETATM   25  C   UNL     1     -43.115  55.855 -58.213  1.00  0.00     0.016 C 
ENDBRANCH   1  23
TORSDOF 3
ENDMDL
MODEL 4
REMARK VINA RESULT:      -7.2      3.548      6.065
REMARK  3 active torsions:
REMARK  status: ('A' for Active; 'I' for Inactive)
REMARK    1  A    between atoms: C_2  and  C_3 
REMARK    2  A    between atoms: C_9  and  C_10 
REMARK    3  A    between atoms: C_20  and  N_21 
ROOT
HETATM    1  C   UNL     1     -41.839  55.556 -55.581  1.00  0.00     0.043 A 
HETATM    2  N   UNL     1     -42.518  55.965 -56.710  1.00  0.00    -0.279 N 
HETATM    3  H   UNL     1     -42.769  55.412 -57.522  1.00  0.00     0.189 HD
HETATM    4  N   UNL     1     -42.831  57.276 -56.715  1.00  0.00    -0.148 NA
HETATM    5  C   UNL     1     -42.381  57.684 -55.536  1.00  0.00     0.199 A 
HETATM    6  C   UNL     1     -41.780  56.677 -54.772  1.00  0.00     0.035 A 
HETATM    7  C   UNL     1     -41.180  56.995 -53.451  1.00  0.00     0.106 A 
HETATM    8  C   UNL     1     -41.213  58.489 -53.183  1.00  0.00     0.067 A 
HETATM    9  C   UNL     1     -40.360  58.970 -52.021  1.00  0.00     0.020 C 
HETATM   10  N   UNL     1     -39.654  59.369 -51.055  1.00  0.00    -0.096 N 
HETATM   11  C   UNL     1     -41.814  59.384 -54.008  1.00  0.00     0.139 A 
HETATM   12  O   UNL     1     -42.469  58.982 -55.183  1.00  0.00    -0.277 OA
ENDROOT
BRANCH   7  13
HETATM   13  C   UNL     1     -41.866  56.133 -52.398  1.00  0.00    -0.022 A 
HETATM   14  C   UNL     1     -43.232  56.181 -52.057  1.00  0.00     0.041 A 
HETATM   15 CL   UNL     1     -44.360  57.260 -52.793  1.00  0.00    -0.084 Cl
HETATM   16  C   UNL     1     -43.753  55.341 -51.063  1.00  0.00     0.024 A 
HETATM   17  C   UNL     1     -42.929  54.450 -50.381  1.00  0.00     0.002 A 
HETATM   18  C   UNL     1     -41.576  54.395 -50.688  1.00  0.00     0.001 A 
HETATM   19  C   UNL     1     -41.051  55.226 -51.681  1.00  0.00     0.010 A 
ENDBRANCH   7  13
BRANCH  11  20
HETATM   20  N   UNL     1     -41.829  60.749 -53.828  1.00  0.00    -0.282 NA
HETATM   21  H   UNL     1     -42.732  61.170 -53.630  1.00  0.00     0.126 HD
HETATM   22  H   UNL     1     -41.089  61.060 -53.202  1.00  0.00     0.126 HD
ENDBRANCH  11  20
BRANCH   1  23
HETATM   23  C   UNL     1     -41.318  54.163 -55.405  1.00  0.00     0.029 C 
HETATM   24  C   UNL     1     -42.186  53.364 -54.431  1.00  0.00     0.016 C 
HETATM   25  C   UNL     1     -39.856  54.166 -54.960  1.00  0.00     0.016 C 
ENDBRANCH   1  23
TORSDOF 3
ENDMDL
MODEL 5
REMARK VINA RESULT:      -6.9      3.604      5.988
REMARK  3 active torsions:
REMARK  status: ('A' for Active; 'I' for Inactive)
REMARK    1  A    between atoms: C_2  and  C_3 
REMARK    2  A    between atoms: C_9  and  C_10 
REMARK    3  A    between atoms: C_20  and  N_21 
ROOT
HETATM    1  C   UNL     1     -43.524  56.528 -55.290  1.00  0.00     0.043 A 
HETATM    2  N   UNL     1     -44.793  57.005 -55.549  1.00  0.00    -0.279 N 
HETATM    3  H   UNL     1     -45.435  56.708 -56.275  1.00  0.00     0.189 HD
HETATM    4  N   UNL     1     -45.171  58.018 -54.746  1.00  0.00    -0.148 NA
HETATM    5  C   UNL     1     -44.132  58.143 -53.930  1.00  0.00     0.199 A 
HETATM    6  C   UNL     1     -43.091  57.244 -54.188  1.00  0.00     0.035 A 
HETATM    7  C   UNL     1     -41.837  57.299 -53.392  1.00  0.00     0.106 A 
HETATM    8  C   UNL     1     -41.847  58.485 -52.443  1.00  0.00     0.067 A 
HETATM    9  C   UNL     1     -40.512  58.829 -51.804  1.00  0.00     0.020 C 
HETATM   10  N   UNL     1     -39.404  59.115 -51.273  1.00  0.00    -0.096 N 
HETATM   11  C   UNL     1     -42.916  59.307 -52.283  1.00  0.00     0.139 A 
HETATM   12  O   UNL     1     -44.113  59.109 -52.991  1.00  0.00    -0.277 OA
ENDROOT
BRANCH   7  13
HETATM   13  C   UNL     1     -41.635  55.941 -52.731  1.00  0.00    -0.022 A 
HETATM   14  C   UNL     1     -40.839  54.892 -53.231  1.00  0.00     0.041 A 
HETATM   15 CL   UNL     1     -39.960  54.987 -54.713  1.00  0.00    -0.084 Cl
HETATM   16  C   UNL     1     -40.733  53.679 -52.537  1.00  0.00     0.024 A 
HETATM   17  C   UNL     1     -41.423  53.479 -51.344  1.00  0.00     0.002 A 
HETATM   18  C   UNL     1     -42.226  54.492 -50.839  1.00  0.00     0.001 A 
HETATM   19  C   UNL     1     -42.333  55.706 -51.523  1.00  0.00     0.010 A 
ENDBRANCH   7  13
BRANCH  11  20
HETATM   20  N   UNL     1     -42.953  60.417 -51.470  1.00  0.00    -0.282 NA
HETATM   21  H   UNL     1     -42.157  60.553 -50.853  1.00  0.00     0.126 HD
HETATM   22  H   UNL     1     -43.220  61.256 -51.980  1.00  0.00     0.126 HD
ENDBRANCH  11  20
BRANCH   1  23
HETATM   23  C   UNL     1     -42.869  55.465 -56.118  1.00  0.00     0.029 C 
HETATM   24  C   UNL     1     -43.094  55.707 -57.612  1.00  0.00     0.016 C 
HETATM   25  C   UNL     1     -43.343  54.071 -55.711  1.00  0.00     0.016 C 
ENDBRANCH   1  23
TORSDOF 3
ENDMDL
MODEL 6
REMARK VINA RESULT:      -6.6      3.252      5.134
REMARK  3 active torsions:
REMARK  status: ('A' for Active; 'I' for Inactive)
REMARK    1  A    between atoms: C_2  and  C_3 
REMARK    2  A    between atoms: C_9  and  C_10 
REMARK    3  A    between atoms: C_20  and  N_21 
ROOT
HETATM    1  C   UNL     1     -43.830  56.857 -55.559  1.00  0.00     0.043 A 
HETATM    2  N   UNL     1     -43.623  56.609 -56.901  1.00  0.00    -0.279 N 
HETATM    3  H   UNL     1     -44.081  57.044 -57.694  1.00  0.00     0.189 HD
HETATM    4  N   UNL     1     -42.727  55.632 -57.145  1.00  0.00    -0.148 NA
HETATM    5  C   UNL     1     -42.326  55.298 -55.925  1.00  0.00     0.199 A 
HETATM    6  C   UNL     1     -42.942  56.025 -54.900  1.00  0.00     0.035 A 
HETATM    7  C   UNL     1     -42.635  55.724 -53.478  1.00  0.00     0.106 A 
HETATM    8  C   UNL     1     -41.731  54.510 -53.361  1.00  0.00     0.067 A 
HETATM    9  C   UNL     1     -41.597  53.919 -51.967  1.00  0.00     0.020 C 
HETATM   10  N   UNL     1     -41.485  53.429 -50.811  1.00  0.00    -0.096 N 
HETATM   11  C   UNL     1     -41.198  53.868 -54.432  1.00  0.00     0.139 A 
HETATM   12  O   UNL     1     -41.443  54.296 -55.747  1.00  0.00    -0.277 OA
ENDROOT
BRANCH   7  13
HETATM   13  C   UNL     1     -42.101  56.995 -52.829  1.00  0.00    -0.022 A 
HETATM   14  C   UNL     1     -42.707  57.695 -51.767  1.00  0.00     0.041 A 
HETATM   15 CL   UNL     1     -44.190  57.210 -51.030  1.00  0.00    -0.084 Cl
HETATM   16  C   UNL     1     -42.125  58.863 -51.253  1.00  0.00     0.024 A 
HETATM   17  C   UNL     1     -40.942  59.363 -51.790  1.00  0.00     0.002 A 
HETATM   18  C   UNL     1     -40.335  58.701 -52.847  1.00  0.00     0.001 A 
HETATM   19  C   UNL     1     -40.906  57.534 -53.361  1.00  0.00     0.010 A 
ENDBRANCH   7  13
BRANCH  11  20
HETATM   20  N   UNL     1     -40.411  52.740 -54.374  1.00  0.00    -0.282 NA
HETATM   21  H   UNL     1     -40.733  51.936 -54.906  1.00  0.00     0.126 HD
HETATM   22  H   UNL     1     -39.426  52.953 -54.515  1.00  0.00     0.126 HD
ENDBRANCH  11  20
BRANCH   1  23
HETATM   23  C   UNL     1     -44.845  57.839 -55.061  1.00  0.00     0.029 C 
HETATM   24  C   UNL     1     -45.965  58.047 -56.082  1.00  0.00     0.016 C 
HETATM   25  C   UNL     1     -44.196  59.168 -54.680  1.00  0.00     0.016 C 
ENDBRANCH   1  23
TORSDOF 3
ENDMDL
MODEL 7
REMARK VINA RESULT:      -6.5      2.741      4.524
REMARK  3 active torsions:
REMARK  status: ('A' for Active; 'I' for Inactive)
REMARK    1  A    between atoms: C_2  and  C_3 
REMARK    2  A    between atoms: C_9  and  C_10 
REMARK    3  A    between atoms: C_20  and  N_21 
ROOT
HETATM    1  C   UNL     1     -44.129  56.416 -53.025  1.00  0.00     0.043 A 
HETATM    2  N   UNL     1     -44.601  55.807 -54.170  1.00  0.00    -0.279 N 
HETATM    3  H   UNL     1     -45.400  56.074 -54.734  1.00  0.00     0.189 HD
HETATM    4  N   UNL     1     -43.915  54.703 -54.525  1.00  0.00    -0.148 NA
HETATM    5  C   UNL     1     -42.959  54.650 -53.606  1.00  0.00     0.199 A 
HETATM    6  C   UNL     1     -43.011  55.685 -52.665  1.00  0.00     0.035 A 
HETATM    7  C   UNL     1     -42.038  55.728 -51.543  1.00  0.00     0.106 A 
HETATM    8  C   UNL     1     -41.162  54.488 -51.535  1.00  0.00     0.067 A 
HETATM    9  C   UNL     1     -40.346  54.265 -50.272  1.00  0.00     0.020 C 
HETATM   10  N   UNL     1     -39.668  54.081 -49.225  1.00  0.00    -0.096 N 
HETATM   11  C   UNL     1     -41.206  53.533 -52.499  1.00  0.00     0.139 A 
HETATM   12  O   UNL     1     -42.077  53.632 -53.597  1.00  0.00    -0.277 OA
ENDROOT
BRANCH   7  13
HETATM   13  C   UNL     1     -41.287  57.052 -51.617  1.00  0.00    -0.022 A 
HETATM   14  C   UNL     1     -40.612  57.553 -52.748  1.00  0.00     0.041 A 
HETATM   15 CL   UNL     1     -40.525  56.716 -54.254  1.00  0.00    -0.084 Cl
HETATM   16  C   UNL     1     -39.947  58.787 -52.697  1.00  0.00     0.024 A 
HETATM   17  C   UNL     1     -39.927  59.536 -51.524  1.00  0.00     0.002 A 
HETATM   18  C   UNL     1     -40.570  59.055 -50.392  1.00  0.00     0.001 A 
HETATM   19  C   UNL     1     -41.239  57.829 -50.437  1.00  0.00     0.010 A 
ENDBRANCH   7  13
BRANCH  11  20
HETATM   20  N   UNL     1     -40.465  52.373 -52.507  1.00  0.00    -0.282 NA
HETATM   21  H   UNL     1     -40.913  51.552 -52.903  1.00  0.00     0.126 HD
HETATM   22  H   UNL     1     -39.519  52.527 -52.853  1.00  0.00     0.126 HD
ENDBRANCH  11  20
BRANCH   1  23
HETATM   23  C   UNL     1     -44.794  57.605 -52.402  1.00  0.00     0.029 C 
HETATM   24  C   UNL     1     -44.041  58.897 -52.728  1.00  0.00     0.016 C 
HETATM   25  C   UNL     1     -44.953  57.429 -50.893  1.00  0.00     0.016 C 
ENDBRANCH   1  23
TORSDOF 3
ENDMDL
MODEL 8
REMARK VINA RESULT:      -6.5      2.799      5.728
REMARK  3 active torsions:
REMARK  status: ('A' for Active; 'I' for Inactive)
REMARK    1  A    between atoms: C_2  and  C_3 
REMARK    2  A    between atoms: C_9  and  C_10 
REMARK    3  A    between atoms: C_20  and  N_21 
ROOT
HETATM    1  C   UNL     1     -41.785  54.807 -53.899  1.00  0.00     0.043 A 
HETATM    2  N   UNL     1     -42.878  54.677 -54.731  1.00  0.00    -0.279 N 
HETATM    3  H   UNL     1     -43.007  54.021 -55.494  1.00  0.00     0.189 HD
HETATM    4  N   UNL     1     -43.854  55.576 -54.497  1.00  0.00    -0.148 NA
HETATM    5  C   UNL     1     -43.380  56.252 -53.458  1.00  0.00     0.199 A 
HETATM    6  C   UNL     1     -42.123  55.820 -53.019  1.00  0.00     0.035 A 
HETATM    7  C   UNL     1     -41.440  56.518 -51.899  1.00  0.00     0.106 A 
HETATM    8  C   UNL     1     -42.220  57.746 -51.465  1.00  0.00     0.067 A 
HETATM    9  C   UNL     1     -41.480  58.708 -50.550  1.00  0.00     0.020 C 
HETATM   10  N   UNL     1     -40.867  59.506 -49.790  1.00  0.00    -0.096 N 
HETATM   11  C   UNL     1     -43.433  58.080 -51.974  1.00  0.00     0.139 A 
HETATM   12  O   UNL     1     -44.067  57.294 -52.950  1.00  0.00    -0.277 OA
ENDROOT
BRANCH   7  13
HETATM   13  C   UNL     1     -41.172  55.498 -50.799  1.00  0.00    -0.022 A 
HETATM   14  C   UNL     1     -42.150  54.755 -50.108  1.00  0.00     0.041 A 
HETATM   15 CL   UNL     1     -43.843  54.900 -50.407  1.00  0.00    -0.084 Cl
HETATM   16  C   UNL     1     -41.784  53.846 -49.106  1.00  0.00     0.024 A 
HETATM   17  C   UNL     1     -40.447  53.668 -48.760  1.00  0.00     0.002 A 
HETATM   18  C   UNL     1     -39.467  54.400 -49.414  1.00  0.00     0.001 A 
HETATM   19  C   UNL     1     -39.823  55.304 -50.418  1.00  0.00     0.010 A 
ENDBRANCH   7  13
BRANCH  11  20
HETATM   20  N   UNL     1     -44.153  59.206 -51.644  1.00  0.00    -0.282 NA
HETATM   21  H   UNL     1     -45.154  59.170 -51.816  1.00  0.00     0.126 HD
HETATM   22  H   UNL     1     -43.912  59.556 -50.719  1.00  0.00     0.126 HD
ENDBRANCH  11  20
BRANCH   1  23
HETATM   23  C   UNL     1     -40.550  53.971 -54.040  1.00  0.00     0.029 C 
HETATM   24  C   UNL     1     -40.236  53.688 -55.510  1.00  0.00     0.016 C 
HETATM   25  C   UNL     1     -40.664  52.672 -53.244  1.00  0.00     0.016 C 
ENDBRANCH   1  23
TORSDOF 3
ENDMDL
MODEL 9
REMARK VINA RESULT:      -6.5      4.797      7.030
REMARK  3 active torsions:
REMARK  status: ('A' for Active; 'I' for Inactive)
REMARK    1  A    between atoms: C_2  and  C_3 
REMARK    2  A    between atoms: C_9  and  C_10 
REMARK    3  A    between atoms: C_20  and  N_21 
ROOT
HETATM    1  C   UNL     1     -41.996  56.286 -54.877  1.00  0.00     0.043 A 
HETATM    2  N   UNL     1     -41.446  56.841 -53.740  1.00  0.00    -0.279 N 
HETATM    3  H   UNL     1     -40.683  56.482 -53.176  1.00  0.00     0.189 HD
HETATM    4  N   UNL     1     -42.052  57.975 -53.336  1.00  0.00    -0.148 NA
HETATM    5  C   UNL     1     -42.971  58.160 -54.275  1.00  0.00     0.199 A 
HETATM    6  C   UNL     1     -42.980  57.176 -55.270  1.00  0.00     0.035 A 
HETATM    7  C   UNL     1     -43.990  57.220 -56.359  1.00  0.00     0.106 A 
HETATM    8  C   UNL     1     -44.991  58.337 -56.129  1.00  0.00     0.067 A 
HETATM    9  C   UNL     1     -46.240  58.293 -56.994  1.00  0.00     0.020 C 
HETATM   10  N   UNL     1     -47.275  58.257 -57.712  1.00  0.00    -0.096 N 
HETATM   11  C   UNL     1     -44.892  59.234 -55.114  1.00  0.00     0.139 A 
HETATM   12  O   UNL     1     -43.831  59.194 -54.194  1.00  0.00    -0.277 OA
ENDROOT
BRANCH   7  13
HETATM   13  C   UNL     1     -43.249  57.276 -57.690  1.00  0.00    -0.022 A 
HETATM   14  C   UNL     1     -43.175  56.235 -58.636  1.00  0.00     0.041 A 
HETATM   15 CL   UNL     1     -43.922  54.695 -58.418  1.00  0.00    -0.084 Cl
HETATM   16  C   UNL     1     -42.456  56.399 -59.829  1.00  0.00     0.024 A 
HETATM   17  C   UNL     1     -41.788  57.591 -60.097  1.00  0.00     0.002 A 
HETATM   18  C   UNL     1     -41.833  58.626 -59.174  1.00  0.00     0.001 A 
HETATM   19  C   UNL     1     -42.552  58.471 -57.986  1.00  0.00     0.010 A 
ENDBRANCH   7  13
BRANCH  11  20
HETATM   20  N   UNL     1     -45.799  60.233 -54.842  1.00  0.00    -0.282 NA
HETATM   21  H   UNL     1     -45.415  61.153 -54.647  1.00  0.00     0.126 HD
HETATM   22  H   UNL     1     -46.566  60.245 -55.511  1.00  0.00     0.126 HD
ENDBRANCH  11  20
BRANCH   1  23
HETATM   23  C   UNL     1     -41.535  54.981 -55.450  1.00  0.00     0.029 C 
HETATM   24  C   UNL     1     -42.547  53.866 -55.176  1.00  0.00     0.016 C 
HETATM   25  C   UNL     1     -40.149  54.603 -54.932  1.00  0.00     0.016 C 
ENDBRANCH   1  23
TORSDOF 3
ENDMDL
MODEL 10
REMARK VINA RESULT:      -6.4      3.745      5.667
REMARK  3 active torsions:
REMARK  status: ('A' for Active; 'I' for Inactive)
REMARK    1  A    between atoms: C_2  and  C_3 
REMARK    2  A    between atoms: C_9  and  C_10 
REMARK    3  A    between atoms: C_20  and  N_21 
ROOT
HETATM    1  C   UNL     1     -41.310  58.039 -51.387  1.00  0.00     0.043 A 
HETATM    2  N   UNL     1     -40.874  56.923 -50.702  1.00  0.00    -0.279 N 
HETATM    3  H   UNL     1     -40.172  56.874 -49.972  1.00  0.00     0.189 HD
HETATM    4  N   UNL     1     -41.443  55.772 -51.111  1.00  0.00    -0.148 NA
HETATM    5  C   UNL     1     -42.294  56.187 -52.040  1.00  0.00     0.199 A 
HETATM    6  C   UNL     1     -42.287  57.571 -52.248  1.00  0.00     0.035 A 
HETATM    7  C   UNL     1     -43.147  58.178 -53.296  1.00  0.00     0.106 A 
HETATM    8  C   UNL     1     -43.853  57.106 -54.108  1.00  0.00     0.067 A 
HETATM    9  C   UNL     1     -44.512  57.579 -55.393  1.00  0.00     0.020 C 
HETATM   10  N   UNL     1     -45.059  57.971 -56.459  1.00  0.00    -0.096 N 
HETATM   11  C   UNL     1     -43.778  55.781 -53.824  1.00  0.00     0.139 A 
HETATM   12  O   UNL     1     -43.035  55.300 -52.734  1.00  0.00    -0.277 OA
ENDROOT
BRANCH   7  13
HETATM   13  C   UNL     1     -44.065  59.194 -52.627  1.00  0.00    -0.022 A 
HETATM   14  C   UNL     1     -43.987  60.593 -52.771  1.00  0.00     0.041 A 
HETATM   15 CL   UNL     1     -42.804  61.387 -53.745  1.00  0.00    -0.084 Cl
HETATM   16  C   UNL     1     -44.885  61.434 -52.099  1.00  0.00     0.024 A 
HETATM   17  C   UNL     1     -45.865  60.905 -51.263  1.00  0.00     0.002 A 
HETATM   18  C   UNL     1     -45.951  59.530 -51.091  1.00  0.00     0.001 A 
HETATM   19  C   UNL     1     -45.062  58.686 -51.763  1.00  0.00     0.010 A 
ENDBRANCH   7  13
BRANCH  11  20
HETATM   20  N   UNL     1     -44.364  54.774 -54.558  1.00  0.00    -0.282 NA
HETATM   21  H   UNL     1     -44.798  55.046 -55.435  1.00  0.00     0.126 HD
HETATM   22  H   UNL     1     -43.759  53.959 -54.639  1.00  0.00     0.126 HD
ENDBRANCH  11  20
BRANCH   1  23
HETATM   23  C   UNL     1     -40.746  59.407 -51.155  1.00  0.00     0.029 C 
HETATM   24  C   UNL     1     -39.278  59.339 -50.732  1.00  0.00     0.016 C 
HETATM   25  C   UNL     1     -41.576  60.187 -50.136  1.00  0.00     0.016 C 
ENDBRANCH   1  23
TORSDOF 3
ENDMDL
