MODEL 1
REMARK VINA RESULT:      -8.7      0.000      0.000
REMARK  3 active torsions:
REMARK  status: ('A' for Active; 'I' for Inactive)
REMARK    1  A    between atoms: O_2  and  C_3 
REMARK       I    between atoms: N_13  and  C_14 
REMARK       I    between atoms: C_14  and  N_15 
REMARK    2  A    between atoms: N_15  and  C_16 
REMARK    3  A    between atoms: C_22  and  C_23 
ROOT
HETATM    1  C   UNL     1     -39.622  51.166 -53.139  1.00  0.00     0.069 A 
HETATM    2  C   UNL     1     -40.503  52.007 -53.832  1.00  0.00     0.051 A 
HETATM    3  C   UNL     1     -41.058  53.127 -53.184  1.00  0.00     0.002 A 
HETATM    4  C   UNL     1     -40.740  53.354 -51.844  1.00  0.00     0.043 A 
HETATM    5  N   UNL     1     -41.389  54.506 -51.456  1.00  0.00    -0.356 N 
HETATM    6  H   UNL     1     -41.306  54.928 -50.540  1.00  0.00     0.166 HD
HETATM    7  C   UNL     1     -42.055  55.051 -52.524  1.00  0.00     0.045 A 
HETATM    8  C   UNL     1     -41.903  54.190 -53.590  1.00  0.00    -0.019 A 
HETATM    9  C   UNL     1     -42.511  54.496 -54.905  1.00  0.00     0.061 C 
HETATM   10  C   UNL     1     -43.664  55.489 -54.706  1.00  0.00     0.133 C 
HETATM   11  N   UNL     1     -43.311  56.670 -53.882  1.00  0.00    -0.320 N 
HETATM   12  C   UNL     1     -44.166  57.758 -54.104  1.00  0.00     0.319 C 
HETATM   13  N   UNL     1     -43.782  58.924 -53.499  1.00  0.00    -0.338 N 
HETATM   14  O   UNL     1     -45.153  57.690 -54.831  1.00  0.00    -0.247 OA
HETATM   15  C   UNL     1     -42.758  56.389 -52.518  1.00  0.00     0.172 C 
HETATM   16  C   UNL     1     -39.889  52.509 -51.124  1.00  0.00     0.033 A 
HETATM   17  C   UNL     1     -39.332  51.413 -51.796  1.00  0.00     0.039 A 
HETATM   18  H   UNL     1     -42.781  58.997 -53.407  1.00  0.00     0.164 HD
ENDROOT
BRANCH  15  19
HETATM   19  C   UNL     1     -41.787  57.447 -51.995  1.00  0.00    -0.029 A 
HETATM   20  C   UNL     1     -41.932  57.954 -50.690  1.00  0.00     0.012 A 
HETATM   21  C   UNL     1     -41.043  58.914 -50.203  1.00  0.00     0.043 A 
HETATM   22  C   UNL     1     -40.008  59.365 -51.013  1.00  0.00     0.116 A 
HETATM   23  F   UNL     1     -39.157  60.285 -50.541  1.00  0.00    -0.206 F 
HETATM   24  C   UNL     1     -39.842  58.877 -52.303  1.00  0.00     0.043 A 
HETATM   25  C   UNL     1     -40.729  57.919 -52.795  1.00  0.00     0.012 A 
ENDBRANCH  15  19
BRANCH  13  26
HETATM   26  C   UNL     1     -44.426  60.206 -53.707  1.00  0.00     0.086 C 
HETATM   27  C   UNL     1     -45.628  60.470 -52.805  1.00  0.00     0.025 C 
HETATM   28  C   UNL     1     -45.906  61.946 -53.044  1.00  0.00     0.002 C 
HETATM   29  C   UNL     1     -44.532  62.586 -53.247  1.00  0.00     0.002 C 
HETATM   30  C   UNL     1     -43.551  61.444 -53.527  1.00  0.00     0.025 C 
ENDBRANCH  13  26
BRANCH   1  31
HETATM   31  O   UNL     1     -39.119  50.133 -53.884  1.00  0.00    -0.356 OA
HETATM   32  C   UNL     1     -39.906  49.709 -54.990  1.00  0.00     0.210 C 
ENDBRANCH   1  31
TORSDOF 3
ENDMDL
MODEL 2
REMARK VINA RESULT:      -8.6      2.844      8.422
REMARK  3 active torsions:
REMARK  status: ('A' for Active; 'I' for Inactive)
REMARK    1  A    between atoms: O_2  and  C_3 
REMARK       I    between atoms: N_13  and  C_14 
REMARK       I    between atoms: C_14  and  N_15 
REMARK    2  A    between atoms: N_15  and  C_16 
REMARK    3  A    between atoms: C_22  and  C_23 
ROOT
HETATM    1  C   UNL     1     -44.159  61.362 -50.883  1.00  0.00     0.069 A 
HETATM    2  C   UNL     1     -43.178  60.402 -50.602  1.00  0.00     0.051 A 
HETATM    3  C   UNL     1     -43.312  59.094 -51.107  1.00  0.00     0.002 A 
HETATM    4  C   UNL     1     -44.447  58.776 -51.854  1.00  0.00     0.043 A 
HETATM    5  N   UNL     1     -44.331  57.458 -52.240  1.00  0.00    -0.356 N 
HETATM    6  H   UNL     1     -44.998  56.974 -52.827  1.00  0.00     0.166 HD
HETATM    7  C   UNL     1     -43.129  56.951 -51.817  1.00  0.00     0.045 A 
HETATM    8  C   UNL     1     -42.504  57.930 -51.074  1.00  0.00    -0.019 A 
HETATM    9  C   UNL     1     -41.173  57.691 -50.470  1.00  0.00     0.061 C 
HETATM   10  C   UNL     1     -40.945  56.179 -50.341  1.00  0.00     0.133 C 
HETATM   11  N   UNL     1     -41.222  55.417 -51.582  1.00  0.00    -0.320 N 
HETATM   12  C   UNL     1     -40.573  54.176 -51.610  1.00  0.00     0.319 C 
HETATM   13  N   UNL     1     -40.656  53.510 -52.803  1.00  0.00    -0.338 N 
HETATM   14  O   UNL     1     -39.928  53.741 -50.659  1.00  0.00    -0.247 OA
HETATM   15  C   UNL     1     -42.587  55.586 -52.177  1.00  0.00     0.172 C 
HETATM   16  C   UNL     1     -45.454  59.710 -52.120  1.00  0.00     0.033 A 
HETATM   17  C   UNL     1     -45.288  61.011 -51.624  1.00  0.00     0.039 A 
HETATM   18  H   UNL     1     -40.717  54.136 -53.589  1.00  0.00     0.164 HD
ENDROOT
BRANCH  15  19
HETATM   19  C   UNL     1     -42.643  55.426 -53.696  1.00  0.00    -0.029 A 
HETATM   20  C   UNL     1     -43.422  54.402 -54.269  1.00  0.00     0.012 A 
HETATM   21  C   UNL     1     -43.484  54.256 -55.655  1.00  0.00     0.043 A 
HETATM   22  C   UNL     1     -42.776  55.130 -56.471  1.00  0.00     0.116 A 
HETATM   23  F   UNL     1     -42.840  54.986 -57.802  1.00  0.00    -0.206 F 
HETATM   24  C   UNL     1     -42.005  56.150 -55.930  1.00  0.00     0.043 A 
HETATM   25  C   UNL     1     -41.938  56.300 -54.544  1.00  0.00     0.012 A 
ENDBRANCH  15  19
BRANCH  13  26
HETATM   26  C   UNL     1     -39.941  52.285 -53.109  1.00  0.00     0.086 C 
HETATM   27  C   UNL     1     -40.117  51.170 -52.083  1.00  0.00     0.025 C 
HETATM   28  C   UNL     1     -39.510  49.968 -52.791  1.00  0.00     0.002 C 
HETATM   29  C   UNL     1     -39.854  50.156 -54.269  1.00  0.00     0.002 C 
HETATM   30  C   UNL     1     -40.276  51.618 -54.441  1.00  0.00     0.025 C 
ENDBRANCH  13  26
BRANCH   1  31
HETATM   31  O   UNL     1     -43.899  62.605 -50.369  1.00  0.00    -0.356 OA
HETATM   32  C   UNL     1     -44.380  62.859 -49.056  1.00  0.00     0.210 C 
ENDBRANCH   1  31
TORSDOF 3
ENDMDL
MODEL 3
REMARK VINA RESULT:      -8.6      3.917      7.465
REMARK  3 active torsions:
REMARK  status: ('A' for Active; 'I' for Inactive)
REMARK    1  A    between atoms: O_2  and  C_3 
REMARK       I    between atoms: N_13  and  C_14 
REMARK       I    between atoms: C_14  and  N_15 
REMARK    2  A    between atoms: N_15  and  C_16 
REMARK    3  A    between atoms: C_22  and  C_23 
ROOT
HETATM    1  C   UNL     1     -43.312  58.472 -60.118  1.00  0.00     0.069 A 
HETATM    2  C   UNL     1     -42.943  58.864 -58.825  1.00  0.00     0.051 A 
HETATM    3  C   UNL     1     -43.067  57.956 -57.755  1.00  0.00     0.002 A 
HETATM    4  C   UNL     1     -43.591  56.687 -58.008  1.00  0.00     0.043 A 
HETATM    5  N   UNL     1     -43.591  55.996 -56.816  1.00  0.00    -0.356 N 
HETATM    6  H   UNL     1     -43.884  55.033 -56.714  1.00  0.00     0.166 HD
HETATM    7  C   UNL     1     -43.024  56.763 -55.830  1.00  0.00     0.045 A 
HETATM    8  C   UNL     1     -42.737  57.995 -56.377  1.00  0.00    -0.019 A 
HETATM    9  C   UNL     1     -42.111  59.060 -55.561  1.00  0.00     0.061 C 
HETATM   10  C   UNL     1     -42.370  58.772 -54.076  1.00  0.00     0.133 C 
HETATM   11  N   UNL     1     -42.046  57.386 -53.662  1.00  0.00    -0.320 N 
HETATM   12  C   UNL     1     -41.822  57.271 -52.284  1.00  0.00     0.319 C 
HETATM   13  N   UNL     1     -41.352  56.052 -51.877  1.00  0.00    -0.338 N 
HETATM   14  O   UNL     1     -41.978  58.209 -51.506  1.00  0.00    -0.247 OA
HETATM   15  C   UNL     1     -42.720  56.287 -54.428  1.00  0.00     0.172 C 
HETATM   16  C   UNL     1     -43.995  56.286 -59.286  1.00  0.00     0.033 A 
HETATM   17  C   UNL     1     -43.843  57.200 -60.338  1.00  0.00     0.039 A 
HETATM   18  H   UNL     1     -40.792  55.601 -52.582  1.00  0.00     0.164 HD
ENDROOT
BRANCH  15  19
HETATM   19  C   UNL     1     -41.918  54.990 -54.516  1.00  0.00    -0.029 A 
HETATM   20  C   UNL     1     -40.601  55.007 -55.012  1.00  0.00     0.012 A 
HETATM   21  C   UNL     1     -39.860  53.827 -55.087  1.00  0.00     0.043 A 
HETATM   22  C   UNL     1     -40.428  52.631 -54.665  1.00  0.00     0.116 A 
HETATM   23  F   UNL     1     -39.712  51.501 -54.738  1.00  0.00    -0.206 F 
HETATM   24  C   UNL     1     -41.724  52.589 -54.168  1.00  0.00     0.043 A 
HETATM   25  C   UNL     1     -42.470  53.766 -54.092  1.00  0.00     0.012 A 
ENDBRANCH  15  19
BRANCH  13  26
HETATM   26  C   UNL     1     -40.911  55.753 -50.528  1.00  0.00     0.086 C 
HETATM   27  C   UNL     1     -41.965  55.095 -49.643  1.00  0.00     0.025 C 
HETATM   28  C   UNL     1     -41.157  54.657 -48.431  1.00  0.00     0.002 C 
HETATM   29  C   UNL     1     -39.790  54.254 -48.985  1.00  0.00     0.002 C 
HETATM   30  C   UNL     1     -39.696  54.838 -50.397  1.00  0.00     0.025 C 
ENDBRANCH  13  26
BRANCH   1  31
HETATM   31  O   UNL     1     -43.112  59.428 -61.079  1.00  0.00    -0.356 OA
HETATM   32  C   UNL     1     -41.842  60.067 -61.080  1.00  0.00     0.210 C 
ENDBRANCH   1  31
TORSDOF 3
ENDMDL
MODEL 4
REMARK VINA RESULT:      -8.3      2.617      3.886
REMARK  3 active torsions:
REMARK  status: ('A' for Active; 'I' for Inactive)
REMARK    1  A    between atoms: O_2  and  C_3 
REMARK       I    between atoms: N_13  and  C_14 
REMARK       I    between atoms: C_14  and  N_15 
REMARK    2  A    between atoms: N_15  and  C_16 
REMARK    3  A    between atoms: C_22  and  C_23 
ROOT
HETATM    1  C   UNL     1     -40.074  51.770 -52.710  1.00  0.00     0.069 A 
HETATM    2  C   UNL     1     -40.331  52.875 -51.888  1.00  0.00     0.051 A 
HETATM    3  C   UNL     1     -40.579  54.136 -52.465  1.00  0.00     0.002 A 
HETATM    4  C   UNL     1     -40.530  54.259 -53.855  1.00  0.00     0.043 A 
HETATM    5  N   UNL     1     -40.821  55.571 -54.162  1.00  0.00    -0.356 N 
HETATM    6  H   UNL     1     -40.892  55.935 -55.103  1.00  0.00     0.166 HD
HETATM    7  C   UNL     1     -41.118  56.266 -53.017  1.00  0.00     0.045 A 
HETATM    8  C   UNL     1     -40.928  55.410 -51.952  1.00  0.00    -0.019 A 
HETATM    9  C   UNL     1     -41.167  55.863 -50.563  1.00  0.00     0.061 C 
HETATM   10  C   UNL     1     -41.085  57.394 -50.513  1.00  0.00     0.133 C 
HETATM   11  N   UNL     1     -41.896  58.078 -51.550  1.00  0.00    -0.320 N 
HETATM   12  C   UNL     1     -42.200  59.403 -51.211  1.00  0.00     0.319 C 
HETATM   13  N   UNL     1     -43.087  60.023 -52.049  1.00  0.00    -0.338 N 
HETATM   14  O   UNL     1     -41.753  59.952 -50.207  1.00  0.00    -0.247 OA
HETATM   15  C   UNL     1     -41.625  57.689 -52.972  1.00  0.00     0.172 C 
HETATM   16  C   UNL     1     -40.243  53.177 -54.693  1.00  0.00     0.033 A 
HETATM   17  C   UNL     1     -40.020  51.928 -54.096  1.00  0.00     0.039 A 
HETATM   18  H   UNL     1     -43.742  59.377 -52.460  1.00  0.00     0.164 HD
ENDROOT
BRANCH  15  19
HETATM   19  C   UNL     1     -42.831  57.806 -53.903  1.00  0.00    -0.029 A 
HETATM   20  C   UNL     1     -42.743  58.578 -55.077  1.00  0.00     0.012 A 
HETATM   21  C   UNL     1     -43.837  58.682 -55.937  1.00  0.00     0.043 A 
HETATM   22  C   UNL     1     -45.017  58.013 -55.632  1.00  0.00     0.116 A 
HETATM   23  F   UNL     1     -46.064  58.115 -56.461  1.00  0.00    -0.206 F 
HETATM   24  C   UNL     1     -45.126  57.241 -54.483  1.00  0.00     0.043 A 
HETATM   25  C   UNL     1     -44.036  57.136 -53.618  1.00  0.00     0.012 A 
ENDBRANCH  15  19
BRANCH  13  26
HETATM   26  C   UNL     1     -43.658  61.335 -51.814  1.00  0.00     0.086 C 
HETATM   27  C   UNL     1     -44.047  62.098 -53.076  1.00  0.00     0.025 C 
HETATM   28  C   UNL     1     -44.848  63.267 -52.526  1.00  0.00     0.002 C 
HETATM   29  C   UNL     1     -45.595  62.707 -51.315  1.00  0.00     0.002 C 
HETATM   30  C   UNL     1     -44.916  61.384 -50.951  1.00  0.00     0.025 C 
ENDBRANCH  13  26
BRANCH   1  31
HETATM   31  O   UNL     1     -39.885  50.593 -52.036  1.00  0.00    -0.356 OA
HETATM   32  C   UNL     1     -39.546  49.460 -52.824  1.00  0.00     0.210 C 
ENDBRANCH   1  31
TORSDOF 3
ENDMDL
MODEL 5
REMARK VINA RESULT:      -7.9      3.361      6.644
REMARK  3 active torsions:
REMARK  status: ('A' for Active; 'I' for Inactive)
REMARK    1  A    between atoms: O_2  and  C_3 
REMARK       I    between atoms: N_13  and  C_14 
REMARK       I    between atoms: C_14  and  N_15 
REMARK    2  A    between atoms: N_15  and  C_16 
REMARK    3  A    between atoms: C_22  and  C_23 
ROOT
HETATM    1  C   UNL     1     -44.493  56.140 -59.969  1.00  0.00     0.069 A 
HETATM    2  C   UNL     1     -44.208  55.329 -58.864  1.00  0.00     0.051 A 
HETATM    3  C   UNL     1     -43.329  55.789 -57.864  1.00  0.00     0.002 A 
HETATM    4  C   UNL     1     -42.733  57.041 -58.019  1.00  0.00     0.043 A 
HETATM    5  N   UNL     1     -41.941  57.261 -56.912  1.00  0.00    -0.356 N 
HETATM    6  H   UNL     1     -41.419  58.110 -56.743  1.00  0.00     0.166 HD
HETATM    7  C   UNL     1     -42.068  56.217 -56.031  1.00  0.00     0.045 A 
HETATM    8  C   UNL     1     -42.884  55.274 -56.621  1.00  0.00    -0.019 A 
HETATM    9  C   UNL     1     -43.219  54.015 -55.917  1.00  0.00     0.061 C 
HETATM   10  C   UNL     1     -42.158  53.743 -54.843  1.00  0.00     0.133 C 
HETATM   11  N   UNL     1     -41.876  54.902 -53.963  1.00  0.00    -0.320 N 
HETATM   12  C   UNL     1     -41.307  54.526 -52.739  1.00  0.00     0.319 C 
HETATM   13  N   UNL     1     -41.187  55.538 -51.825  1.00  0.00    -0.338 N 
HETATM   14  O   UNL     1     -40.993  53.367 -52.480  1.00  0.00    -0.247 OA
HETATM   15  C   UNL     1     -41.466  56.172 -54.646  1.00  0.00     0.172 C 
HETATM   16  C   UNL     1     -42.978  57.854 -59.130  1.00  0.00     0.033 A 
HETATM   17  C   UNL     1     -43.873  57.383 -60.101  1.00  0.00     0.039 A 
HETATM   18  H   UNL     1     -41.908  56.235 -51.926  1.00  0.00     0.164 HD
ENDROOT
BRANCH  15  19
HETATM   19  C   UNL     1     -41.859  57.449 -53.903  1.00  0.00    -0.029 A 
HETATM   20  C   UNL     1     -43.201  57.665 -53.534  1.00  0.00     0.012 A 
HETATM   21  C   UNL     1     -43.565  58.825 -52.848  1.00  0.00     0.043 A 
HETATM   22  C   UNL     1     -42.594  59.765 -52.524  1.00  0.00     0.116 A 
HETATM   23  F   UNL     1     -42.948  60.876 -51.864  1.00  0.00    -0.206 F 
HETATM   24  C   UNL     1     -41.264  59.571 -52.872  1.00  0.00     0.043 A 
HETATM   25  C   UNL     1     -40.895  58.415 -53.560  1.00  0.00     0.012 A 
ENDBRANCH  15  19
BRANCH  13  26
HETATM   26  C   UNL     1     -40.767  55.354 -50.449  1.00  0.00     0.086 C 
HETATM   27  C   UNL     1     -41.834  54.770 -49.529  1.00  0.00     0.025 C 
HETATM   28  C   UNL     1     -41.044  54.437 -48.272  1.00  0.00     0.002 C 
HETATM   29  C   UNL     1     -39.668  53.993 -48.769  1.00  0.00     0.002 C 
HETATM   30  C   UNL     1     -39.553  54.457 -50.223  1.00  0.00     0.025 C 
ENDBRANCH  13  26
BRANCH   1  31
HETATM   31  O   UNL     1     -45.389  55.600 -60.853  1.00  0.00    -0.356 OA
HETATM   32  C   UNL     1     -46.684  56.186 -60.879  1.00  0.00     0.210 C 
ENDBRANCH   1  31
TORSDOF 3
ENDMDL
MODEL 6
REMARK VINA RESULT:      -7.9      2.578      7.950
REMARK  3 active torsions:
REMARK  status: ('A' for Active; 'I' for Inactive)
REMARK    1  A    between atoms: O_2  and  C_3 
REMARK       I    between atoms: N_13  and  C_14 
REMARK       I    between atoms: C_14  and  N_15 
REMARK    2  A    between atoms: N_15  and  C_16 
REMARK    3  A    between atoms: C_22  and  C_23 
ROOT
HETATM    1  C   UNL     1     -45.939  60.911 -51.722  1.00  0.00     0.069 A 
HETATM    2  C   UNL     1     -45.632  59.906 -52.648  1.00  0.00     0.051 A 
HETATM    3  C   UNL     1     -44.440  59.167 -52.511  1.00  0.00     0.002 A 
HETATM    4  C   UNL     1     -43.571  59.482 -51.465  1.00  0.00     0.043 A 
HETATM    5  N   UNL     1     -42.502  58.615 -51.542  1.00  0.00    -0.356 N 
HETATM    6  H   UNL     1     -41.736  58.593 -50.882  1.00  0.00     0.166 HD
HETATM    7  C   UNL     1     -42.698  57.720 -52.563  1.00  0.00     0.045 A 
HETATM    8  C   UNL     1     -43.866  58.072 -53.205  1.00  0.00    -0.019 A 
HETATM    9  C   UNL     1     -44.360  57.293 -54.363  1.00  0.00     0.061 C 
HETATM   10  C   UNL     1     -43.189  56.521 -54.984  1.00  0.00     0.133 C 
HETATM   11  N   UNL     1     -42.382  55.754 -54.004  1.00  0.00    -0.320 N 
HETATM   12  C   UNL     1     -41.659  54.711 -54.598  1.00  0.00     0.319 C 
HETATM   13  N   UNL     1     -41.036  53.869 -53.717  1.00  0.00    -0.338 N 
HETATM   14  O   UNL     1     -41.632  54.528 -55.812  1.00  0.00    -0.247 OA
HETATM   15  C   UNL     1     -41.811  56.532 -52.857  1.00  0.00     0.172 C 
HETATM   16  C   UNL     1     -43.843  60.503 -50.549  1.00  0.00     0.033 A 
HETATM   17  C   UNL     1     -45.045  61.210 -50.693  1.00  0.00     0.039 A 
HETATM   18  H   UNL     1     -41.531  53.791 -52.844  1.00  0.00     0.164 HD
ENDROOT
BRANCH  15  19
HETATM   19  C   UNL     1     -41.631  55.728 -51.571  1.00  0.00    -0.029 A 
HETATM   20  C   UNL     1     -40.390  55.731 -50.905  1.00  0.00     0.012 A 
HETATM   21  C   UNL     1     -40.221  55.006 -49.725  1.00  0.00     0.043 A 
HETATM   22  C   UNL     1     -41.288  54.282 -49.204  1.00  0.00     0.116 A 
HETATM   23  F   UNL     1     -41.121  53.588 -48.070  1.00  0.00    -0.206 F 
HETATM   24  C   UNL     1     -42.522  54.267 -49.840  1.00  0.00     0.043 A 
HETATM   25  C   UNL     1     -42.696  54.989 -51.022  1.00  0.00     0.012 A 
ENDBRANCH  15  19
BRANCH  13  26
HETATM   26  C   UNL     1     -40.359  52.643 -54.095  1.00  0.00     0.086 C 
HETATM   27  C   UNL     1     -39.495  52.027 -52.999  1.00  0.00     0.025 C 
HETATM   28  C   UNL     1     -39.157  50.659 -53.570  1.00  0.00     0.002 C 
HETATM   29  C   UNL     1     -40.401  50.231 -54.349  1.00  0.00     0.002 C 
HETATM   30  C   UNL     1     -41.247  51.490 -54.556  1.00  0.00     0.025 C 
ENDBRANCH  13  26
BRANCH   1  31
HETATM   31  O   UNL     1     -47.140  61.532 -51.937  1.00  0.00    -0.356 OA
HETATM   32  C   UNL     1     -47.263  62.860 -51.445  1.00  0.00     0.210 C 
ENDBRANCH   1  31
TORSDOF 3
ENDMDL
MODEL 7
REMARK VINA RESULT:      -7.5      3.440      8.480
REMARK  3 active torsions:
REMARK  status: ('A' for Active; 'I' for Inactive)
REMARK    1  A    between atoms: O_2  and  C_3 
REMARK       I    between atoms: N_13  and  C_14 
REMARK       I    between atoms: C_14  and  N_15 
REMARK    2  A    between atoms: N_15  and  C_16 
REMARK    3  A    between atoms: C_22  and  C_23 
ROOT
HETATM    1  C   UNL     1     -45.221  63.760 -47.972  1.00  0.00     0.069 A 
HETATM    2  C   UNL     1     -45.479  62.497 -48.520  1.00  0.00     0.051 A 
HETATM    3  C   UNL     1     -44.642  61.987 -49.531  1.00  0.00     0.002 A 
HETATM    4  C   UNL     1     -43.584  62.775 -49.988  1.00  0.00     0.043 A 
HETATM    5  N   UNL     1     -42.917  62.050 -50.952  1.00  0.00    -0.356 N 
HETATM    6  H   UNL     1     -42.082  62.366 -51.428  1.00  0.00     0.166 HD
HETATM    7  C   UNL     1     -43.477  60.804 -51.072  1.00  0.00     0.045 A 
HETATM    8  C   UNL     1     -44.574  60.760 -50.238  1.00  0.00    -0.019 A 
HETATM    9  C   UNL     1     -45.403  59.537 -50.138  1.00  0.00     0.061 C 
HETATM   10  C   UNL     1     -45.195  58.686 -51.398  1.00  0.00     0.133 C 
HETATM   11  N   UNL     1     -43.773  58.458 -51.747  1.00  0.00    -0.320 N 
HETATM   12  C   UNL     1     -43.589  57.332 -52.561  1.00  0.00     0.319 C 
HETATM   13  N   UNL     1     -42.284  56.979 -52.769  1.00  0.00    -0.338 N 
HETATM   14  O   UNL     1     -44.527  56.675 -53.007  1.00  0.00    -0.247 OA
HETATM   15  C   UNL     1     -42.926  59.682 -51.923  1.00  0.00     0.172 C 
HETATM   16  C   UNL     1     -43.328  64.052 -49.478  1.00  0.00     0.033 A 
HETATM   17  C   UNL     1     -44.162  64.529 -48.458  1.00  0.00     0.039 A 
HETATM   18  H   UNL     1     -41.692  57.220 -51.990  1.00  0.00     0.164 HD
ENDROOT
BRANCH  15  19
HETATM   19  C   UNL     1     -41.450  59.489 -51.576  1.00  0.00    -0.029 A 
HETATM   20  C   UNL     1     -40.504  59.294 -52.601  1.00  0.00     0.012 A 
HETATM   21  C   UNL     1     -39.154  59.126 -52.292  1.00  0.00     0.043 A 
HETATM   22  C   UNL     1     -38.744  59.157 -50.965  1.00  0.00     0.116 A 
HETATM   23  F   UNL     1     -37.446  58.997 -50.673  1.00  0.00    -0.206 F 
HETATM   24  C   UNL     1     -39.657  59.353 -49.937  1.00  0.00     0.043 A 
HETATM   25  C   UNL     1     -41.008  59.520 -50.240  1.00  0.00     0.012 A 
ENDBRANCH  15  19
BRANCH  13  26
HETATM   26  C   UNL     1     -41.860  55.771 -53.451  1.00  0.00     0.086 C 
HETATM   27  C   UNL     1     -40.632  55.937 -54.340  1.00  0.00     0.025 C 
HETATM   28  C   UNL     1     -40.270  54.500 -54.680  1.00  0.00     0.002 C 
HETATM   29  C   UNL     1     -40.609  53.693 -53.426  1.00  0.00     0.002 C 
HETATM   30  C   UNL     1     -41.515  54.577 -52.565  1.00  0.00     0.025 C 
ENDBRANCH  13  26
BRANCH   1  31
HETATM   31  O   UNL     1     -46.080  64.131 -46.973  1.00  0.00    -0.356 OA
HETATM   32  C   UNL     1     -47.008  63.146 -46.538  1.00  0.00     0.210 C 
ENDBRANCH   1  31
TORSDOF 3
ENDMDL
MODEL 8
REMARK VINA RESULT:      -7.4      5.700      7.467
REMARK  3 active torsions:
REMARK  status: ('A' for Active; 'I' for Inactive)
REMARK    1  A    between atoms: O_2  and  C_3 
REMARK       I    between atoms: N_13  and  C_14 
REMARK       I    between atoms: C_14  and  N_15 
REMARK    2  A    between atoms: N_15  and  C_16 
REMARK    3  A    between atoms: C_22  and  C_23 
ROOT
HETATM    1  C   UNL     1     -42.620  55.089 -52.592  1.00  0.00     0.069 A 
HETATM    2  C   UNL     1     -42.534  56.353 -53.191  1.00  0.00     0.051 A 
HETATM    3  C   UNL     1     -42.456  56.461 -54.593  1.00  0.00     0.002 A 
HETATM    4  C   UNL     1     -42.433  55.292 -55.356  1.00  0.00     0.043 A 
HETATM    5  N   UNL     1     -42.371  55.667 -56.681  1.00  0.00    -0.356 N 
HETATM    6  H   UNL     1     -42.380  55.020 -57.458  1.00  0.00     0.166 HD
HETATM    7  C   UNL     1     -42.421  57.034 -56.784  1.00  0.00     0.045 A 
HETATM    8  C   UNL     1     -42.426  57.546 -55.504  1.00  0.00    -0.019 A 
HETATM    9  C   UNL     1     -42.476  59.008 -55.272  1.00  0.00     0.061 C 
HETATM   10  C   UNL     1     -41.981  59.733 -56.530  1.00  0.00     0.133 C 
HETATM   11  N   UNL     1     -42.619  59.270 -57.786  1.00  0.00    -0.320 N 
HETATM   12  C   UNL     1     -42.539  60.219 -58.815  1.00  0.00     0.319 C 
HETATM   13  N   UNL     1     -43.259  59.912 -59.937  1.00  0.00    -0.338 N 
HETATM   14  O   UNL     1     -41.919  61.272 -58.699  1.00  0.00    -0.247 OA
HETATM   15  C   UNL     1     -42.522  57.804 -58.081  1.00  0.00     0.172 C 
HETATM   16  C   UNL     1     -42.485  54.020 -54.778  1.00  0.00     0.033 A 
HETATM   17  C   UNL     1     -42.583  53.939 -53.382  1.00  0.00     0.039 A 
HETATM   18  H   UNL     1     -44.081  59.368 -59.729  1.00  0.00     0.164 HD
ENDROOT
BRANCH  15  19
HETATM   19  C   UNL     1     -43.689  57.240 -58.892  1.00  0.00    -0.029 A 
HETATM   20  C   UNL     1     -45.013  57.559 -58.536  1.00  0.00     0.012 A 
HETATM   21  C   UNL     1     -46.083  57.055 -59.278  1.00  0.00     0.043 A 
HETATM   22  C   UNL     1     -45.835  56.239 -60.375  1.00  0.00     0.116 A 
HETATM   23  F   UNL     1     -46.865  55.759 -61.084  1.00  0.00    -0.206 F 
HETATM   24  C   UNL     1     -44.537  55.915 -60.748  1.00  0.00     0.043 A 
HETATM   25  C   UNL     1     -43.464  56.414 -60.009  1.00  0.00     0.012 A 
ENDBRANCH  15  19
BRANCH  13  26
HETATM   26  C   UNL     1     -43.444  60.809 -61.062  1.00  0.00     0.086 C 
HETATM   27  C   UNL     1     -42.360  60.720 -62.133  1.00  0.00     0.025 C 
HETATM   28  C   UNL     1     -42.952  61.534 -63.273  1.00  0.00     0.002 C 
HETATM   29  C   UNL     1     -44.457  61.268 -63.218  1.00  0.00     0.002 C 
HETATM   30  C   UNL     1     -44.747  60.661 -61.843  1.00  0.00     0.025 C 
ENDBRANCH  13  26
BRANCH   1  31
HETATM   31  O   UNL     1     -42.729  55.114 -51.227  1.00  0.00    -0.356 OA
HETATM   32  C   UNL     1     -42.034  56.157 -50.557  1.00  0.00     0.210 C 
ENDBRANCH   1  31
TORSDOF 3
ENDMDL
MODEL 9
REMARK VINA RESULT:      -7.4     16.261     19.322
REMARK  3 active torsions:
REMARK  status: ('A' for Active; 'I' for Inactive)
REMARK    1  A    between atoms: O_2  and  C_3 
REMARK       I    between atoms: N_13  and  C_14 
REMARK       I    between atoms: C_14  and  N_15 
REMARK    2  A    between atoms: N_15  and  C_16 
REMARK    3  A    between atoms: C_22  and  C_23 
ROOT
HETATM    1  C   UNL     1     -36.485  41.497 -57.473  1.00  0.00     0.069 A 
HETATM    2  C   UNL     1     -35.340  41.147 -56.746  1.00  0.00     0.051 A 
HETATM    3  C   UNL     1     -35.376  41.149 -55.338  1.00  0.00     0.002 A 
HETATM    4  C   UNL     1     -36.554  41.534 -54.697  1.00  0.00     0.043 A 
HETATM    5  N   UNL     1     -36.336  41.434 -53.339  1.00  0.00    -0.356 N 
HETATM    6  H   UNL     1     -37.037  41.617 -52.634  1.00  0.00     0.166 HD
HETATM    7  C   UNL     1     -35.081  40.935 -53.102  1.00  0.00     0.045 A 
HETATM    8  C   UNL     1     -34.452  40.797 -54.322  1.00  0.00    -0.019 A 
HETATM    9  C   UNL     1     -33.069  40.276 -54.407  1.00  0.00     0.061 C 
HETATM   10  C   UNL     1     -32.374  40.472 -53.053  1.00  0.00     0.133 C 
HETATM   11  N   UNL     1     -33.161  39.988 -51.893  1.00  0.00    -0.320 N 
HETATM   12  C   UNL     1     -32.364  39.725 -50.771  1.00  0.00     0.319 C 
HETATM   13  N   UNL     1     -33.014  39.116 -49.733  1.00  0.00    -0.338 N 
HETATM   14  O   UNL     1     -31.160  39.968 -50.740  1.00  0.00    -0.247 OA
HETATM   15  C   UNL     1     -34.541  40.553 -51.743  1.00  0.00     0.172 C 
HETATM   16  C   UNL     1     -37.699  41.917 -55.403  1.00  0.00     0.033 A 
HETATM   17  C   UNL     1     -37.645  41.888 -56.803  1.00  0.00     0.039 A 
HETATM   18  H   UNL     1     -33.767  38.524 -50.046  1.00  0.00     0.164 HD
ENDROOT
BRANCH  15  19
HETATM   19  C   UNL     1     -35.541  39.614 -51.069  1.00  0.00    -0.029 A 
HETATM   20  C   UNL     1     -36.235  40.033 -49.917  1.00  0.00     0.012 A 
HETATM   21  C   UNL     1     -37.156  39.184 -49.302  1.00  0.00     0.043 A 
HETATM   22  C   UNL     1     -37.391  37.922 -49.834  1.00  0.00     0.116 A 
HETATM   23  F   UNL     1     -38.278  37.112 -49.241  1.00  0.00    -0.206 F 
HETATM   24  C   UNL     1     -36.723  37.489 -50.972  1.00  0.00     0.043 A 
HETATM   25  C   UNL     1     -35.799  38.333 -51.590  1.00  0.00     0.012 A 
ENDBRANCH  15  19
BRANCH  13  26
HETATM   26  C   UNL     1     -32.363  38.618 -48.537  1.00  0.00     0.086 C 
HETATM   27  C   UNL     1     -31.548  39.658 -47.774  1.00  0.00     0.025 C 
HETATM   28  C   UNL     1     -31.235  38.942 -46.468  1.00  0.00     0.002 C 
HETATM   29  C   UNL     1     -32.468  38.089 -46.172  1.00  0.00     0.002 C 
HETATM   30  C   UNL     1     -33.270  38.006 -47.473  1.00  0.00     0.025 C 
ENDBRANCH  13  26
BRANCH   1  31
HETATM   31  O   UNL     1     -36.338  41.422 -58.833  1.00  0.00    -0.356 OA
HETATM   32  C   UNL     1     -37.235  42.206 -59.609  1.00  0.00     0.210 C 
ENDBRANCH   1  31
TORSDOF 3
ENDMDL
MODEL 10
REMARK VINA RESULT:      -7.3      3.036      8.128
REMARK  3 active torsions:
REMARK  status: ('A' for Active; 'I' for Inactive)
REMARK    1  A    between atoms: O_2  and  C_3 
REMARK       I    between atoms: N_13  and  C_14 
REMARK       I    between atoms: C_14  and  N_15 
REMARK    2  A    between atoms: N_15  and  C_16 
REMARK    3  A    between atoms: C_22  and  C_23 
ROOT
HETATM    1  C   UNL     1     -46.311  62.271 -49.662  1.00  0.00     0.069 A 
HETATM    2  C   UNL     1     -46.194  61.501 -50.826  1.00  0.00     0.051 A 
HETATM    3  C   UNL     1     -45.043  60.717 -51.037  1.00  0.00     0.002 A 
HETATM    4  C   UNL     1     -44.023  60.754 -50.085  1.00  0.00     0.043 A 
HETATM    5  N   UNL     1     -43.030  59.899 -50.512  1.00  0.00    -0.356 N 
HETATM    6  H   UNL     1     -42.184  59.701 -49.993  1.00  0.00     0.166 HD
HETATM    7  C   UNL     1     -43.417  59.272 -51.669  1.00  0.00     0.045 A 
HETATM    8  C   UNL     1     -44.637  59.798 -52.037  1.00  0.00    -0.019 A 
HETATM    9  C   UNL     1     -45.331  59.325 -53.257  1.00  0.00     0.061 C 
HETATM   10  C   UNL     1     -44.304  58.685 -54.201  1.00  0.00     0.133 C 
HETATM   11  N   UNL     1     -43.421  57.689 -53.549  1.00  0.00    -0.320 N 
HETATM   12  C   UNL     1     -42.851  56.792 -54.463  1.00  0.00     0.319 C 
HETATM   13  N   UNL     1     -42.167  55.751 -53.897  1.00  0.00    -0.338 N 
HETATM   14  O   UNL     1     -43.000  56.897 -55.678  1.00  0.00    -0.247 OA
HETATM   15  C   UNL     1     -42.653  58.161 -52.352  1.00  0.00     0.172 C 
HETATM   16  C   UNL     1     -44.104  61.541 -48.931  1.00  0.00     0.033 A 
HETATM   17  C   UNL     1     -45.268  62.296 -48.734  1.00  0.00     0.039 A 
HETATM   18  H   UNL     1     -42.544  55.485 -53.001  1.00  0.00     0.164 HD
ENDROOT
BRANCH  15  19
HETATM   19  C   UNL     1     -42.350  57.074 -51.321  1.00  0.00    -0.029 A 
HETATM   20  C   UNL     1     -43.353  56.161 -50.944  1.00  0.00     0.012 A 
HETATM   21  C   UNL     1     -43.081  55.160 -50.010  1.00  0.00     0.043 A 
HETATM   22  C   UNL     1     -41.809  55.064 -49.456  1.00  0.00     0.116 A 
HETATM   23  F   UNL     1     -41.552  54.101 -48.562  1.00  0.00    -0.206 F 
HETATM   24  C   UNL     1     -40.802  55.950 -49.817  1.00  0.00     0.043 A 
HETATM   25  C   UNL     1     -41.070  56.954 -50.748  1.00  0.00     0.012 A 
ENDBRANCH  15  19
BRANCH  13  26
HETATM   26  C   UNL     1     -41.625  54.628 -54.638  1.00  0.00     0.086 C 
HETATM   27  C   UNL     1     -40.132  54.723 -54.939  1.00  0.00     0.025 C 
HETATM   28  C   UNL     1     -39.806  53.328 -55.450  1.00  0.00     0.002 C 
HETATM   29  C   UNL     1     -40.699  52.386 -54.643  1.00  0.00     0.002 C 
HETATM   30  C   UNL     1     -41.785  53.251 -53.998  1.00  0.00     0.025 C 
ENDBRANCH  13  26
BRANCH   1  31
HETATM   31  O   UNL     1     -47.489  62.960 -49.553  1.00  0.00    -0.356 OA
HETATM   32  C   UNL     1     -47.467  64.127 -48.742  1.00  0.00     0.210 C 
ENDBRANCH   1  31
TORSDOF 3
ENDMDL
