MODEL 1
REMARK VINA RESULT:      -8.0      0.000      0.000
REMARK  4 active torsions:
REMARK  status: ('A' for Active; 'I' for Inactive)
REMARK    1  A    between atoms: C_7  and  C_8 
REMARK    2  A    between atoms: C_8  and  N_9 
REMARK    3  A    between atoms: N_15  and  C_17 
REMARK    4  A    between atoms: C_21  and  C_22 
ROOT
HETATM    1  N   UNL     1     -43.828  60.000 -51.863  1.00  0.00    -0.067 N 
HETATM    2  H   UNL     1     -44.316  60.885 -52.064  1.00  0.00     0.280 HD
HETATM    3  C   UNL     1     -42.791  59.856 -52.941  1.00  0.00     0.236 C 
HETATM    4  C   UNL     1     -42.152  58.466 -52.912  1.00  0.00     0.039 C 
HETATM    5  C   UNL     1     -43.173  57.296 -52.973  1.00  0.00    -0.013 C 
HETATM    6  C   UNL     1     -43.852  57.169 -54.365  1.00  0.00     0.245 C 
HETATM    7  N   UNL     1     -42.869  56.735 -55.426  1.00  0.00    -0.065 N 
HETATM    8  H   UNL     1     -42.090  57.403 -55.501  1.00  0.00     0.280 HD
HETATM    9  C   UNL     1     -42.248  55.379 -55.116  1.00  0.00     0.244 C 
HETATM   10  C   UNL     1     -41.525  55.451 -53.764  1.00  0.00     0.045 C 
HETATM   11  C   UNL     1     -42.470  55.945 -52.651  1.00  0.00     0.022 C 
HETATM   12  C   UNL     1     -44.245  57.544 -51.871  1.00  0.00     0.039 C 
HETATM   13  C   UNL     1     -44.879  58.933 -51.895  1.00  0.00     0.236 C 
ENDROOT
BRANCH   7  14
HETATM   14  C   UNL     1     -43.515  56.702 -56.784  1.00  0.00     0.188 A 
HETATM   15  C   UNL     1     -42.779  57.391 -57.899  1.00  0.00     0.035 A 
HETATM   16  C   UNL     1     -42.824  55.890 -57.842  1.00  0.00     0.035 A 
ENDBRANCH   7  14
BRANCH  10  17
HETATM   17  C   UNL     1     -40.899  54.114 -53.422  1.00  0.00    -0.052 A 
HETATM   18  C   UNL     1     -40.644  53.790 -52.080  1.00  0.00     0.007 A 
HETATM   19  C   UNL     1     -40.045  52.574 -51.742  1.00  0.00     0.001 A 
HETATM   20  C   UNL     1     -39.693  51.668 -52.737  1.00  0.00     0.000 A 
HETATM   21  C   UNL     1     -39.944  51.972 -54.072  1.00  0.00     0.001 A 
HETATM   22  C   UNL     1     -40.543  53.185 -54.414  1.00  0.00     0.007 A 
ENDBRANCH  10  17
BRANCH   1  23
HETATM   23  C   UNL     1     -43.267  60.270 -50.466  1.00  0.00     0.277 C 
BRANCH  23  24
HETATM   24  C   UNL     1     -44.102  61.241 -49.717  1.00  0.00     0.011 A 
HETATM   25  C   UNL     1     -43.928  62.651 -49.634  1.00  0.00     0.060 A 
HETATM   26  C   UNL     1     -42.850  63.497 -50.212  1.00  0.00     0.073 C 
HETATM   27  N   UNL     1     -44.923  63.225 -48.957  1.00  0.00    -0.178 NA
HETATM   28  N   UNL     1     -45.663  62.208 -48.499  1.00  0.00    -0.284 N 
HETATM   29  C   UNL     1     -46.812  62.465 -47.662  1.00  0.00     0.179 C 
HETATM   30  C   UNL     1     -45.230  60.992 -48.953  1.00  0.00     0.122 A 
ENDBRANCH  23  24
ENDBRANCH   1  23
TORSDOF 4
ENDMDL
MODEL 2
REMARK VINA RESULT:      -7.8      3.226      7.387
REMARK  4 active torsions:
REMARK  status: ('A' for Active; 'I' for Inactive)
REMARK    1  A    between atoms: C_7  and  C_8 
REMARK    2  A    between atoms: C_8  and  N_9 
REMARK    3  A    between atoms: N_15  and  C_17 
REMARK    4  A    between atoms: C_21  and  C_22 
ROOT
HETATM    1  N   UNL     1     -43.608  58.320 -57.768  1.00  0.00    -0.067 N 
HETATM    2  H   UNL     1     -44.158  59.145 -58.049  1.00  0.00     0.280 HD
HETATM    3  C   UNL     1     -44.488  57.550 -56.824  1.00  0.00     0.236 C 
HETATM    4  C   UNL     1     -43.710  56.426 -56.135  1.00  0.00     0.039 C 
HETATM    5  C   UNL     1     -42.416  56.898 -55.415  1.00  0.00    -0.013 C 
HETATM    6  C   UNL     1     -42.714  57.739 -54.143  1.00  0.00     0.245 C 
HETATM    7  N   UNL     1     -43.345  56.900 -53.057  1.00  0.00    -0.065 N 
HETATM    8  H   UNL     1     -44.224  56.476 -53.383  1.00  0.00     0.280 HD
HETATM    9  C   UNL     1     -42.445  55.749 -52.622  1.00  0.00     0.244 C 
HETATM   10  C   UNL     1     -42.145  54.856 -53.834  1.00  0.00     0.045 C 
HETATM   11  C   UNL     1     -41.551  55.674 -54.997  1.00  0.00     0.022 C 
HETATM   12  C   UNL     1     -41.587  57.737 -56.433  1.00  0.00     0.039 C 
HETATM   13  C   UNL     1     -42.364  58.854 -57.126  1.00  0.00     0.236 C 
ENDROOT
BRANCH   7  14
HETATM   14  C   UNL     1     -43.710  57.740 -51.864  1.00  0.00     0.188 A 
HETATM   15  C   UNL     1     -45.149  58.162 -51.751  1.00  0.00     0.035 A 
HETATM   16  C   UNL     1     -44.602  57.103 -50.836  1.00  0.00     0.035 A 
ENDBRANCH   7  14
BRANCH  10  17
HETATM   17  C   UNL     1     -41.246  53.702 -53.436  1.00  0.00    -0.052 A 
HETATM   18  C   UNL     1     -40.780  53.609 -52.115  1.00  0.00     0.007 A 
HETATM   19  C   UNL     1     -39.931  52.569 -51.731  1.00  0.00     0.001 A 
HETATM   20  C   UNL     1     -39.535  51.611 -52.659  1.00  0.00     0.000 A 
HETATM   21  C   UNL     1     -39.992  51.687 -53.971  1.00  0.00     0.001 A 
HETATM   22  C   UNL     1     -40.842  52.724 -54.359  1.00  0.00     0.007 A 
ENDBRANCH  10  17
BRANCH   1  23
HETATM   23  C   UNL     1     -43.363  57.640 -59.116  1.00  0.00     0.277 C 
BRANCH  23  24
HETATM   24  C   UNL     1     -44.631  57.193 -59.743  1.00  0.00     0.011 A 
HETATM   25  C   UNL     1     -45.081  55.856 -59.931  1.00  0.00     0.060 A 
HETATM   26  C   UNL     1     -44.385  54.581 -59.613  1.00  0.00     0.073 C 
HETATM   27  N   UNL     1     -46.314  55.824 -60.437  1.00  0.00    -0.178 NA
HETATM   28  N   UNL     1     -46.617  57.103 -60.692  1.00  0.00    -0.284 N 
HETATM   29  C   UNL     1     -47.879  57.440 -61.309  1.00  0.00     0.179 C 
HETATM   30  C   UNL     1     -45.650  57.971 -60.265  1.00  0.00     0.122 A 
ENDBRANCH  23  24
ENDBRANCH   1  23
TORSDOF 4
ENDMDL
MODEL 3
REMARK VINA RESULT:      -7.7      1.434      2.003
REMARK  4 active torsions:
REMARK  status: ('A' for Active; 'I' for Inactive)
REMARK    1  A    between atoms: C_7  and  C_8 
REMARK    2  A    between atoms: C_8  and  N_9 
REMARK    3  A    between atoms: N_15  and  C_17 
REMARK    4  A    between atoms: C_21  and  C_22 
ROOT
HETATM    1  N   UNL     1     -44.925  60.559 -51.094  1.00  0.00    -0.067 N 
HETATM    2  H   UNL     1     -45.477  61.374 -51.399  1.00  0.00     0.280 HD
HETATM    3  C   UNL     1     -43.766  60.476 -52.047  1.00  0.00     0.236 C 
HETATM    4  C   UNL     1     -42.994  59.166 -51.865  1.00  0.00     0.039 C 
HETATM    5  C   UNL     1     -43.875  57.891 -51.963  1.00  0.00    -0.013 C 
HETATM    6  C   UNL     1     -44.379  57.622 -53.408  1.00  0.00     0.245 C 
HETATM    7  N   UNL     1     -43.245  57.246 -54.331  1.00  0.00    -0.065 N 
HETATM    8  H   UNL     1     -42.535  57.990 -54.364  1.00  0.00     0.280 HD
HETATM    9  C   UNL     1     -42.525  55.982 -53.875  1.00  0.00     0.244 C 
HETATM   10  C   UNL     1     -41.968  56.199 -52.461  1.00  0.00     0.045 C 
HETATM   11  C   UNL     1     -43.077  56.642 -51.487  1.00  0.00     0.022 C 
HETATM   12  C   UNL     1     -45.083  58.074 -50.997  1.00  0.00     0.039 C 
HETATM   13  C   UNL     1     -45.850  59.383 -51.172  1.00  0.00     0.236 C 
ENDROOT
BRANCH   7  14
HETATM   14  C   UNL     1     -43.728  57.075 -55.745  1.00  0.00     0.188 A 
HETATM   15  C   UNL     1     -42.971  57.815 -56.812  1.00  0.00     0.035 A 
HETATM   16  C   UNL     1     -42.826  56.325 -56.683  1.00  0.00     0.035 A 
ENDBRANCH   7  14
BRANCH  10  17
HETATM   17  C   UNL     1     -41.250  54.957 -51.974  1.00  0.00    -0.052 A 
HETATM   18  C   UNL     1     -40.858  54.864 -50.629  1.00  0.00     0.007 A 
HETATM   19  C   UNL     1     -40.173  53.740 -50.163  1.00  0.00     0.001 A 
HETATM   20  C   UNL     1     -39.869  52.696 -51.031  1.00  0.00     0.000 A 
HETATM   21  C   UNL     1     -40.255  52.771 -52.366  1.00  0.00     0.001 A 
HETATM   22  C   UNL     1     -40.941  53.892 -52.837  1.00  0.00     0.007 A 
ENDBRANCH  10  17
BRANCH   1  23
HETATM   23  C   UNL     1     -44.554  60.957 -49.665  1.00  0.00     0.277 C 
BRANCH  23  24
HETATM   24  C   UNL     1     -45.672  61.651 -48.981  1.00  0.00     0.011 A 
HETATM   25  C   UNL     1     -46.059  61.536 -47.616  1.00  0.00     0.060 A 
HETATM   26  C   UNL     1     -45.496  60.660 -46.554  1.00  0.00     0.073 C 
HETATM   27  N   UNL     1     -47.046  62.380 -47.317  1.00  0.00    -0.178 NA
HETATM   28  N   UNL     1     -47.384  62.946 -48.482  1.00  0.00    -0.284 N 
HETATM   29  C   UNL     1     -48.476  63.889 -48.542  1.00  0.00     0.179 C 
HETATM   30  C   UNL     1     -46.568  62.564 -49.512  1.00  0.00     0.122 A 
ENDBRANCH  23  24
ENDBRANCH   1  23
TORSDOF 4
ENDMDL
MODEL 4
REMARK VINA RESULT:      -7.7      3.167      7.068
REMARK  4 active torsions:
REMARK  status: ('A' for Active; 'I' for Inactive)
REMARK    1  A    between atoms: C_7  and  C_8 
REMARK    2  A    between atoms: C_8  and  N_9 
REMARK    3  A    between atoms: N_15  and  C_17 
REMARK    4  A    between atoms: C_21  and  C_22 
ROOT
HETATM    1  N   UNL     1     -44.549  58.489 -57.160  1.00  0.00    -0.067 N 
HETATM    2  H   UNL     1     -44.999  59.392 -57.370  1.00  0.00     0.280 HD
HETATM    3  C   UNL     1     -44.867  58.204 -55.719  1.00  0.00     0.236 C 
HETATM    4  C   UNL     1     -44.058  57.013 -55.199  1.00  0.00     0.039 C 
HETATM    5  C   UNL     1     -42.524  57.148 -55.406  1.00  0.00    -0.013 C 
HETATM    6  C   UNL     1     -41.891  58.230 -54.487  1.00  0.00     0.245 C 
HETATM    7  N   UNL     1     -41.940  57.823 -53.034  1.00  0.00    -0.065 N 
HETATM    8  H   UNL     1     -42.909  57.661 -52.729  1.00  0.00     0.280 HD
HETATM    9  C   UNL     1     -41.182  56.528 -52.772  1.00  0.00     0.244 C 
HETATM   10  C   UNL     1     -41.788  55.405 -53.626  1.00  0.00     0.045 C 
HETATM   11  C   UNL     1     -41.816  55.792 -55.118  1.00  0.00     0.022 C 
HETATM   12  C   UNL     1     -42.276  57.501 -56.903  1.00  0.00     0.039 C 
HETATM   13  C   UNL     1     -43.088  58.685 -57.424  1.00  0.00     0.236 C 
ENDROOT
BRANCH   7  14
HETATM   14  C   UNL     1     -41.407  58.914 -52.146  1.00  0.00     0.188 A 
HETATM   15  C   UNL     1     -42.316  59.399 -51.052  1.00  0.00     0.035 A 
HETATM   16  C   UNL     1     -41.126  58.546 -50.717  1.00  0.00     0.035 A 
ENDBRANCH   7  14
BRANCH  10  17
HETATM   17  C   UNL     1     -41.052  54.101 -53.394  1.00  0.00    -0.052 A 
HETATM   18  C   UNL     1     -40.822  53.232 -54.472  1.00  0.00     0.007 A 
HETATM   19  C   UNL     1     -40.168  52.014 -54.278  1.00  0.00     0.001 A 
HETATM   20  C   UNL     1     -39.737  51.646 -53.007  1.00  0.00     0.000 A 
HETATM   21  C   UNL     1     -39.953  52.498 -51.929  1.00  0.00     0.001 A 
HETATM   22  C   UNL     1     -40.605  53.718 -52.118  1.00  0.00     0.007 A 
ENDBRANCH  10  17
BRANCH   1  23
HETATM   23  C   UNL     1     -45.238  57.562 -58.163  1.00  0.00     0.277 C 
BRANCH  23  24
HETATM   24  C   UNL     1     -46.095  58.318 -59.110  1.00  0.00     0.011 A 
HETATM   25  C   UNL     1     -46.938  57.790 -60.127  1.00  0.00     0.060 A 
HETATM   26  C   UNL     1     -47.129  56.376 -60.544  1.00  0.00     0.073 C 
HETATM   27  N   UNL     1     -47.641  58.753 -60.724  1.00  0.00    -0.178 NA
HETATM   28  N   UNL     1     -47.181  59.895 -60.199  1.00  0.00    -0.284 N 
HETATM   29  C   UNL     1     -47.690  61.165 -60.664  1.00  0.00     0.179 C 
HETATM   30  C   UNL     1     -46.269  59.689 -59.200  1.00  0.00     0.122 A 
ENDBRANCH  23  24
ENDBRANCH   1  23
TORSDOF 4
ENDMDL
MODEL 5
REMARK VINA RESULT:      -7.7      4.341      6.774
REMARK  4 active torsions:
REMARK  status: ('A' for Active; 'I' for Inactive)
REMARK    1  A    between atoms: C_7  and  C_8 
REMARK    2  A    between atoms: C_8  and  N_9 
REMARK    3  A    between atoms: N_15  and  C_17 
REMARK    4  A    between atoms: C_21  and  C_22 
ROOT
HETATM    1  N   UNL     1     -43.594  57.461 -55.270  1.00  0.00    -0.067 N 
HETATM    2  H   UNL     1     -44.009  58.396 -55.147  1.00  0.00     0.280 HD
HETATM    3  C   UNL     1     -44.034  56.664 -54.074  1.00  0.00     0.236 C 
HETATM    4  C   UNL     1     -43.291  55.327 -53.997  1.00  0.00     0.039 C 
HETATM    5  C   UNL     1     -41.743  55.458 -54.030  1.00  0.00    -0.013 C 
HETATM    6  C   UNL     1     -41.169  56.076 -52.725  1.00  0.00     0.245 C 
HETATM    7  N   UNL     1     -41.344  55.148 -51.546  1.00  0.00    -0.065 N 
HETATM    8  H   UNL     1     -42.337  54.928 -51.395  1.00  0.00     0.280 HD
HETATM    9  C   UNL     1     -40.633  53.816 -51.751  1.00  0.00     0.244 C 
HETATM   10  C   UNL     1     -41.187  53.135 -53.010  1.00  0.00     0.045 C 
HETATM   11  C   UNL     1     -41.086  54.062 -54.236  1.00  0.00     0.022 C 
HETATM   12  C   UNL     1     -41.368  56.342 -55.256  1.00  0.00     0.039 C 
HETATM   13  C   UNL     1     -42.112  57.673 -55.337  1.00  0.00     0.236 C 
ENDROOT
BRANCH   7  14
HETATM   14  C   UNL     1     -40.866  55.791 -50.273  1.00  0.00     0.188 A 
HETATM   15  C   UNL     1     -41.441  55.258 -48.990  1.00  0.00     0.035 A 
HETATM   16  C   UNL     1     -40.020  54.945 -49.364  1.00  0.00     0.035 A 
ENDBRANCH   7  14
BRANCH  10  17
HETATM   17  C   UNL     1     -40.496  51.807 -53.246  1.00  0.00    -0.052 A 
HETATM   18  C   UNL     1     -40.488  51.248 -54.534  1.00  0.00     0.007 A 
HETATM   19  C   UNL     1     -39.879  50.014 -54.771  1.00  0.00     0.001 A 
HETATM   20  C   UNL     1     -39.272  49.322 -53.727  1.00  0.00     0.000 A 
HETATM   21  C   UNL     1     -39.268  49.864 -52.446  1.00  0.00     0.001 A 
HETATM   22  C   UNL     1     -39.874  51.098 -52.205  1.00  0.00     0.007 A 
ENDBRANCH  10  17
BRANCH   1  23
HETATM   23  C   UNL     1     -44.214  57.021 -56.597  1.00  0.00     0.277 C 
BRANCH  23  24
HETATM   24  C   UNL     1     -43.917  57.983 -57.687  1.00  0.00     0.011 A 
HETATM   25  C   UNL     1     -43.276  57.715 -58.929  1.00  0.00     0.060 A 
HETATM   26  C   UNL     1     -42.690  56.441 -59.424  1.00  0.00     0.073 C 
HETATM   27  N   UNL     1     -43.263  58.794 -59.712  1.00  0.00    -0.178 NA
HETATM   28  N   UNL     1     -43.769  59.777 -58.958  1.00  0.00    -0.284 N 
HETATM   29  C   UNL     1     -43.854  61.122 -59.478  1.00  0.00     0.179 C 
HETATM   30  C   UNL     1     -44.207  59.336 -57.738  1.00  0.00     0.122 A 
ENDBRANCH  23  24
ENDBRANCH   1  23
TORSDOF 4
ENDMDL
MODEL 6
REMARK VINA RESULT:      -7.6      1.200      4.306
REMARK  4 active torsions:
REMARK  status: ('A' for Active; 'I' for Inactive)
REMARK    1  A    between atoms: C_7  and  C_8 
REMARK    2  A    between atoms: C_8  and  N_9 
REMARK    3  A    between atoms: N_15  and  C_17 
REMARK    4  A    between atoms: C_21  and  C_22 
ROOT
HETATM    1  N   UNL     1     -43.552  58.965 -50.914  1.00  0.00    -0.067 N 
HETATM    2  H   UNL     1     -43.509  58.891 -49.887  1.00  0.00     0.280 HD
HETATM    3  C   UNL     1     -43.979  57.608 -51.398  1.00  0.00     0.236 C 
HETATM    4  C   UNL     1     -43.850  57.498 -52.919  1.00  0.00     0.039 C 
HETATM    5  C   UNL     1     -42.440  57.856 -53.465  1.00  0.00    -0.013 C 
HETATM    6  C   UNL     1     -41.371  56.789 -53.100  1.00  0.00     0.245 C 
HETATM    7  N   UNL     1     -41.621  55.483 -53.816  1.00  0.00    -0.065 N 
HETATM    8  H   UNL     1     -42.551  55.108 -53.584  1.00  0.00     0.280 HD
HETATM    9  C   UNL     1     -41.586  55.641 -55.331  1.00  0.00     0.244 C 
HETATM   10  C   UNL     1     -42.651  56.658 -55.760  1.00  0.00     0.045 C 
HETATM   11  C   UNL     1     -42.477  57.996 -55.015  1.00  0.00     0.022 C 
HETATM   12  C   UNL     1     -42.041  59.241 -52.875  1.00  0.00     0.039 C 
HETATM   13  C   UNL     1     -42.176  59.355 -51.358  1.00  0.00     0.236 C 
ENDROOT
BRANCH   7  14
HETATM   14  C   UNL     1     -40.635  54.431 -53.390  1.00  0.00     0.188 A 
HETATM   15  C   UNL     1     -41.199  53.203 -52.732  1.00  0.00     0.035 A 
HETATM   16  C   UNL     1     -40.671  53.128 -54.136  1.00  0.00     0.035 A 
ENDBRANCH   7  14
BRANCH  10  17
HETATM   17  C   UNL     1     -42.639  56.843 -57.264  1.00  0.00    -0.052 A 
HETATM   18  C   UNL     1     -43.045  55.788 -58.096  1.00  0.00     0.007 A 
HETATM   19  C   UNL     1     -43.018  55.925 -59.486  1.00  0.00     0.001 A 
HETATM   20  C   UNL     1     -42.586  57.116 -60.062  1.00  0.00     0.000 A 
HETATM   21  C   UNL     1     -42.185  58.173 -59.251  1.00  0.00     0.001 A 
HETATM   22  C   UNL     1     -42.211  58.040 -57.862  1.00  0.00     0.007 A 
ENDBRANCH  10  17
BRANCH   1  23
HETATM   23  C   UNL     1     -44.595  60.069 -51.099  1.00  0.00     0.277 C 
BRANCH  23  24
HETATM   24  C   UNL     1     -44.696  60.934 -49.897  1.00  0.00     0.011 A 
HETATM   25  C   UNL     1     -44.032  62.170 -49.661  1.00  0.00     0.060 A 
HETATM   26  C   UNL     1     -43.035  62.874 -50.510  1.00  0.00     0.073 C 
HETATM   27  N   UNL     1     -44.433  62.728 -48.519  1.00  0.00    -0.178 NA
HETATM   28  N   UNL     1     -45.245  61.823 -47.958  1.00  0.00    -0.284 N 
HETATM   29  C   UNL     1     -45.827  62.075 -46.660  1.00  0.00     0.179 C 
HETATM   30  C   UNL     1     -45.461  60.736 -48.761  1.00  0.00     0.122 A 
ENDBRANCH  23  24
ENDBRANCH   1  23
TORSDOF 4
ENDMDL
MODEL 7
REMARK VINA RESULT:      -7.6      3.270      6.928
REMARK  4 active torsions:
REMARK  status: ('A' for Active; 'I' for Inactive)
REMARK    1  A    between atoms: C_7  and  C_8 
REMARK    2  A    between atoms: C_8  and  N_9 
REMARK    3  A    between atoms: N_15  and  C_17 
REMARK    4  A    between atoms: C_21  and  C_22 
ROOT
HETATM    1  N   UNL     1     -44.410  58.301 -56.163  1.00  0.00    -0.067 N 
HETATM    2  H   UNL     1     -44.893  59.210 -56.207  1.00  0.00     0.280 HD
HETATM    3  C   UNL     1     -44.811  57.693 -54.849  1.00  0.00     0.236 C 
HETATM    4  C   UNL     1     -43.976  56.448 -54.537  1.00  0.00     0.039 C 
HETATM    5  C   UNL     1     -42.441  56.685 -54.586  1.00  0.00    -0.013 C 
HETATM    6  C   UNL     1     -41.934  57.560 -53.407  1.00  0.00     0.245 C 
HETATM    7  N   UNL     1     -42.062  56.840 -52.085  1.00  0.00    -0.065 N 
HETATM    8  H   UNL     1     -43.040  56.577 -51.902  1.00  0.00     0.280 HD
HETATM    9  C   UNL     1     -41.254  55.548 -52.052  1.00  0.00     0.244 C 
HETATM   10  C   UNL     1     -41.737  54.621 -53.176  1.00  0.00     0.045 C 
HETATM   11  C   UNL     1     -41.682  55.326 -54.544  1.00  0.00     0.022 C 
HETATM   12  C   UNL     1     -42.110  57.369 -55.946  1.00  0.00     0.039 C 
HETATM   13  C   UNL     1     -42.946  58.607 -56.261  1.00  0.00     0.236 C 
ENDROOT
BRANCH   7  14
HETATM   14  C   UNL     1     -41.653  57.727 -50.942  1.00  0.00     0.188 A 
HETATM   15  C   UNL     1     -40.368  58.491 -51.105  1.00  0.00     0.035 A 
HETATM   16  C   UNL     1     -41.686  59.208 -51.188  1.00  0.00     0.035 A 
ENDBRANCH   7  14
BRANCH  10  17
HETATM   17  C   UNL     1     -40.948  53.326 -53.174  1.00  0.00    -0.052 A 
HETATM   18  C   UNL     1     -40.936  52.520 -54.324  1.00  0.00     0.007 A 
HETATM   19  C   UNL     1     -40.237  51.311 -54.339  1.00  0.00     0.001 A 
HETATM   20  C   UNL     1     -39.543  50.891 -53.208  1.00  0.00     0.000 A 
HETATM   21  C   UNL     1     -39.542  51.681 -52.062  1.00  0.00     0.001 A 
HETATM   22  C   UNL     1     -40.238  52.891 -52.043  1.00  0.00     0.007 A 
ENDBRANCH  10  17
BRANCH   1  23
HETATM   23  C   UNL     1     -44.975  57.594 -57.396  1.00  0.00     0.277 C 
BRANCH  23  24
HETATM   24  C   UNL     1     -44.335  58.075 -58.645  1.00  0.00     0.011 A 
HETATM   25  C   UNL     1     -43.436  57.364 -59.489  1.00  0.00     0.060 A 
HETATM   26  C   UNL     1     -42.864  56.004 -59.310  1.00  0.00     0.073 C 
HETATM   27  N   UNL     1     -43.137  58.066 -60.582  1.00  0.00    -0.178 NA
HETATM   28  N   UNL     1     -43.723  59.256 -60.401  1.00  0.00    -0.284 N 
HETATM   29  C   UNL     1     -43.557  60.303 -61.383  1.00  0.00     0.179 C 
HETATM   30  C   UNL     1     -44.483  59.305 -59.264  1.00  0.00     0.122 A 
ENDBRANCH  23  24
ENDBRANCH   1  23
TORSDOF 4
ENDMDL
MODEL 8
REMARK VINA RESULT:      -7.5      3.197      8.021
REMARK  4 active torsions:
REMARK  status: ('A' for Active; 'I' for Inactive)
REMARK    1  A    between atoms: C_7  and  C_8 
REMARK    2  A    between atoms: C_8  and  N_9 
REMARK    3  A    between atoms: N_15  and  C_17 
REMARK    4  A    between atoms: C_21  and  C_22 
ROOT
HETATM    1  N   UNL     1     -41.756  54.942 -52.736  1.00  0.00    -0.067 N 
HETATM    2  H   UNL     1     -41.948  54.652 -51.766  1.00  0.00     0.280 HD
HETATM    3  C   UNL     1     -41.605  56.437 -52.689  1.00  0.00     0.236 C 
HETATM    4  C   UNL     1     -41.560  57.033 -54.098  1.00  0.00     0.039 C 
HETATM    5  C   UNL     1     -42.763  56.632 -54.996  1.00  0.00    -0.013 C 
HETATM    6  C   UNL     1     -44.093  57.297 -54.545  1.00  0.00     0.245 C 
HETATM    7  N   UNL     1     -44.070  58.791 -54.764  1.00  0.00    -0.065 N 
HETATM    8  H   UNL     1     -43.293  59.227 -54.249  1.00  0.00     0.280 HD
HETATM    9  C   UNL     1     -43.872  59.155 -56.230  1.00  0.00     0.244 C 
HETATM   10  C   UNL     1     -42.549  58.556 -56.727  1.00  0.00     0.045 C 
HETATM   11  C   UNL     1     -42.495  57.037 -56.475  1.00  0.00     0.022 C 
HETATM   12  C   UNL     1     -42.894  55.080 -54.948  1.00  0.00     0.039 C 
HETATM   13  C   UNL     1     -42.932  54.484 -53.543  1.00  0.00     0.236 C 
ENDROOT
BRANCH   7  14
HETATM   14  C   UNL     1     -45.324  59.437 -54.243  1.00  0.00     0.188 A 
HETATM   15  C   UNL     1     -45.158  60.436 -53.132  1.00  0.00     0.035 A 
HETATM   16  C   UNL     1     -45.495  60.903 -54.519  1.00  0.00     0.035 A 
ENDBRANCH   7  14
BRANCH  10  17
HETATM   17  C   UNL     1     -42.325  58.896 -58.187  1.00  0.00    -0.052 A 
HETATM   18  C   UNL     1     -42.203  57.862 -59.129  1.00  0.00     0.007 A 
HETATM   19  C   UNL     1     -41.971  58.149 -60.476  1.00  0.00     0.001 A 
HETATM   20  C   UNL     1     -41.856  59.470 -60.899  1.00  0.00     0.000 A 
HETATM   21  C   UNL     1     -41.979  60.506 -59.979  1.00  0.00     0.001 A 
HETATM   22  C   UNL     1     -42.212  60.224 -58.632  1.00  0.00     0.007 A 
ENDBRANCH  10  17
BRANCH   1  23
HETATM   23  C   UNL     1     -40.467  54.177 -53.037  1.00  0.00     0.277 C 
BRANCH  23  24
HETATM   24  C   UNL     1     -40.263  53.053 -52.090  1.00  0.00     0.011 A 
HETATM   25  C   UNL     1     -40.532  53.036 -50.692  1.00  0.00     0.060 A 
HETATM   26  C   UNL     1     -41.017  54.138 -49.820  1.00  0.00     0.073 C 
HETATM   27  N   UNL     1     -40.325  51.827 -50.171  1.00  0.00    -0.178 NA
HETATM   28  N   UNL     1     -39.815  51.100 -51.173  1.00  0.00    -0.284 N 
HETATM   29  C   UNL     1     -39.414  49.731 -50.946  1.00  0.00     0.179 C 
HETATM   30  C   UNL     1     -39.784  51.782 -52.359  1.00  0.00     0.122 A 
ENDBRANCH  23  24
ENDBRANCH   1  23
TORSDOF 4
ENDMDL
MODEL 9
REMARK VINA RESULT:      -7.5      3.926      6.769
REMARK  4 active torsions:
REMARK  status: ('A' for Active; 'I' for Inactive)
REMARK    1  A    between atoms: C_7  and  C_8 
REMARK    2  A    between atoms: C_8  and  N_9 
REMARK    3  A    between atoms: N_15  and  C_17 
REMARK    4  A    between atoms: C_21  and  C_22 
ROOT
HETATM    1  N   UNL     1     -43.884  56.096 -53.600  1.00  0.00    -0.067 N 
HETATM    2  H   UNL     1     -44.304  55.263 -53.162  1.00  0.00     0.280 HD
HETATM    3  C   UNL     1     -44.828  56.495 -54.699  1.00  0.00     0.236 C 
HETATM    4  C   UNL     1     -44.211  57.573 -55.594  1.00  0.00     0.039 C 
HETATM    5  C   UNL     1     -42.821  57.195 -56.177  1.00  0.00    -0.013 C 
HETATM    6  C   UNL     1     -42.908  56.075 -57.250  1.00  0.00     0.245 C 
HETATM    7  N   UNL     1     -43.611  56.555 -58.498  1.00  0.00    -0.065 N 
HETATM    8  H   UNL     1     -44.564  56.878 -58.283  1.00  0.00     0.280 HD
HETATM    9  C   UNL     1     -42.892  57.731 -59.148  1.00  0.00     0.244 C 
HETATM   10  C   UNL     1     -42.808  58.889 -58.145  1.00  0.00     0.045 C 
HETATM   11  C   UNL     1     -42.149  58.440 -56.827  1.00  0.00     0.022 C 
HETATM   12  C   UNL     1     -41.919  56.737 -54.992  1.00  0.00     0.039 C 
HETATM   13  C   UNL     1     -42.536  55.667 -54.094  1.00  0.00     0.236 C 
ENDROOT
BRANCH   7  14
HETATM   14  C   UNL     1     -43.769  55.440 -59.495  1.00  0.00     0.188 A 
HETATM   15  C   UNL     1     -45.175  55.026 -59.829  1.00  0.00     0.035 A 
HETATM   16  C   UNL     1     -44.364  55.802 -60.826  1.00  0.00     0.035 A 
ENDBRANCH   7  14
BRANCH  10  17
HETATM   17  C   UNL     1     -42.092  60.076 -58.759  1.00  0.00    -0.052 A 
HETATM   18  C   UNL     1     -42.180  60.299 -60.143  1.00  0.00     0.007 A 
HETATM   19  C   UNL     1     -41.509  61.371 -60.735  1.00  0.00     0.001 A 
HETATM   20  C   UNL     1     -40.742  62.232 -59.956  1.00  0.00     0.000 A 
HETATM   21  C   UNL     1     -40.649  62.027 -58.583  1.00  0.00     0.001 A 
HETATM   22  C   UNL     1     -41.319  60.958 -57.986  1.00  0.00     0.007 A 
ENDBRANCH  10  17
BRANCH   1  23
HETATM   23  C   UNL     1     -43.826  57.067 -52.420  1.00  0.00     0.277 C 
BRANCH  23  24
HETATM   24  C   UNL     1     -42.762  56.695 -51.455  1.00  0.00     0.011 A 
HETATM   25  C   UNL     1     -41.531  57.368 -51.219  1.00  0.00     0.060 A 
HETATM   26  C   UNL     1     -40.969  58.559 -51.908  1.00  0.00     0.073 C 
HETATM   27  N   UNL     1     -40.859  56.814 -50.209  1.00  0.00    -0.178 NA
HETATM   28  N   UNL     1     -41.570  55.731 -49.873  1.00  0.00    -0.284 N 
HETATM   29  C   UNL     1     -41.098  54.847 -48.832  1.00  0.00     0.179 C 
HETATM   30  C   UNL     1     -42.742  55.628 -50.572  1.00  0.00     0.122 A 
ENDBRANCH  23  24
ENDBRANCH   1  23
TORSDOF 4
ENDMDL
MODEL 10
REMARK VINA RESULT:      -7.1      4.363      7.870
REMARK  4 active torsions:
REMARK  status: ('A' for Active; 'I' for Inactive)
REMARK    1  A    between atoms: C_7  and  C_8 
REMARK    2  A    between atoms: C_8  and  N_9 
REMARK    3  A    between atoms: N_15  and  C_17 
REMARK    4  A    between atoms: C_21  and  C_22 
ROOT
HETATM    1  N   UNL     1     -43.634  55.962 -54.403  1.00  0.00    -0.067 N 
HETATM    2  H   UNL     1     -44.205  55.205 -54.000  1.00  0.00     0.280 HD
HETATM    3  C   UNL     1     -44.614  56.971 -54.931  1.00  0.00     0.236 C 
HETATM    4  C   UNL     1     -43.911  58.036 -55.776  1.00  0.00     0.039 C 
HETATM    5  C   UNL     1     -43.043  57.459 -56.930  1.00  0.00    -0.013 C 
HETATM    6  C   UNL     1     -43.899  56.839 -58.068  1.00  0.00     0.245 C 
HETATM    7  N   UNL     1     -44.683  57.894 -58.812  1.00  0.00    -0.065 N 
HETATM    8  H   UNL     1     -45.307  58.407 -58.175  1.00  0.00     0.280 HD
HETATM    9  C   UNL     1     -43.778  58.935 -59.460  1.00  0.00     0.244 C 
HETATM   10  C   UNL     1     -42.930  59.614 -58.376  1.00  0.00     0.045 C 
HETATM   11  C   UNL     1     -42.150  58.576 -57.546  1.00  0.00     0.022 C 
HETATM   12  C   UNL     1     -42.098  56.382 -56.319  1.00  0.00     0.039 C 
HETATM   13  C   UNL     1     -42.797  55.324 -55.470  1.00  0.00     0.236 C 
ENDROOT
BRANCH   7  14
HETATM   14  C   UNL     1     -45.576  57.276 -59.853  1.00  0.00     0.188 A 
HETATM   15  C   UNL     1     -46.985  56.961 -59.434  1.00  0.00     0.035 A 
HETATM   16  C   UNL     1     -46.715  58.117 -60.354  1.00  0.00     0.035 A 
ENDBRANCH   7  14
BRANCH  10  17
HETATM   17  C   UNL     1     -42.012  60.652 -58.989  1.00  0.00    -0.052 A 
HETATM   18  C   UNL     1     -42.046  60.877 -60.375  1.00  0.00     0.007 A 
HETATM   19  C   UNL     1     -41.192  61.811 -60.966  1.00  0.00     0.001 A 
HETATM   20  C   UNL     1     -40.295  62.532 -60.183  1.00  0.00     0.000 A 
HETATM   21  C   UNL     1     -40.254  62.325 -58.808  1.00  0.00     0.001 A 
HETATM   22  C   UNL     1     -41.105  61.393 -58.213  1.00  0.00     0.007 A 
ENDBRANCH  10  17
BRANCH   1  23
HETATM   23  C   UNL     1     -42.832  56.423 -53.185  1.00  0.00     0.277 C 
BRANCH  23  24
HETATM   24  C   UNL     1     -42.213  55.279 -52.471  1.00  0.00     0.011 A 
HETATM   25  C   UNL     1     -42.737  54.568 -51.355  1.00  0.00     0.060 A 
HETATM   26  C   UNL     1     -43.985  54.819 -50.587  1.00  0.00     0.073 C 
HETATM   27  N   UNL     1     -41.963  53.532 -51.031  1.00  0.00    -0.178 NA
HETATM   28  N   UNL     1     -40.895  53.634 -51.832  1.00  0.00    -0.284 N 
HETATM   29  C   UNL     1     -39.807  52.691 -51.714  1.00  0.00     0.179 C 
HETATM   30  C   UNL     1     -41.009  54.651 -52.739  1.00  0.00     0.122 A 
ENDBRANCH  23  24
ENDBRANCH   1  23
TORSDOF 4
ENDMDL
