MODEL 1
REMARK VINA RESULT:      -7.9      0.000      0.000
REMARK  8 active torsions:
REMARK  status: ('A' for Active; 'I' for Inactive)
REMARK    1  A    between atoms: C_2  and  C_3 
REMARK    2  A    between atoms: C_3  and  C_4 
REMARK       I    between atoms: C_4  and  N_5 
REMARK    3  A    between atoms: N_8  and  C_9 
REMARK    4  A    between atoms: C_12  and  N_13 
REMARK    5  A    between atoms: N_13  and  C_14 
REMARK    6  A    between atoms: C_14  and  N_15 
REMARK       I    between atoms: N_15  and  C_16 
REMARK    7  A    between atoms: C_16  and  C_17 
REMARK    8  A    between atoms: C_21  and  O_22 
ROOT
HETATM    1  C   UNL     1     -44.902  57.350 -58.359  1.00  0.00     0.030 A 
HETATM    2  C   UNL     1     -45.116  58.205 -57.266  1.00  0.00     0.031 A 
HETATM    3  C   UNL     1     -44.279  58.221 -56.140  1.00  0.00     0.032 A 
HETATM    4  C   UNL     1     -43.160  57.404 -56.074  1.00  0.00     0.034 A 
HETATM    5  C   UNL     1     -42.866  56.613 -57.182  1.00  0.00     0.032 A 
HETATM    6  C   UNL     1     -43.731  56.577 -58.293  1.00  0.00     0.031 A 
ENDROOT
BRANCH   4   7
HETATM    7  N   UNL     1     -42.266  57.392 -54.983  1.00  0.00    -0.333 N 
HETATM    8  H   UNL     1     -41.320  57.717 -55.184  1.00  0.00     0.168 HD
BRANCH   7   9
HETATM    9  C   UNL     1     -42.442  56.922 -53.704  1.00  0.00     0.179 C 
HETATM   10  S   UNL     1     -43.224  57.645 -52.411  1.00  0.00    -0.040 SA
BRANCH   9  11
HETATM   11  N   UNL     1     -41.937  55.660 -53.456  1.00  0.00    -0.299 N 
HETATM   12  C   UNL     1     -40.856  55.009 -54.033  1.00  0.00     0.257 C 
HETATM   13  O   UNL     1     -40.201  55.440 -54.973  1.00  0.00    -0.267 OA
HETATM   14  H   UNL     1     -42.389  55.221 -52.665  1.00  0.00     0.171 HD
BRANCH  12  15
HETATM   15  C   UNL     1     -40.514  53.705 -53.408  1.00  0.00     0.034 A 
HETATM   16  C   UNL     1     -40.317  52.596 -54.230  1.00  0.00     0.044 A 
HETATM   17  C   UNL     1     -39.936  51.376 -53.665  1.00  0.00     0.068 A 
HETATM   18 CL   UNL     1     -39.667  50.042 -54.733  1.00  0.00    -0.081 Cl
HETATM   19  C   UNL     1     -39.763  51.243 -52.275  1.00  0.00     0.089 A 
HETATM   20  C   UNL     1     -39.996  52.356 -51.459  1.00  0.00     0.039 A 
HETATM   21  C   UNL     1     -40.371  53.581 -52.020  1.00  0.00     0.020 A 
BRANCH  19  22
HETATM   22  O   UNL     1     -39.376  50.013 -51.812  1.00  0.00    -0.354 OA
HETATM   23  C   UNL     1     -39.701  49.674 -50.471  1.00  0.00     0.210 C 
ENDBRANCH  19  22
ENDBRANCH  12  15
ENDBRANCH   9  11
ENDBRANCH   7   9
ENDBRANCH   4   7
BRANCH   1  24
HETATM   24  N   UNL     1     -45.767  57.355 -59.468  1.00  0.00    -0.378 N 
HETATM   25  C   UNL     1     -46.824  58.395 -59.488  1.00  0.00     0.143 C 
HETATM   26  C   UNL     1     -47.372  58.590 -60.912  1.00  0.00     0.145 C 
HETATM   27  N   UNL     1     -47.829  57.347 -61.533  1.00  0.00    -0.349 N 
HETATM   28  C   UNL     1     -48.692  57.300 -62.622  1.00  0.00     0.219 C 
HETATM   29  C   UNL     1     -46.903  56.218 -61.389  1.00  0.00     0.145 C 
HETATM   30  O   UNL     1     -48.897  56.255 -63.245  1.00  0.00    -0.273 OA
HETATM   31  C   UNL     1     -46.272  56.063 -59.990  1.00  0.00     0.143 C 
BRANCH  28  32
HETATM   32  C   UNL     1     -49.419  58.567 -63.051  1.00  0.00     0.103 C 
BRANCH  32  33
HETATM   33  C   UNL     1     -50.806  58.689 -62.426  1.00  0.00     0.005 C 
HETATM   34  C   UNL     1     -51.018  59.987 -61.665  1.00  0.00     0.005 C 
ENDBRANCH  32  33
ENDBRANCH  28  32
ENDBRANCH   1  24
TORSDOF 8
ENDMDL
MODEL 2
REMARK VINA RESULT:      -7.9      5.495      9.181
REMARK  8 active torsions:
REMARK  status: ('A' for Active; 'I' for Inactive)
REMARK    1  A    between atoms: C_2  and  C_3 
REMARK    2  A    between atoms: C_3  and  C_4 
REMARK       I    between atoms: C_4  and  N_5 
REMARK    3  A    between atoms: N_8  and  C_9 
REMARK    4  A    between atoms: C_12  and  N_13 
REMARK    5  A    between atoms: N_13  and  C_14 
REMARK    6  A    between atoms: C_14  and  N_15 
REMARK       I    between atoms: N_15  and  C_16 
REMARK    7  A    between atoms: C_16  and  C_17 
REMARK    8  A    between atoms: C_21  and  O_22 
ROOT
HETATM    1  C   UNL     1     -44.486  59.234 -51.494  1.00  0.00     0.030 A 
HETATM    2  C   UNL     1     -44.861  59.505 -52.820  1.00  0.00     0.031 A 
HETATM    3  C   UNL     1     -44.831  58.533 -53.832  1.00  0.00     0.032 A 
HETATM    4  C   UNL     1     -44.457  57.226 -53.551  1.00  0.00     0.034 A 
HETATM    5  C   UNL     1     -44.172  56.902 -52.227  1.00  0.00     0.032 A 
HETATM    6  C   UNL     1     -44.170  57.892 -51.225  1.00  0.00     0.031 A 
ENDROOT
BRANCH   4   7
HETATM    7  N   UNL     1     -44.431  56.199 -54.517  1.00  0.00    -0.333 N 
HETATM    8  H   UNL     1     -45.295  55.664 -54.615  1.00  0.00     0.168 HD
BRANCH   7   9
HETATM    9  C   UNL     1     -43.390  55.738 -55.286  1.00  0.00     0.179 C 
HETATM   10  S   UNL     1     -42.966  56.162 -56.850  1.00  0.00    -0.040 SA
BRANCH   9  11
HETATM   11  N   UNL     1     -42.553  54.825 -54.675  1.00  0.00    -0.299 N 
HETATM   12  C   UNL     1     -41.339  55.025 -54.034  1.00  0.00     0.257 C 
HETATM   13  O   UNL     1     -40.740  56.093 -53.989  1.00  0.00    -0.267 OA
HETATM   14  H   UNL     1     -42.970  53.905 -54.625  1.00  0.00     0.171 HD
BRANCH  12  15
HETATM   15  C   UNL     1     -40.788  53.820 -53.362  1.00  0.00     0.034 A 
HETATM   16  C   UNL     1     -40.553  52.674 -54.123  1.00  0.00     0.044 A 
HETATM   17  C   UNL     1     -39.979  51.551 -53.520  1.00  0.00     0.068 A 
HETATM   18 CL   UNL     1     -39.673  50.171 -54.516  1.00  0.00    -0.081 Cl
HETATM   19  C   UNL     1     -39.649  51.551 -52.152  1.00  0.00     0.089 A 
HETATM   20  C   UNL     1     -39.921  52.697 -51.395  1.00  0.00     0.039 A 
HETATM   21  C   UNL     1     -40.489  53.826 -51.994  1.00  0.00     0.020 A 
BRANCH  19  22
HETATM   22  O   UNL     1     -39.079  50.411 -51.651  1.00  0.00    -0.354 OA
HETATM   23  C   UNL     1     -39.801  49.682 -50.669  1.00  0.00     0.210 C 
ENDBRANCH  19  22
ENDBRANCH  12  15
ENDBRANCH   9  11
ENDBRANCH   7   9
ENDBRANCH   4   7
BRANCH   1  24
HETATM   24  N   UNL     1     -44.522  60.235 -50.509  1.00  0.00    -0.378 N 
HETATM   25  C   UNL     1     -45.711  60.263 -49.623  1.00  0.00     0.143 C 
HETATM   26  C   UNL     1     -45.421  61.061 -48.340  1.00  0.00     0.145 C 
HETATM   27  N   UNL     1     -44.911  62.408 -48.598  1.00  0.00    -0.349 N 
HETATM   28  C   UNL     1     -44.935  63.434 -47.660  1.00  0.00     0.219 C 
HETATM   29  C   UNL     1     -43.849  62.475 -49.608  1.00  0.00     0.145 C 
HETATM   30  O   UNL     1     -44.321  64.489 -47.836  1.00  0.00    -0.273 OA
HETATM   31  C   UNL     1     -44.081  61.607 -50.862  1.00  0.00     0.143 C 
BRANCH  28  32
HETATM   32  C   UNL     1     -45.754  63.262 -46.389  1.00  0.00     0.103 C 
BRANCH  32  33
HETATM   33  C   UNL     1     -45.051  63.824 -45.157  1.00  0.00     0.005 C 
HETATM   34  C   UNL     1     -44.480  62.753 -44.241  1.00  0.00     0.005 C 
ENDBRANCH  32  33
ENDBRANCH  28  32
ENDBRANCH   1  24
TORSDOF 8
ENDMDL
MODEL 3
REMARK VINA RESULT:      -7.6      5.197      8.635
REMARK  8 active torsions:
REMARK  status: ('A' for Active; 'I' for Inactive)
REMARK    1  A    between atoms: C_2  and  C_3 
REMARK    2  A    between atoms: C_3  and  C_4 
REMARK       I    between atoms: C_4  and  N_5 
REMARK    3  A    between atoms: N_8  and  C_9 
REMARK    4  A    between atoms: C_12  and  N_13 
REMARK    5  A    between atoms: N_13  and  C_14 
REMARK    6  A    between atoms: C_14  and  N_15 
REMARK       I    between atoms: N_15  and  C_16 
REMARK    7  A    between atoms: C_16  and  C_17 
REMARK    8  A    between atoms: C_21  and  O_22 
ROOT
HETATM    1  C   UNL     1     -43.845  59.969 -52.582  1.00  0.00     0.030 A 
HETATM    2  C   UNL     1     -42.487  60.086 -52.921  1.00  0.00     0.031 A 
HETATM    3  C   UNL     1     -41.897  59.350 -53.960  1.00  0.00     0.032 A 
HETATM    4  C   UNL     1     -42.655  58.484 -54.736  1.00  0.00     0.034 A 
HETATM    5  C   UNL     1     -44.023  58.415 -54.488  1.00  0.00     0.032 A 
HETATM    6  C   UNL     1     -44.600  59.132 -53.421  1.00  0.00     0.031 A 
ENDROOT
BRANCH   4   7
HETATM    7  N   UNL     1     -42.126  57.735 -55.809  1.00  0.00    -0.333 N 
HETATM    8  H   UNL     1     -41.590  58.267 -56.495  1.00  0.00     0.168 HD
BRANCH   7   9
HETATM    9  C   UNL     1     -42.300  56.411 -56.130  1.00  0.00     0.179 C 
HETATM   10  S   UNL     1     -43.013  55.740 -57.489  1.00  0.00    -0.040 SA
BRANCH   9  11
HETATM   11  N   UNL     1     -41.784  55.503 -55.226  1.00  0.00    -0.299 N 
HETATM   12  C   UNL     1     -42.423  54.790 -54.222  1.00  0.00     0.257 C 
HETATM   13  O   UNL     1     -43.597  54.933 -53.902  1.00  0.00    -0.267 OA
HETATM   14  H   UNL     1     -40.816  55.282 -55.422  1.00  0.00     0.171 HD
BRANCH  12  15
HETATM   15  C   UNL     1     -41.569  53.787 -53.535  1.00  0.00     0.034 A 
HETATM   16  C   UNL     1     -41.154  52.659 -54.244  1.00  0.00     0.044 A 
HETATM   17  C   UNL     1     -40.302  51.735 -53.634  1.00  0.00     0.068 A 
HETATM   18 CL   UNL     1     -39.786  50.375 -54.570  1.00  0.00    -0.081 Cl
HETATM   19  C   UNL     1     -39.867  51.915 -52.308  1.00  0.00     0.089 A 
HETATM   20  C   UNL     1     -40.318  53.035 -51.598  1.00  0.00     0.039 A 
HETATM   21  C   UNL     1     -41.166  53.966 -52.207  1.00  0.00     0.020 A 
BRANCH  19  22
HETATM   22  O   UNL     1     -39.022  50.965 -51.797  1.00  0.00    -0.354 OA
HETATM   23  C   UNL     1     -39.563  50.008 -50.896  1.00  0.00     0.210 C 
ENDBRANCH  19  22
ENDBRANCH  12  15
ENDBRANCH   9  11
ENDBRANCH   7   9
ENDBRANCH   4   7
BRANCH   1  24
HETATM   24  N   UNL     1     -44.400  60.717 -51.530  1.00  0.00    -0.378 N 
HETATM   25  C   UNL     1     -43.665  60.712 -50.242  1.00  0.00     0.143 C 
HETATM   26  C   UNL     1     -44.094  61.897 -49.361  1.00  0.00     0.145 C 
HETATM   27  N   UNL     1     -45.541  61.971 -49.154  1.00  0.00    -0.349 N 
HETATM   28  C   UNL     1     -46.136  62.688 -48.122  1.00  0.00     0.219 C 
HETATM   29  C   UNL     1     -46.341  61.800 -50.372  1.00  0.00     0.145 C 
HETATM   30  O   UNL     1     -47.351  62.897 -48.093  1.00  0.00    -0.273 OA
HETATM   31  C   UNL     1     -45.866  60.673 -51.313  1.00  0.00     0.143 C 
BRANCH  28  32
HETATM   32  C   UNL     1     -45.271  63.217 -46.987  1.00  0.00     0.103 C 
BRANCH  32  33
HETATM   33  C   UNL     1     -45.456  62.432 -45.692  1.00  0.00     0.005 C 
HETATM   34  C   UNL     1     -44.821  61.052 -45.721  1.00  0.00     0.005 C 
ENDBRANCH  32  33
ENDBRANCH  28  32
ENDBRANCH   1  24
TORSDOF 8
ENDMDL
MODEL 4
REMARK VINA RESULT:      -7.3      7.091     11.463
REMARK  8 active torsions:
REMARK  status: ('A' for Active; 'I' for Inactive)
REMARK    1  A    between atoms: C_2  and  C_3 
REMARK    2  A    between atoms: C_3  and  C_4 
REMARK       I    between atoms: C_4  and  N_5 
REMARK    3  A    between atoms: N_8  and  C_9 
REMARK    4  A    between atoms: C_12  and  N_13 
REMARK    5  A    between atoms: N_13  and  C_14 
REMARK    6  A    between atoms: C_14  and  N_15 
REMARK       I    between atoms: N_15  and  C_16 
REMARK    7  A    between atoms: C_16  and  C_17 
REMARK    8  A    between atoms: C_21  and  O_22 
ROOT
HETATM    1  C   UNL     1     -43.952  57.429 -52.206  1.00  0.00     0.030 A 
HETATM    2  C   UNL     1     -44.134  58.335 -53.264  1.00  0.00     0.031 A 
HETATM    3  C   UNL     1     -45.063  59.385 -53.213  1.00  0.00     0.032 A 
HETATM    4  C   UNL     1     -45.831  59.601 -52.077  1.00  0.00     0.034 A 
HETATM    5  C   UNL     1     -45.607  58.779 -50.975  1.00  0.00     0.032 A 
HETATM    6  C   UNL     1     -44.698  57.705 -51.048  1.00  0.00     0.031 A 
ENDROOT
BRANCH   4   7
HETATM    7  N   UNL     1     -46.762  60.653 -51.955  1.00  0.00    -0.333 N 
HETATM    8  H   UNL     1     -47.711  60.440 -52.264  1.00  0.00     0.168 HD
BRANCH   7   9
HETATM    9  C   UNL     1     -46.572  61.958 -51.571  1.00  0.00     0.179 C 
HETATM   10  S   UNL     1     -46.681  63.354 -52.491  1.00  0.00    -0.040 SA
BRANCH   9  11
HETATM   11  N   UNL     1     -46.287  62.154 -50.234  1.00  0.00    -0.299 N 
HETATM   12  C   UNL     1     -45.060  62.228 -49.591  1.00  0.00     0.257 C 
HETATM   13  O   UNL     1     -43.977  62.027 -50.126  1.00  0.00    -0.267 OA
HETATM   14  H   UNL     1     -47.117  62.367 -49.697  1.00  0.00     0.171 HD
BRANCH  12  15
HETATM   15  C   UNL     1     -45.136  62.597 -48.154  1.00  0.00     0.034 A 
HETATM   16  C   UNL     1     -44.910  61.610 -47.194  1.00  0.00     0.044 A 
HETATM   17  C   UNL     1     -44.918  61.952 -45.838  1.00  0.00     0.068 A 
HETATM   18 CL   UNL     1     -44.594  60.699 -44.690  1.00  0.00    -0.081 Cl
HETATM   19  C   UNL     1     -45.167  63.273 -45.424  1.00  0.00     0.089 A 
HETATM   20  C   UNL     1     -45.424  64.246 -46.398  1.00  0.00     0.039 A 
HETATM   21  C   UNL     1     -45.411  63.911 -47.756  1.00  0.00     0.020 A 
BRANCH  19  22
HETATM   22  O   UNL     1     -45.142  63.517 -44.076  1.00  0.00    -0.354 OA
HETATM   23  C   UNL     1     -45.996  64.533 -43.568  1.00  0.00     0.210 C 
ENDBRANCH  19  22
ENDBRANCH  12  15
ENDBRANCH   9  11
ENDBRANCH   7   9
ENDBRANCH   4   7
BRANCH   1  24
HETATM   24  N   UNL     1     -43.017  56.383 -52.296  1.00  0.00    -0.378 N 
HETATM   25  C   UNL     1     -43.247  55.367 -53.351  1.00  0.00     0.143 C 
HETATM   26  C   UNL     1     -41.957  54.582 -53.645  1.00  0.00     0.145 C 
HETATM   27  N   UNL     1     -41.353  53.990 -52.451  1.00  0.00    -0.349 N 
HETATM   28  C   UNL     1     -40.434  52.948 -52.488  1.00  0.00     0.219 C 
HETATM   29  C   UNL     1     -41.263  54.897 -51.301  1.00  0.00     0.145 C 
HETATM   30  O   UNL     1     -39.796  52.609 -51.488  1.00  0.00    -0.273 OA
HETATM   31  C   UNL     1     -42.516  55.759 -51.047  1.00  0.00     0.143 C 
BRANCH  28  32
HETATM   32  C   UNL     1     -40.218  52.191 -53.790  1.00  0.00     0.103 C 
BRANCH  32  33
HETATM   33  C   UNL     1     -39.486  50.867 -53.585  1.00  0.00     0.005 C 
HETATM   34  C   UNL     1     -39.854  49.805 -54.609  1.00  0.00     0.005 C 
ENDBRANCH  32  33
ENDBRANCH  28  32
ENDBRANCH   1  24
TORSDOF 8
ENDMDL
MODEL 5
REMARK VINA RESULT:      -7.3      8.400     12.152
REMARK  8 active torsions:
REMARK  status: ('A' for Active; 'I' for Inactive)
REMARK    1  A    between atoms: C_2  and  C_3 
REMARK    2  A    between atoms: C_3  and  C_4 
REMARK       I    between atoms: C_4  and  N_5 
REMARK    3  A    between atoms: N_8  and  C_9 
REMARK    4  A    between atoms: C_12  and  N_13 
REMARK    5  A    between atoms: N_13  and  C_14 
REMARK    6  A    between atoms: C_14  and  N_15 
REMARK       I    between atoms: N_15  and  C_16 
REMARK    7  A    between atoms: C_16  and  C_17 
REMARK    8  A    between atoms: C_21  and  O_22 
ROOT
HETATM    1  C   UNL     1     -42.566  58.554 -51.710  1.00  0.00     0.030 A 
HETATM    2  C   UNL     1     -41.640  59.504 -51.249  1.00  0.00     0.031 A 
HETATM    3  C   UNL     1     -42.026  60.693 -50.610  1.00  0.00     0.032 A 
HETATM    4  C   UNL     1     -43.364  60.968 -50.369  1.00  0.00     0.034 A 
HETATM    5  C   UNL     1     -44.302  60.003 -50.729  1.00  0.00     0.032 A 
HETATM    6  C   UNL     1     -43.908  58.829 -51.401  1.00  0.00     0.031 A 
ENDROOT
BRANCH   4   7
HETATM    7  N   UNL     1     -43.813  62.132 -49.711  1.00  0.00    -0.333 N 
HETATM    8  H   UNL     1     -43.081  62.757 -49.373  1.00  0.00     0.168 HD
BRANCH   7   9
HETATM    9  C   UNL     1     -45.087  62.513 -49.365  1.00  0.00     0.179 C 
HETATM   10  S   UNL     1     -46.472  62.542 -50.306  1.00  0.00    -0.040 SA
BRANCH   9  11
HETATM   11  N   UNL     1     -45.261  62.893 -48.048  1.00  0.00    -0.299 N 
HETATM   12  C   UNL     1     -45.974  62.271 -47.033  1.00  0.00     0.257 C 
HETATM   13  O   UNL     1     -46.678  61.280 -47.180  1.00  0.00    -0.267 OA
HETATM   14  H   UNL     1     -44.690  63.692 -47.806  1.00  0.00     0.171 HD
BRANCH  12  15
HETATM   15  C   UNL     1     -45.817  62.896 -45.695  1.00  0.00     0.034 A 
HETATM   16  C   UNL     1     -44.705  62.560 -44.922  1.00  0.00     0.044 A 
HETATM   17  C   UNL     1     -44.509  63.183 -43.686  1.00  0.00     0.068 A 
HETATM   18 CL   UNL     1     -43.094  62.759 -42.786  1.00  0.00    -0.081 Cl
HETATM   19  C   UNL     1     -45.426  64.132 -43.199  1.00  0.00     0.089 A 
HETATM   20  C   UNL     1     -46.554  64.435 -43.971  1.00  0.00     0.039 A 
HETATM   21  C   UNL     1     -46.751  63.820 -45.211  1.00  0.00     0.020 A 
BRANCH  19  22
HETATM   22  O   UNL     1     -45.145  64.700 -41.985  1.00  0.00    -0.354 OA
HETATM   23  C   UNL     1     -45.679  64.082 -40.822  1.00  0.00     0.210 C 
ENDBRANCH  19  22
ENDBRANCH  12  15
ENDBRANCH   9  11
ENDBRANCH   7   9
ENDBRANCH   4   7
BRANCH   1  24
HETATM   24  N   UNL     1     -42.144  57.378 -52.353  1.00  0.00    -0.378 N 
HETATM   25  C   UNL     1     -41.724  56.252 -51.483  1.00  0.00     0.143 C 
HETATM   26  C   UNL     1     -41.744  54.924 -52.258  1.00  0.00     0.145 C 
HETATM   27  N   UNL     1     -40.966  54.964 -53.497  1.00  0.00    -0.349 N 
HETATM   28  C   UNL     1     -40.516  53.830 -54.162  1.00  0.00     0.219 C 
HETATM   29  C   UNL     1     -41.199  56.153 -54.324  1.00  0.00     0.145 C 
HETATM   30  O   UNL     1     -40.042  53.889 -55.299  1.00  0.00    -0.273 OA
HETATM   31  C   UNL     1     -41.275  57.485 -53.550  1.00  0.00     0.143 C 
BRANCH  28  32
HETATM   32  C   UNL     1     -40.592  52.479 -53.466  1.00  0.00     0.103 C 
BRANCH  32  33
HETATM   33  C   UNL     1     -40.261  51.317 -54.399  1.00  0.00     0.005 C 
HETATM   34  C   UNL     1     -39.696  50.102 -53.681  1.00  0.00     0.005 C 
ENDBRANCH  32  33
ENDBRANCH  28  32
ENDBRANCH   1  24
TORSDOF 8
ENDMDL
MODEL 6
REMARK VINA RESULT:      -7.3      2.226      3.088
REMARK  8 active torsions:
REMARK  status: ('A' for Active; 'I' for Inactive)
REMARK    1  A    between atoms: C_2  and  C_3 
REMARK    2  A    between atoms: C_3  and  C_4 
REMARK       I    between atoms: C_4  and  N_5 
REMARK    3  A    between atoms: N_8  and  C_9 
REMARK    4  A    between atoms: C_12  and  N_13 
REMARK    5  A    between atoms: N_13  and  C_14 
REMARK    6  A    between atoms: C_14  and  N_15 
REMARK       I    between atoms: N_15  and  C_16 
REMARK    7  A    between atoms: C_16  and  C_17 
REMARK    8  A    between atoms: C_21  and  O_22 
ROOT
HETATM    1  C   UNL     1     -43.871  58.545 -56.392  1.00  0.00     0.030 A 
HETATM    2  C   UNL     1     -42.475  58.682 -56.324  1.00  0.00     0.031 A 
HETATM    3  C   UNL     1     -41.817  59.200 -55.198  1.00  0.00     0.032 A 
HETATM    4  C   UNL     1     -42.529  59.572 -54.067  1.00  0.00     0.034 A 
HETATM    5  C   UNL     1     -43.905  59.360 -54.066  1.00  0.00     0.032 A 
HETATM    6  C   UNL     1     -44.561  58.872 -55.213  1.00  0.00     0.031 A 
ENDROOT
BRANCH   4   7
HETATM    7  N   UNL     1     -41.924  60.075 -52.896  1.00  0.00    -0.333 N 
HETATM    8  H   UNL     1     -41.633  61.052 -52.935  1.00  0.00     0.168 HD
BRANCH   7   9
HETATM    9  C   UNL     1     -41.576  59.427 -51.735  1.00  0.00     0.179 C 
HETATM   10  S   UNL     1     -41.423  60.047 -50.187  1.00  0.00    -0.040 SA
BRANCH   9  11
HETATM   11  N   UNL     1     -41.357  58.068 -51.851  1.00  0.00    -0.299 N 
HETATM   12  C   UNL     1     -42.227  57.008 -51.638  1.00  0.00     0.257 C 
HETATM   13  O   UNL     1     -43.364  57.116 -51.198  1.00  0.00    -0.267 OA
HETATM   14  H   UNL     1     -40.447  57.864 -52.244  1.00  0.00     0.171 HD
BRANCH  12  15
HETATM   15  C   UNL     1     -41.680  55.676 -52.004  1.00  0.00     0.034 A 
HETATM   16  C   UNL     1     -41.227  55.470 -53.308  1.00  0.00     0.044 A 
HETATM   17  C   UNL     1     -40.654  54.243 -53.654  1.00  0.00     0.068 A 
HETATM   18 CL   UNL     1     -40.074  54.053 -55.272  1.00  0.00    -0.081 Cl
HETATM   19  C   UNL     1     -40.542  53.204 -52.712  1.00  0.00     0.089 A 
HETATM   20  C   UNL     1     -41.030  53.414 -51.417  1.00  0.00     0.039 A 
HETATM   21  C   UNL     1     -41.598  54.643 -51.064  1.00  0.00     0.020 A 
BRANCH  19  22
HETATM   22  O   UNL     1     -39.955  52.041 -53.137  1.00  0.00    -0.354 OA
HETATM   23  C   UNL     1     -39.480  51.136 -52.150  1.00  0.00     0.210 C 
ENDBRANCH  19  22
ENDBRANCH  12  15
ENDBRANCH   9  11
ENDBRANCH   7   9
ENDBRANCH   4   7
BRANCH   1  24
HETATM   24  N   UNL     1     -44.497  58.029 -57.540  1.00  0.00    -0.378 N 
HETATM   25  C   UNL     1     -45.978  57.963 -57.524  1.00  0.00     0.143 C 
HETATM   26  C   UNL     1     -46.537  57.838 -58.951  1.00  0.00     0.145 C 
HETATM   27  N   UNL     1     -45.957  56.726 -59.706  1.00  0.00    -0.349 N 
HETATM   28  C   UNL     1     -46.543  56.174 -60.839  1.00  0.00     0.219 C 
HETATM   29  C   UNL     1     -44.496  56.624 -59.614  1.00  0.00     0.145 C 
HETATM   30  O   UNL     1     -45.937  55.381 -61.563  1.00  0.00    -0.273 OA
HETATM   31  C   UNL     1     -43.911  56.839 -58.203  1.00  0.00     0.143 C 
BRANCH  28  32
HETATM   32  C   UNL     1     -47.977  56.543 -61.190  1.00  0.00     0.103 C 
BRANCH  32  33
HETATM   33  C   UNL     1     -48.155  56.869 -62.670  1.00  0.00     0.005 C 
HETATM   34  C   UNL     1     -49.019  58.094 -62.923  1.00  0.00     0.005 C 
ENDBRANCH  32  33
ENDBRANCH  28  32
ENDBRANCH   1  24
TORSDOF 8
ENDMDL
MODEL 7
REMARK VINA RESULT:      -7.2      5.501     11.352
REMARK  8 active torsions:
REMARK  status: ('A' for Active; 'I' for Inactive)
REMARK    1  A    between atoms: C_2  and  C_3 
REMARK    2  A    between atoms: C_3  and  C_4 
REMARK       I    between atoms: C_4  and  N_5 
REMARK    3  A    between atoms: N_8  and  C_9 
REMARK    4  A    between atoms: C_12  and  N_13 
REMARK    5  A    between atoms: N_13  and  C_14 
REMARK    6  A    between atoms: C_14  and  N_15 
REMARK       I    between atoms: N_15  and  C_16 
REMARK    7  A    between atoms: C_16  and  C_17 
REMARK    8  A    between atoms: C_21  and  O_22 
ROOT
HETATM    1  C   UNL     1     -42.277  55.821 -55.719  1.00  0.00     0.030 A 
HETATM    2  C   UNL     1     -42.479  57.185 -55.456  1.00  0.00     0.031 A 
HETATM    3  C   UNL     1     -42.957  58.083 -56.423  1.00  0.00     0.032 A 
HETATM    4  C   UNL     1     -43.293  57.644 -57.696  1.00  0.00     0.034 A 
HETATM    5  C   UNL     1     -43.195  56.281 -57.960  1.00  0.00     0.032 A 
HETATM    6  C   UNL     1     -42.681  55.393 -56.995  1.00  0.00     0.031 A 
ENDROOT
BRANCH   4   7
HETATM    7  N   UNL     1     -43.801  58.491 -58.702  1.00  0.00    -0.333 N 
HETATM    8  H   UNL     1     -43.904  58.067 -59.625  1.00  0.00     0.168 HD
BRANCH   7   9
HETATM    9  C   UNL     1     -44.093  59.833 -58.661  1.00  0.00     0.179 C 
HETATM   10  S   UNL     1     -45.408  60.606 -57.969  1.00  0.00    -0.040 SA
BRANCH   9  11
HETATM   11  N   UNL     1     -43.156  60.668 -59.239  1.00  0.00    -0.299 N 
HETATM   12  C   UNL     1     -41.832  60.891 -58.889  1.00  0.00     0.257 C 
HETATM   13  O   UNL     1     -41.283  60.426 -57.898  1.00  0.00    -0.267 OA
HETATM   14  H   UNL     1     -43.497  61.083 -60.096  1.00  0.00     0.171 HD
BRANCH  12  15
HETATM   15  C   UNL     1     -41.080  61.754 -59.836  1.00  0.00     0.034 A 
HETATM   16  C   UNL     1     -40.073  62.582 -59.336  1.00  0.00     0.044 A 
HETATM   17  C   UNL     1     -39.315  63.356 -60.219  1.00  0.00     0.068 A 
HETATM   18 CL   UNL     1     -38.054  64.335 -59.552  1.00  0.00    -0.081 Cl
HETATM   19  C   UNL     1     -39.560  63.327 -61.604  1.00  0.00     0.089 A 
HETATM   20  C   UNL     1     -40.594  62.517 -62.087  1.00  0.00     0.039 A 
HETATM   21  C   UNL     1     -41.352  61.735 -61.209  1.00  0.00     0.020 A 
BRANCH  19  22
HETATM   22  O   UNL     1     -38.758  64.108 -62.393  1.00  0.00    -0.354 OA
HETATM   23  C   UNL     1     -38.451  63.640 -63.699  1.00  0.00     0.210 C 
ENDBRANCH  19  22
ENDBRANCH  12  15
ENDBRANCH   9  11
ENDBRANCH   7   9
ENDBRANCH   4   7
BRANCH   1  24
HETATM   24  N   UNL     1     -41.790  54.952 -54.728  1.00  0.00    -0.378 N 
HETATM   25  C   UNL     1     -41.935  55.393 -53.319  1.00  0.00     0.143 C 
HETATM   26  C   UNL     1     -41.809  54.200 -52.356  1.00  0.00     0.145 C 
HETATM   27  N   UNL     1     -40.584  53.424 -52.552  1.00  0.00    -0.349 N 
HETATM   28  C   UNL     1     -40.056  52.562 -51.598  1.00  0.00     0.219 C 
HETATM   29  C   UNL     1     -40.281  53.108 -53.953  1.00  0.00     0.145 C 
HETATM   30  O   UNL     1     -39.144  51.776 -51.867  1.00  0.00    -0.273 OA
HETATM   31  C   UNL     1     -40.492  54.269 -54.947  1.00  0.00     0.143 C 
BRANCH  28  32
HETATM   32  C   UNL     1     -40.603  52.597 -50.179  1.00  0.00     0.103 C 
BRANCH  32  33
HETATM   33  C   UNL     1     -40.014  53.734 -49.349  1.00  0.00     0.005 C 
HETATM   34  C   UNL     1     -41.044  54.760 -48.906  1.00  0.00     0.005 C 
ENDBRANCH  32  33
ENDBRANCH  28  32
ENDBRANCH   1  24
TORSDOF 8
ENDMDL
MODEL 8
REMARK VINA RESULT:      -7.1      3.958     10.322
REMARK  8 active torsions:
REMARK  status: ('A' for Active; 'I' for Inactive)
REMARK    1  A    between atoms: C_2  and  C_3 
REMARK    2  A    between atoms: C_3  and  C_4 
REMARK       I    between atoms: C_4  and  N_5 
REMARK    3  A    between atoms: N_8  and  C_9 
REMARK    4  A    between atoms: C_12  and  N_13 
REMARK    5  A    between atoms: N_13  and  C_14 
REMARK    6  A    between atoms: C_14  and  N_15 
REMARK       I    between atoms: N_15  and  C_16 
REMARK    7  A    between atoms: C_16  and  C_17 
REMARK    8  A    between atoms: C_21  and  O_22 
ROOT
HETATM    1  C   UNL     1     -42.928  56.860 -51.434  1.00  0.00     0.030 A 
HETATM    2  C   UNL     1     -44.295  56.832 -51.114  1.00  0.00     0.031 A 
HETATM    3  C   UNL     1     -45.102  57.980 -51.130  1.00  0.00     0.032 A 
HETATM    4  C   UNL     1     -44.581  59.210 -51.508  1.00  0.00     0.034 A 
HETATM    5  C   UNL     1     -43.253  59.254 -51.923  1.00  0.00     0.032 A 
HETATM    6  C   UNL     1     -42.442  58.103 -51.870  1.00  0.00     0.031 A 
ENDROOT
BRANCH   4   7
HETATM    7  N   UNL     1     -45.346  60.394 -51.569  1.00  0.00    -0.333 N 
HETATM    8  H   UNL     1     -45.341  60.965 -50.723  1.00  0.00     0.168 HD
BRANCH   7   9
HETATM    9  C   UNL     1     -46.179  60.856 -52.559  1.00  0.00     0.179 C 
HETATM   10  S   UNL     1     -47.352  62.049 -52.479  1.00  0.00    -0.040 SA
BRANCH   9  11
HETATM   11  N   UNL     1     -46.002  60.284 -53.804  1.00  0.00    -0.299 N 
HETATM   12  C   UNL     1     -45.174  60.671 -54.848  1.00  0.00     0.257 C 
HETATM   13  O   UNL     1     -44.500  61.693 -54.863  1.00  0.00    -0.267 OA
HETATM   14  H   UNL     1     -46.494  59.404 -53.889  1.00  0.00     0.171 HD
BRANCH  12  15
HETATM   15  C   UNL     1     -45.139  59.724 -55.992  1.00  0.00     0.034 A 
HETATM   16  C   UNL     1     -44.233  58.663 -55.960  1.00  0.00     0.044 A 
HETATM   17  C   UNL     1     -44.227  57.729 -56.999  1.00  0.00     0.068 A 
HETATM   18 CL   UNL     1     -43.111  56.411 -56.891  1.00  0.00    -0.081 Cl
HETATM   19  C   UNL     1     -45.109  57.849 -58.088  1.00  0.00     0.089 A 
HETATM   20  C   UNL     1     -45.990  58.937 -58.123  1.00  0.00     0.039 A 
HETATM   21  C   UNL     1     -46.004  59.871 -57.082  1.00  0.00     0.020 A 
BRANCH  19  22
HETATM   22  O   UNL     1     -45.040  56.879 -59.053  1.00  0.00    -0.354 OA
HETATM   23  C   UNL     1     -44.324  57.176 -60.245  1.00  0.00     0.210 C 
ENDBRANCH  19  22
ENDBRANCH  12  15
ENDBRANCH   9  11
ENDBRANCH   7   9
ENDBRANCH   4   7
BRANCH   1  24
HETATM   24  N   UNL     1     -42.149  55.691 -51.400  1.00  0.00    -0.378 N 
HETATM   25  C   UNL     1     -41.919  54.999 -52.692  1.00  0.00     0.143 C 
HETATM   26  C   UNL     1     -40.711  54.051 -52.599  1.00  0.00     0.145 C 
HETATM   27  N   UNL     1     -40.804  53.101 -51.490  1.00  0.00    -0.349 N 
HETATM   28  C   UNL     1     -40.063  51.927 -51.416  1.00  0.00     0.219 C 
HETATM   29  C   UNL     1     -41.209  53.696 -50.211  1.00  0.00     0.145 C 
HETATM   30  O   UNL     1     -40.013  51.255 -50.383  1.00  0.00    -0.273 OA
HETATM   31  C   UNL     1     -42.359  54.720 -50.299  1.00  0.00     0.143 C 
BRANCH  28  32
HETATM   32  C   UNL     1     -39.306  51.446 -52.645  1.00  0.00     0.103 C 
BRANCH  32  33
HETATM   33  C   UNL     1     -39.731  50.048 -53.088  1.00  0.00     0.005 C 
HETATM   34  C   UNL     1     -39.764  49.871 -54.597  1.00  0.00     0.005 C 
ENDBRANCH  32  33
ENDBRANCH  28  32
ENDBRANCH   1  24
TORSDOF 8
ENDMDL
MODEL 9
REMARK VINA RESULT:      -7.1      6.727     12.393
REMARK  8 active torsions:
REMARK  status: ('A' for Active; 'I' for Inactive)
REMARK    1  A    between atoms: C_2  and  C_3 
REMARK    2  A    between atoms: C_3  and  C_4 
REMARK       I    between atoms: C_4  and  N_5 
REMARK    3  A    between atoms: N_8  and  C_9 
REMARK    4  A    between atoms: C_12  and  N_13 
REMARK    5  A    between atoms: N_13  and  C_14 
REMARK    6  A    between atoms: C_14  and  N_15 
REMARK       I    between atoms: N_15  and  C_16 
REMARK    7  A    between atoms: C_16  and  C_17 
REMARK    8  A    between atoms: C_21  and  O_22 
ROOT
HETATM    1  C   UNL     1     -43.671  58.011 -51.494  1.00  0.00     0.030 A 
HETATM    2  C   UNL     1     -43.125  59.303 -51.420  1.00  0.00     0.031 A 
HETATM    3  C   UNL     1     -43.907  60.445 -51.187  1.00  0.00     0.032 A 
HETATM    4  C   UNL     1     -45.275  60.340 -50.978  1.00  0.00     0.034 A 
HETATM    5  C   UNL     1     -45.832  59.065 -50.950  1.00  0.00     0.032 A 
HETATM    6  C   UNL     1     -45.046  57.927 -51.220  1.00  0.00     0.031 A 
ENDROOT
BRANCH   4   7
HETATM    7  N   UNL     1     -46.109  61.446 -50.714  1.00  0.00    -0.333 N 
HETATM    8  H   UNL     1     -46.528  61.470 -49.783  1.00  0.00     0.168 HD
BRANCH   7   9
HETATM    9  C   UNL     1     -46.527  62.455 -51.548  1.00  0.00     0.179 C 
HETATM   10  S   UNL     1     -45.656  63.751 -52.153  1.00  0.00    -0.040 SA
BRANCH   9  11
HETATM   11  N   UNL     1     -47.837  62.372 -51.979  1.00  0.00    -0.299 N 
HETATM   12  C   UNL     1     -48.904  63.224 -51.739  1.00  0.00     0.257 C 
HETATM   13  O   UNL     1     -48.872  64.190 -50.986  1.00  0.00    -0.267 OA
HETATM   14  H   UNL     1     -47.970  61.619 -52.642  1.00  0.00     0.171 HD
BRANCH  12  15
HETATM   15  C   UNL     1     -50.142  62.893 -52.491  1.00  0.00     0.034 A 
HETATM   16  C   UNL     1     -50.025  62.344 -53.769  1.00  0.00     0.044 A 
HETATM   17  C   UNL     1     -51.177  61.970 -54.467  1.00  0.00     0.068 A 
HETATM   18 CL   UNL     1     -50.975  61.258 -56.031  1.00  0.00    -0.081 Cl
HETATM   19  C   UNL     1     -52.455  62.154 -53.909  1.00  0.00     0.089 A 
HETATM   20  C   UNL     1     -52.558  62.736 -52.640  1.00  0.00     0.039 A 
HETATM   21  C   UNL     1     -51.408  63.106 -51.934  1.00  0.00     0.020 A 
BRANCH  19  22
HETATM   22  O   UNL     1     -53.525  61.746 -54.661  1.00  0.00    -0.354 OA
HETATM   23  C   UNL     1     -54.373  62.747 -55.210  1.00  0.00     0.210 C 
ENDBRANCH  19  22
ENDBRANCH  12  15
ENDBRANCH   9  11
ENDBRANCH   7   9
ENDBRANCH   4   7
BRANCH   1  24
HETATM   24  N   UNL     1     -42.858  56.890 -51.737  1.00  0.00    -0.378 N 
HETATM   25  C   UNL     1     -43.223  56.035 -52.892  1.00  0.00     0.143 C 
HETATM   26  C   UNL     1     -42.034  55.159 -53.322  1.00  0.00     0.145 C 
HETATM   27  N   UNL     1     -41.470  54.370 -52.226  1.00  0.00    -0.349 N 
HETATM   28  C   UNL     1     -40.671  53.248 -52.416  1.00  0.00     0.219 C 
HETATM   29  C   UNL     1     -41.253  55.120 -50.984  1.00  0.00     0.145 C 
HETATM   30  O   UNL     1     -40.050  52.728 -51.486  1.00  0.00    -0.273 OA
HETATM   31  C   UNL     1     -42.398  56.075 -50.587  1.00  0.00     0.143 C 
BRANCH  28  32
HETATM   32  C   UNL     1     -40.571  52.630 -53.803  1.00  0.00     0.103 C 
BRANCH  32  33
HETATM   33  C   UNL     1     -39.630  51.430 -53.846  1.00  0.00     0.005 C 
HETATM   34  C   UNL     1     -40.306  50.142 -54.287  1.00  0.00     0.005 C 
ENDBRANCH  32  33
ENDBRANCH  28  32
ENDBRANCH   1  24
TORSDOF 8
ENDMDL
MODEL 10
REMARK VINA RESULT:      -7.0      1.646      2.113
REMARK  8 active torsions:
REMARK  status: ('A' for Active; 'I' for Inactive)
REMARK    1  A    between atoms: C_2  and  C_3 
REMARK    2  A    between atoms: C_3  and  C_4 
REMARK       I    between atoms: C_4  and  N_5 
REMARK    3  A    between atoms: N_8  and  C_9 
REMARK    4  A    between atoms: C_12  and  N_13 
REMARK    5  A    between atoms: N_13  and  C_14 
REMARK    6  A    between atoms: C_14  and  N_15 
REMARK       I    between atoms: N_15  and  C_16 
REMARK    7  A    between atoms: C_16  and  C_17 
REMARK    8  A    between atoms: C_21  and  O_22 
ROOT
HETATM    1  C   UNL     1     -44.639  58.404 -58.291  1.00  0.00     0.030 A 
HETATM    2  C   UNL     1     -43.327  57.906 -58.363  1.00  0.00     0.031 A 
HETATM    3  C   UNL     1     -42.379  58.116 -57.350  1.00  0.00     0.032 A 
HETATM    4  C   UNL     1     -42.714  58.805 -56.194  1.00  0.00     0.034 A 
HETATM    5  C   UNL     1     -44.033  59.229 -56.049  1.00  0.00     0.032 A 
HETATM    6  C   UNL     1     -44.968  59.046 -57.086  1.00  0.00     0.031 A 
ENDROOT
BRANCH   4   7
HETATM    7  N   UNL     1     -41.814  59.026 -55.130  1.00  0.00    -0.333 N 
HETATM    8  H   UNL     1     -40.992  59.585 -55.358  1.00  0.00     0.168 HD
BRANCH   7   9
HETATM    9  C   UNL     1     -41.822  58.526 -53.851  1.00  0.00     0.179 C 
HETATM   10  S   UNL     1     -42.293  59.274 -52.428  1.00  0.00    -0.040 SA
BRANCH   9  11
HETATM   11  N   UNL     1     -41.419  57.211 -53.720  1.00  0.00    -0.299 N 
HETATM   12  C   UNL     1     -42.178  56.051 -53.680  1.00  0.00     0.257 C 
HETATM   13  O   UNL     1     -43.402  56.017 -53.658  1.00  0.00    -0.267 OA
HETATM   14  H   UNL     1     -40.412  57.118 -53.761  1.00  0.00     0.171 HD
BRANCH  12  15
HETATM   15  C   UNL     1     -41.387  54.794 -53.678  1.00  0.00     0.034 A 
HETATM   16  C   UNL     1     -41.146  54.153 -52.462  1.00  0.00     0.044 A 
HETATM   17  C   UNL     1     -40.455  52.937 -52.448  1.00  0.00     0.068 A 
HETATM   18 CL   UNL     1     -40.216  52.165 -50.918  1.00  0.00    -0.081 Cl
HETATM   19  C   UNL     1     -39.984  52.357 -53.639  1.00  0.00     0.089 A 
HETATM   20  C   UNL     1     -40.205  53.027 -54.848  1.00  0.00     0.039 A 
HETATM   21  C   UNL     1     -40.902  54.241 -54.869  1.00  0.00     0.020 A 
BRANCH  19  22
HETATM   22  O   UNL     1     -39.329  51.158 -53.529  1.00  0.00    -0.354 OA
HETATM   23  C   UNL     1     -39.779  50.078 -54.336  1.00  0.00     0.210 C 
ENDBRANCH  19  22
ENDBRANCH  12  15
ENDBRANCH   9  11
ENDBRANCH   7   9
ENDBRANCH   4   7
BRANCH   1  24
HETATM   24  N   UNL     1     -45.560  58.181 -59.329  1.00  0.00    -0.378 N 
HETATM   25  C   UNL     1     -46.372  59.343 -59.765  1.00  0.00     0.143 C 
HETATM   26  C   UNL     1     -46.968  59.101 -61.163  1.00  0.00     0.145 C 
HETATM   27  N   UNL     1     -47.721  57.850 -61.263  1.00  0.00    -0.349 N 
HETATM   28  C   UNL     1     -48.650  57.588 -62.263  1.00  0.00     0.219 C 
HETATM   29  C   UNL     1     -47.046  56.684 -60.681  1.00  0.00     0.145 C 
HETATM   30  O   UNL     1     -49.115  56.459 -62.438  1.00  0.00    -0.273 OA
HETATM   31  C   UNL     1     -46.363  56.935 -59.320  1.00  0.00     0.143 C 
BRANCH  28  32
HETATM   32  C   UNL     1     -49.122  58.725 -63.158  1.00  0.00     0.103 C 
BRANCH  32  33
HETATM   33  C   UNL     1     -50.177  59.601 -62.487  1.00  0.00     0.005 C 
HETATM   34  C   UNL     1     -51.505  58.895 -62.269  1.00  0.00     0.005 C 
ENDBRANCH  32  33
ENDBRANCH  28  32
ENDBRANCH   1  24
TORSDOF 8
ENDMDL
