MODEL 1
REMARK VINA RESULT:      -8.2      0.000      0.000
REMARK  7 active torsions:
REMARK  status: ('A' for Active; 'I' for Inactive)
REMARK    1  A    between atoms: C_2  and  N_3 
REMARK    2  A    between atoms: N_7  and  C_8 
REMARK    3  A    between atoms: C_9  and  N_10 
REMARK       I    between atoms: N_10  and  C_11 
REMARK    4  A    between atoms: C_11  and  C_12 
REMARK    5  A    between atoms: C_15  and  C_16 
REMARK    6  A    between atoms: C_16  and  O_17 
REMARK    7  A    between atoms: O_17  and  C_18 
ROOT
HETATM    1  N   UNL     1     -42.576  57.201 -57.763  1.00  0.00    -0.321 N 
HETATM    2  C   UNL     1     -42.470  57.750 -56.502  1.00  0.00     0.256 C 
HETATM    3  O   UNL     1     -42.399  58.944 -56.238  1.00  0.00    -0.267 OA
HETATM    4  H   UNL     1     -42.345  56.222 -57.886  1.00  0.00     0.169 HD
ENDROOT
BRANCH   1   5
HETATM    5  C   UNL     1     -42.727  57.929 -58.965  1.00  0.00     0.061 A 
HETATM    6  C   UNL     1     -44.033  58.050 -59.517  1.00  0.00     0.057 A 
HETATM    7  C   UNL     1     -44.190  58.973 -60.567  1.00  0.00     0.031 A 
HETATM    8  C   UNL     1     -43.098  59.656 -61.116  1.00  0.00     0.002 A 
HETATM    9  C   UNL     1     -41.820  59.447 -60.618  1.00  0.00     0.002 A 
HETATM   10  C   UNL     1     -41.635  58.593 -59.537  1.00  0.00     0.032 A 
BRANCH   6  11
HETATM   11  N   UNL     1     -45.099  57.245 -59.041  1.00  0.00    -0.376 N 
HETATM   12  C   UNL     1     -45.189  55.902 -59.679  1.00  0.00     0.150 C 
HETATM   13  C   UNL     1     -46.001  55.943 -60.985  1.00  0.00     0.254 C 
HETATM   14  N   UNL     1     -47.404  56.491 -60.720  1.00  0.00    -0.068 N 
HETATM   15  H   UNL     1     -47.851  55.875 -60.028  1.00  0.00     0.280 HD
HETATM   16  C   UNL     1     -47.311  57.880 -60.076  1.00  0.00     0.254 C 
HETATM   17  C   UNL     1     -46.424  57.859 -58.806  1.00  0.00     0.150 C 
BRANCH  14  18
HETATM   18  C   UNL     1     -48.269  56.514 -61.957  1.00  0.00     0.230 C 
HETATM   19  C   UNL     1     -48.751  57.924 -62.253  1.00  0.00     0.034 C 
ENDBRANCH  14  18
ENDBRANCH   6  11
ENDBRANCH   1   5
BRANCH   2  20
HETATM   20  C   UNL     1     -42.285  56.758 -55.416  1.00  0.00     0.032 A 
HETATM   21  C   UNL     1     -42.727  55.449 -55.626  1.00  0.00     0.017 A 
HETATM   22  C   UNL     1     -42.570  54.493 -54.622  1.00  0.00     0.010 A 
HETATM   23  C   UNL     1     -41.951  54.832 -53.408  1.00  0.00    -0.034 A 
HETATM   24  C   UNL     1     -41.501  56.147 -53.213  1.00  0.00     0.010 A 
HETATM   25  C   UNL     1     -41.670  57.110 -54.211  1.00  0.00     0.017 A 
BRANCH  23  26
HETATM   26  C   UNL     1     -41.729  53.770 -52.355  1.00  0.00     0.214 C 
BRANCH  26  27
HETATM   27  O   UNL     1     -40.354  53.403 -52.401  1.00  0.00    -0.347 OA
BRANCH  27  28
HETATM   28  C   UNL     1     -40.063  52.083 -52.600  1.00  0.00     0.069 A 
HETATM   29  C   UNL     1     -39.698  51.162 -51.619  1.00  0.00     0.037 A 
HETATM   30  C   UNL     1     -39.424  49.835 -51.969  1.00  0.00     0.003 A 
HETATM   31  C   UNL     1     -39.516  49.426 -53.299  1.00  0.00     0.000 A 
HETATM   32  C   UNL     1     -39.882  50.342 -54.282  1.00  0.00     0.003 A 
HETATM   33  C   UNL     1     -40.156  51.664 -53.931  1.00  0.00     0.037 A 
ENDBRANCH  27  28
ENDBRANCH  26  27
ENDBRANCH  23  26
ENDBRANCH   2  20
TORSDOF 7
ENDMDL
MODEL 2
REMARK VINA RESULT:      -8.1      1.921      2.494
REMARK  7 active torsions:
REMARK  status: ('A' for Active; 'I' for Inactive)
REMARK    1  A    between atoms: C_2  and  N_3 
REMARK    2  A    between atoms: N_7  and  C_8 
REMARK    3  A    between atoms: C_9  and  N_10 
REMARK       I    between atoms: N_10  and  C_11 
REMARK    4  A    between atoms: C_11  and  C_12 
REMARK    5  A    between atoms: C_15  and  C_16 
REMARK    6  A    between atoms: C_16  and  O_17 
REMARK    7  A    between atoms: O_17  and  C_18 
ROOT
HETATM    1  N   UNL     1     -42.525  57.096 -57.296  1.00  0.00    -0.321 N 
HETATM    2  C   UNL     1     -42.811  55.776 -57.017  1.00  0.00     0.256 C 
HETATM    3  O   UNL     1     -43.456  55.011 -57.724  1.00  0.00    -0.267 OA
HETATM    4  H   UNL     1     -42.239  57.701 -56.536  1.00  0.00     0.169 HD
ENDROOT
BRANCH   1   5
HETATM    5  C   UNL     1     -42.841  57.767 -58.500  1.00  0.00     0.061 A 
HETATM    6  C   UNL     1     -44.084  58.456 -58.577  1.00  0.00     0.057 A 
HETATM    7  C   UNL     1     -44.264  59.307 -59.682  1.00  0.00     0.031 A 
HETATM    8  C   UNL     1     -43.318  59.390 -60.711  1.00  0.00     0.002 A 
HETATM    9  C   UNL     1     -42.156  58.634 -60.653  1.00  0.00     0.002 A 
HETATM   10  C   UNL     1     -41.912  57.831 -59.545  1.00  0.00     0.032 A 
BRANCH   6  11
HETATM   11  N   UNL     1     -45.089  58.250 -57.598  1.00  0.00    -0.376 N 
HETATM   12  C   UNL     1     -46.390  57.768 -58.142  1.00  0.00     0.150 C 
HETATM   13  C   UNL     1     -47.284  58.933 -58.600  1.00  0.00     0.254 C 
HETATM   14  N   UNL     1     -47.528  59.901 -57.442  1.00  0.00    -0.068 N 
HETATM   15  H   UNL     1     -47.976  59.369 -56.684  1.00  0.00     0.280 HD
HETATM   16  C   UNL     1     -46.190  60.408 -56.892  1.00  0.00     0.254 C 
HETATM   17  C   UNL     1     -45.252  59.236 -56.508  1.00  0.00     0.150 C 
BRANCH  14  18
HETATM   18  C   UNL     1     -48.440  61.046 -57.815  1.00  0.00     0.230 C 
HETATM   19  C   UNL     1     -48.769  61.013 -59.297  1.00  0.00     0.034 C 
ENDBRANCH  14  18
ENDBRANCH   6  11
ENDBRANCH   1   5
BRANCH   2  20
HETATM   20  C   UNL     1     -42.398  55.334 -55.663  1.00  0.00     0.032 A 
HETATM   21  C   UNL     1     -43.158  54.354 -55.020  1.00  0.00     0.017 A 
HETATM   22  C   UNL     1     -42.796  53.920 -53.744  1.00  0.00     0.010 A 
HETATM   23  C   UNL     1     -41.659  54.447 -53.110  1.00  0.00    -0.034 A 
HETATM   24  C   UNL     1     -40.897  55.423 -53.771  1.00  0.00     0.010 A 
HETATM   25  C   UNL     1     -41.266  55.870 -55.042  1.00  0.00     0.017 A 
BRANCH  23  26
HETATM   26  C   UNL     1     -41.242  53.920 -51.756  1.00  0.00     0.214 C 
BRANCH  26  27
HETATM   27  O   UNL     1     -39.925  53.395 -51.888  1.00  0.00    -0.347 OA
BRANCH  27  28
HETATM   28  C   UNL     1     -39.806  52.095 -52.290  1.00  0.00     0.069 A 
HETATM   29  C   UNL     1     -39.773  51.638 -53.607  1.00  0.00     0.037 A 
HETATM   30  C   UNL     1     -39.651  50.270 -53.873  1.00  0.00     0.003 A 
HETATM   31  C   UNL     1     -39.559  49.356 -52.823  1.00  0.00     0.000 A 
HETATM   32  C   UNL     1     -39.590  49.807 -51.507  1.00  0.00     0.003 A 
HETATM   33  C   UNL     1     -39.711  51.172 -51.244  1.00  0.00     0.037 A 
ENDBRANCH  27  28
ENDBRANCH  26  27
ENDBRANCH  23  26
ENDBRANCH   2  20
TORSDOF 7
ENDMDL
MODEL 3
REMARK VINA RESULT:      -8.1      1.826      4.132
REMARK  7 active torsions:
REMARK  status: ('A' for Active; 'I' for Inactive)
REMARK    1  A    between atoms: C_2  and  N_3 
REMARK    2  A    between atoms: N_7  and  C_8 
REMARK    3  A    between atoms: C_9  and  N_10 
REMARK       I    between atoms: N_10  and  C_11 
REMARK    4  A    between atoms: C_11  and  C_12 
REMARK    5  A    between atoms: C_15  and  C_16 
REMARK    6  A    between atoms: C_16  and  O_17 
REMARK    7  A    between atoms: O_17  and  C_18 
ROOT
HETATM    1  N   UNL     1     -44.270  57.204 -57.213  1.00  0.00    -0.321 N 
HETATM    2  C   UNL     1     -43.530  56.054 -57.395  1.00  0.00     0.256 C 
HETATM    3  O   UNL     1     -43.453  55.401 -58.428  1.00  0.00    -0.267 OA
HETATM    4  H   UNL     1     -44.486  57.496 -56.267  1.00  0.00     0.169 HD
ENDROOT
BRANCH   1   5
HETATM    5  C   UNL     1     -44.987  57.886 -58.222  1.00  0.00     0.061 A 
HETATM    6  C   UNL     1     -44.247  58.529 -59.254  1.00  0.00     0.057 A 
HETATM    7  C   UNL     1     -44.981  58.986 -60.363  1.00  0.00     0.031 A 
HETATM    8  C   UNL     1     -46.379  58.914 -60.403  1.00  0.00     0.002 A 
HETATM    9  C   UNL     1     -47.081  58.366 -59.339  1.00  0.00     0.002 A 
HETATM   10  C   UNL     1     -46.387  57.843 -58.254  1.00  0.00     0.032 A 
BRANCH   6  11
HETATM   11  N   UNL     1     -42.848  58.720 -59.131  1.00  0.00    -0.376 N 
HETATM   12  C   UNL     1     -42.456  59.901 -58.310  1.00  0.00     0.150 C 
HETATM   13  C   UNL     1     -42.409  61.190 -59.149  1.00  0.00     0.254 C 
HETATM   14  N   UNL     1     -41.440  61.023 -60.321  1.00  0.00    -0.068 N 
HETATM   15  H   UNL     1     -40.515  60.805 -59.928  1.00  0.00     0.280 HD
HETATM   16  C   UNL     1     -41.852  59.818 -61.174  1.00  0.00     0.254 C 
HETATM   17  C   UNL     1     -41.983  58.533 -60.316  1.00  0.00     0.150 C 
BRANCH  14  18
HETATM   18  C   UNL     1     -41.313  62.273 -61.159  1.00  0.00     0.230 C 
HETATM   19  C   UNL     1     -40.172  63.143 -60.662  1.00  0.00     0.034 C 
ENDBRANCH  14  18
ENDBRANCH   6  11
ENDBRANCH   1   5
BRANCH   2  20
HETATM   20  C   UNL     1     -42.904  55.527 -56.158  1.00  0.00     0.032 A 
HETATM   21  C   UNL     1     -42.000  56.339 -55.470  1.00  0.00     0.017 A 
HETATM   22  C   UNL     1     -41.393  55.870 -54.304  1.00  0.00     0.010 A 
HETATM   23  C   UNL     1     -41.701  54.594 -53.807  1.00  0.00    -0.034 A 
HETATM   24  C   UNL     1     -42.620  53.792 -54.500  1.00  0.00     0.010 A 
HETATM   25  C   UNL     1     -43.218  54.253 -55.677  1.00  0.00     0.017 A 
BRANCH  23  26
HETATM   26  C   UNL     1     -41.086  54.125 -52.507  1.00  0.00     0.214 C 
BRANCH  26  27
HETATM   27  O   UNL     1     -39.836  53.520 -52.819  1.00  0.00    -0.347 OA
BRANCH  27  28
HETATM   28  C   UNL     1     -39.788  52.155 -52.841  1.00  0.00     0.069 A 
HETATM   29  C   UNL     1     -39.898  51.344 -53.971  1.00  0.00     0.037 A 
HETATM   30  C   UNL     1     -39.835  49.952 -53.844  1.00  0.00     0.003 A 
HETATM   31  C   UNL     1     -39.659  49.368 -52.590  1.00  0.00     0.000 A 
HETATM   32  C   UNL     1     -39.547  50.174 -51.460  1.00  0.00     0.003 A 
HETATM   33  C   UNL     1     -39.610  51.561 -51.588  1.00  0.00     0.037 A 
ENDBRANCH  27  28
ENDBRANCH  26  27
ENDBRANCH  23  26
ENDBRANCH   2  20
TORSDOF 7
ENDMDL
MODEL 4
REMARK VINA RESULT:      -8.1      2.860      4.906
REMARK  7 active torsions:
REMARK  status: ('A' for Active; 'I' for Inactive)
REMARK    1  A    between atoms: C_2  and  N_3 
REMARK    2  A    between atoms: N_7  and  C_8 
REMARK    3  A    between atoms: C_9  and  N_10 
REMARK       I    between atoms: N_10  and  C_11 
REMARK    4  A    between atoms: C_11  and  C_12 
REMARK    5  A    between atoms: C_15  and  C_16 
REMARK    6  A    between atoms: C_16  and  O_17 
REMARK    7  A    between atoms: O_17  and  C_18 
ROOT
HETATM    1  N   UNL     1     -43.568  57.869 -52.625  1.00  0.00    -0.321 N 
HETATM    2  C   UNL     1     -42.727  57.911 -51.532  1.00  0.00     0.256 C 
HETATM    3  O   UNL     1     -42.322  58.921 -50.970  1.00  0.00    -0.267 OA
HETATM    4  H   UNL     1     -43.610  57.017 -53.172  1.00  0.00     0.169 HD
ENDROOT
BRANCH   1   5
HETATM    5  C   UNL     1     -44.193  58.987 -53.222  1.00  0.00     0.061 A 
HETATM    6  C   UNL     1     -43.792  59.357 -54.537  1.00  0.00     0.057 A 
HETATM    7  C   UNL     1     -44.590  60.310 -55.194  1.00  0.00     0.031 A 
HETATM    8  C   UNL     1     -45.660  60.946 -54.550  1.00  0.00     0.002 A 
HETATM    9  C   UNL     1     -45.969  60.632 -53.234  1.00  0.00     0.002 A 
HETATM   10  C   UNL     1     -45.245  59.646 -52.574  1.00  0.00     0.032 A 
BRANCH   6  11
HETATM   11  N   UNL     1     -42.622  58.807 -55.119  1.00  0.00    -0.376 N 
HETATM   12  C   UNL     1     -42.007  59.650 -56.182  1.00  0.00     0.150 C 
HETATM   13  C   UNL     1     -42.638  59.385 -57.559  1.00  0.00     0.254 C 
HETATM   14  N   UNL     1     -42.508  57.906 -57.926  1.00  0.00    -0.068 N 
HETATM   15  H   UNL     1     -41.505  57.676 -57.929  1.00  0.00     0.280 HD
HETATM   16  C   UNL     1     -43.154  57.039 -56.839  1.00  0.00     0.254 C 
HETATM   17  C   UNL     1     -42.580  57.363 -55.437  1.00  0.00     0.150 C 
BRANCH  14  18
HETATM   18  C   UNL     1     -43.069  57.587 -59.291  1.00  0.00     0.230 C 
HETATM   19  C   UNL     1     -42.698  56.176 -59.711  1.00  0.00     0.034 C 
ENDBRANCH  14  18
ENDBRANCH   6  11
ENDBRANCH   1   5
BRANCH   2  20
HETATM   20  C   UNL     1     -42.180  56.592 -51.131  1.00  0.00     0.032 A 
HETATM   21  C   UNL     1     -42.830  55.437 -51.573  1.00  0.00     0.017 A 
HETATM   22  C   UNL     1     -42.342  54.182 -51.209  1.00  0.00     0.010 A 
HETATM   23  C   UNL     1     -41.187  54.071 -50.418  1.00  0.00    -0.034 A 
HETATM   24  C   UNL     1     -40.535  55.238 -49.990  1.00  0.00     0.010 A 
HETATM   25  C   UNL     1     -41.032  56.497 -50.340  1.00  0.00     0.017 A 
BRANCH  23  26
HETATM   26  C   UNL     1     -40.631  52.704 -50.087  1.00  0.00     0.214 C 
BRANCH  26  27
HETATM   27  O   UNL     1     -39.497  52.490 -50.920  1.00  0.00    -0.347 OA
BRANCH  27  28
HETATM   28  C   UNL     1     -39.680  51.745 -52.050  1.00  0.00     0.069 A 
HETATM   29  C   UNL     1     -40.007  52.233 -53.315  1.00  0.00     0.037 A 
HETATM   30  C   UNL     1     -40.169  51.350 -54.388  1.00  0.00     0.003 A 
HETATM   31  C   UNL     1     -40.003  49.978 -54.199  1.00  0.00     0.000 A 
HETATM   32  C   UNL     1     -39.676  49.486 -52.938  1.00  0.00     0.003 A 
HETATM   33  C   UNL     1     -39.514  50.369 -51.870  1.00  0.00     0.037 A 
ENDBRANCH  27  28
ENDBRANCH  26  27
ENDBRANCH  23  26
ENDBRANCH   2  20
TORSDOF 7
ENDMDL
MODEL 5
REMARK VINA RESULT:      -8.0      2.664      4.264
REMARK  7 active torsions:
REMARK  status: ('A' for Active; 'I' for Inactive)
REMARK    1  A    between atoms: C_2  and  N_3 
REMARK    2  A    between atoms: N_7  and  C_8 
REMARK    3  A    between atoms: C_9  and  N_10 
REMARK       I    between atoms: N_10  and  C_11 
REMARK    4  A    between atoms: C_11  and  C_12 
REMARK    5  A    between atoms: C_15  and  C_16 
REMARK    6  A    between atoms: C_16  and  O_17 
REMARK    7  A    between atoms: O_17  and  C_18 
ROOT
HETATM    1  N   UNL     1     -42.672  58.298 -53.183  1.00  0.00    -0.321 N 
HETATM    2  C   UNL     1     -43.077  57.906 -51.924  1.00  0.00     0.256 C 
HETATM    3  O   UNL     1     -43.793  58.547 -51.164  1.00  0.00    -0.267 OA
HETATM    4  H   UNL     1     -41.872  57.836 -53.600  1.00  0.00     0.169 HD
ENDROOT
BRANCH   1   5
HETATM    5  C   UNL     1     -43.099  59.465 -53.856  1.00  0.00     0.061 A 
HETATM    6  C   UNL     1     -44.202  59.359 -54.750  1.00  0.00     0.057 A 
HETATM    7  C   UNL     1     -44.754  60.566 -55.214  1.00  0.00     0.031 A 
HETATM    8  C   UNL     1     -44.181  61.806 -54.903  1.00  0.00     0.002 A 
HETATM    9  C   UNL     1     -43.048  61.872 -54.105  1.00  0.00     0.002 A 
HETATM   10  C   UNL     1     -42.513  60.705 -53.573  1.00  0.00     0.032 A 
BRANCH   6  11
HETATM   11  N   UNL     1     -44.678  58.090 -55.165  1.00  0.00    -0.376 N 
HETATM   12  C   UNL     1     -43.609  57.117 -55.525  1.00  0.00     0.150 C 
HETATM   13  C   UNL     1     -43.169  57.267 -56.991  1.00  0.00     0.254 C 
HETATM   14  N   UNL     1     -44.369  57.093 -57.924  1.00  0.00    -0.068 N 
HETATM   15  H   UNL     1     -44.762  56.159 -57.751  1.00  0.00     0.280 HD
HETATM   16  C   UNL     1     -45.464  58.105 -57.564  1.00  0.00     0.254 C 
HETATM   17  C   UNL     1     -45.850  58.014 -56.065  1.00  0.00     0.150 C 
BRANCH  14  18
HETATM   18  C   UNL     1     -43.995  57.184 -59.385  1.00  0.00     0.230 C 
HETATM   19  C   UNL     1     -42.912  56.177 -59.728  1.00  0.00     0.034 C 
ENDBRANCH  14  18
ENDBRANCH   6  11
ENDBRANCH   1   5
BRANCH   2  20
HETATM   20  C   UNL     1     -42.447  56.654 -51.440  1.00  0.00     0.032 A 
HETATM   21  C   UNL     1     -42.935  55.434 -51.915  1.00  0.00     0.017 A 
HETATM   22  C   UNL     1     -42.364  54.240 -51.476  1.00  0.00     0.010 A 
HETATM   23  C   UNL     1     -41.287  54.255 -50.576  1.00  0.00    -0.034 A 
HETATM   24  C   UNL     1     -40.797  55.486 -50.115  1.00  0.00     0.010 A 
HETATM   25  C   UNL     1     -41.377  56.684 -50.541  1.00  0.00     0.017 A 
BRANCH  23  26
HETATM   26  C   UNL     1     -40.636  52.955 -50.160  1.00  0.00     0.214 C 
BRANCH  26  27
HETATM   27  O   UNL     1     -39.518  52.743 -51.017  1.00  0.00    -0.347 OA
BRANCH  27  28
HETATM   28  C   UNL     1     -39.680  51.868 -52.054  1.00  0.00     0.069 A 
HETATM   29  C   UNL     1     -39.999  52.200 -53.371  1.00  0.00     0.037 A 
HETATM   30  C   UNL     1     -40.138  51.195 -54.333  1.00  0.00     0.003 A 
HETATM   31  C   UNL     1     -39.956  49.857 -53.984  1.00  0.00     0.000 A 
HETATM   32  C   UNL     1     -39.636  49.521 -52.671  1.00  0.00     0.003 A 
HETATM   33  C   UNL     1     -39.497  50.525 -51.712  1.00  0.00     0.037 A 
ENDBRANCH  27  28
ENDBRANCH  26  27
ENDBRANCH  23  26
ENDBRANCH   2  20
TORSDOF 7
ENDMDL
MODEL 6
REMARK VINA RESULT:      -7.9      3.266      9.853
REMARK  7 active torsions:
REMARK  status: ('A' for Active; 'I' for Inactive)
REMARK    1  A    between atoms: C_2  and  N_3 
REMARK    2  A    between atoms: N_7  and  C_8 
REMARK    3  A    between atoms: C_9  and  N_10 
REMARK       I    between atoms: N_10  and  C_11 
REMARK    4  A    between atoms: C_11  and  C_12 
REMARK    5  A    between atoms: C_15  and  C_16 
REMARK    6  A    between atoms: C_16  and  O_17 
REMARK    7  A    between atoms: O_17  and  C_18 
ROOT
HETATM    1  N   UNL     1     -41.498  55.908 -55.988  1.00  0.00    -0.321 N 
HETATM    2  C   UNL     1     -42.517  55.740 -56.903  1.00  0.00     0.256 C 
HETATM    3  O   UNL     1     -43.283  54.786 -56.962  1.00  0.00    -0.267 OA
HETATM    4  H   UNL     1     -40.763  56.573 -56.198  1.00  0.00     0.169 HD
ENDROOT
BRANCH   1   5
HETATM    5  C   UNL     1     -41.228  55.055 -54.894  1.00  0.00     0.061 A 
HETATM    6  C   UNL     1     -41.859  55.339 -53.650  1.00  0.00     0.057 A 
HETATM    7  C   UNL     1     -41.767  54.348 -52.656  1.00  0.00     0.031 A 
HETATM    8  C   UNL     1     -41.003  53.189 -52.840  1.00  0.00     0.002 A 
HETATM    9  C   UNL     1     -40.321  52.983 -54.031  1.00  0.00     0.002 A 
HETATM   10  C   UNL     1     -40.441  53.909 -55.061  1.00  0.00     0.032 A 
BRANCH   6  11
HETATM   11  N   UNL     1     -42.509  56.580 -53.434  1.00  0.00    -0.376 N 
HETATM   12  C   UNL     1     -41.683  57.775 -53.764  1.00  0.00     0.150 C 
HETATM   13  C   UNL     1     -40.797  58.202 -52.582  1.00  0.00     0.254 C 
HETATM   14  N   UNL     1     -41.658  58.487 -51.350  1.00  0.00    -0.068 N 
HETATM   15  H   UNL     1     -42.320  59.233 -51.602  1.00  0.00     0.280 HD
HETATM   16  C   UNL     1     -42.497  57.253 -51.001  1.00  0.00     0.254 C 
HETATM   17  C   UNL     1     -43.328  56.768 -52.216  1.00  0.00     0.150 C 
BRANCH  14  18
HETATM   18  C   UNL     1     -40.850  58.957 -50.164  1.00  0.00     0.230 C 
HETATM   19  C   UNL     1     -39.507  59.509 -50.610  1.00  0.00     0.034 C 
ENDBRANCH  14  18
ENDBRANCH   6  11
ENDBRANCH   1   5
BRANCH   2  20
HETATM   20  C   UNL     1     -42.552  56.764 -57.973  1.00  0.00     0.032 A 
HETATM   21  C   UNL     1     -42.286  58.093 -57.635  1.00  0.00     0.017 A 
HETATM   22  C   UNL     1     -42.315  59.081 -58.620  1.00  0.00     0.010 A 
HETATM   23  C   UNL     1     -42.590  58.744 -59.955  1.00  0.00    -0.034 A 
HETATM   24  C   UNL     1     -42.844  57.405 -60.286  1.00  0.00     0.010 A 
HETATM   25  C   UNL     1     -42.831  56.416 -59.298  1.00  0.00     0.017 A 
BRANCH  23  26
HETATM   26  C   UNL     1     -42.553  59.815 -61.023  1.00  0.00     0.214 C 
BRANCH  26  27
HETATM   27  O   UNL     1     -42.517  61.076 -60.363  1.00  0.00    -0.347 OA
BRANCH  27  28
HETATM   28  C   UNL     1     -41.398  61.841 -60.533  1.00  0.00     0.069 A 
HETATM   29  C   UNL     1     -40.593  62.361 -59.520  1.00  0.00     0.037 A 
HETATM   30  C   UNL     1     -39.473  63.136 -59.841  1.00  0.00     0.003 A 
HETATM   31  C   UNL     1     -39.154  63.390 -61.174  1.00  0.00     0.000 A 
HETATM   32  C   UNL     1     -39.954  62.872 -62.189  1.00  0.00     0.003 A 
HETATM   33  C   UNL     1     -41.070  62.100 -61.867  1.00  0.00     0.037 A 
ENDBRANCH  27  28
ENDBRANCH  26  27
ENDBRANCH  23  26
ENDBRANCH   2  20
TORSDOF 7
ENDMDL
MODEL 7
REMARK VINA RESULT:      -7.5      4.016      5.881
REMARK  7 active torsions:
REMARK  status: ('A' for Active; 'I' for Inactive)
REMARK    1  A    between atoms: C_2  and  N_3 
REMARK    2  A    between atoms: N_7  and  C_8 
REMARK    3  A    between atoms: C_9  and  N_10 
REMARK       I    between atoms: N_10  and  C_11 
REMARK    4  A    between atoms: C_11  and  C_12 
REMARK    5  A    between atoms: C_15  and  C_16 
REMARK    6  A    between atoms: C_16  and  O_17 
REMARK    7  A    between atoms: O_17  and  C_18 
ROOT
HETATM    1  N   UNL     1     -42.613  59.303 -51.293  1.00  0.00    -0.321 N 
HETATM    2  C   UNL     1     -41.358  58.775 -51.514  1.00  0.00     0.256 C 
HETATM    3  O   UNL     1     -40.403  59.365 -52.004  1.00  0.00    -0.267 OA
HETATM    4  H   UNL     1     -43.389  58.667 -51.153  1.00  0.00     0.169 HD
ENDROOT
BRANCH   1   5
HETATM    5  C   UNL     1     -42.984  60.651 -51.500  1.00  0.00     0.061 A 
HETATM    6  C   UNL     1     -43.719  60.972 -52.676  1.00  0.00     0.057 A 
HETATM    7  C   UNL     1     -44.279  62.260 -52.737  1.00  0.00     0.031 A 
HETATM    8  C   UNL     1     -44.036  63.217 -51.744  1.00  0.00     0.002 A 
HETATM    9  C   UNL     1     -43.237  62.905 -50.654  1.00  0.00     0.002 A 
HETATM   10  C   UNL     1     -42.720  61.621 -50.525  1.00  0.00     0.032 A 
BRANCH   6  11
HETATM   11  N   UNL     1     -43.835  60.036 -53.735  1.00  0.00    -0.376 N 
HETATM   12  C   UNL     1     -42.745  60.111 -54.748  1.00  0.00     0.150 C 
HETATM   13  C   UNL     1     -43.045  61.156 -55.836  1.00  0.00     0.254 C 
HETATM   14  N   UNL     1     -44.374  60.838 -56.522  1.00  0.00    -0.068 N 
HETATM   15  H   UNL     1     -44.295  59.896 -56.928  1.00  0.00     0.280 HD
HETATM   16  C   UNL     1     -45.500  60.776 -55.483  1.00  0.00     0.254 C 
HETATM   17  C   UNL     1     -45.162  59.785 -54.339  1.00  0.00     0.150 C 
BRANCH  14  18
HETATM   18  C   UNL     1     -44.706  61.804 -57.636  1.00  0.00     0.230 C 
HETATM   19  C   UNL     1     -43.490  62.061 -58.507  1.00  0.00     0.034 C 
ENDBRANCH  14  18
ENDBRANCH   6  11
ENDBRANCH   1   5
BRANCH   2  20
HETATM   20  C   UNL     1     -41.251  57.321 -51.247  1.00  0.00     0.032 A 
HETATM   21  C   UNL     1     -41.456  56.431 -52.305  1.00  0.00     0.017 A 
HETATM   22  C   UNL     1     -41.365  55.057 -52.084  1.00  0.00     0.010 A 
HETATM   23  C   UNL     1     -41.047  54.561 -50.809  1.00  0.00    -0.034 A 
HETATM   24  C   UNL     1     -40.832  55.464 -49.757  1.00  0.00     0.010 A 
HETATM   25  C   UNL     1     -40.937  56.841 -49.972  1.00  0.00     0.017 A 
BRANCH  23  26
HETATM   26  C   UNL     1     -40.887  53.072 -50.600  1.00  0.00     0.214 C 
BRANCH  26  27
HETATM   27  O   UNL     1     -39.663  52.683 -51.213  1.00  0.00    -0.347 OA
BRANCH  27  28
HETATM   28  C   UNL     1     -39.731  51.767 -52.225  1.00  0.00     0.069 A 
HETATM   29  C   UNL     1     -40.031  52.034 -53.561  1.00  0.00     0.037 A 
HETATM   30  C   UNL     1     -40.070  50.991 -54.493  1.00  0.00     0.003 A 
HETATM   31  C   UNL     1     -39.807  49.681 -54.093  1.00  0.00     0.000 A 
HETATM   32  C   UNL     1     -39.507  49.410 -52.761  1.00  0.00     0.003 A 
HETATM   33  C   UNL     1     -39.468  50.451 -51.833  1.00  0.00     0.037 A 
ENDBRANCH  27  28
ENDBRANCH  26  27
ENDBRANCH  23  26
ENDBRANCH   2  20
TORSDOF 7
ENDMDL
MODEL 8
REMARK VINA RESULT:      -7.4      5.943      7.843
REMARK  7 active torsions:
REMARK  status: ('A' for Active; 'I' for Inactive)
REMARK    1  A    between atoms: C_2  and  N_3 
REMARK    2  A    between atoms: N_7  and  C_8 
REMARK    3  A    between atoms: C_9  and  N_10 
REMARK       I    between atoms: N_10  and  C_11 
REMARK    4  A    between atoms: C_11  and  C_12 
REMARK    5  A    between atoms: C_15  and  C_16 
REMARK    6  A    between atoms: C_16  and  O_17 
REMARK    7  A    between atoms: O_17  and  C_18 
ROOT
HETATM    1  N   UNL     1     -42.920  59.683 -52.128  1.00  0.00    -0.321 N 
HETATM    2  C   UNL     1     -41.636  59.179 -52.133  1.00  0.00     0.256 C 
HETATM    3  O   UNL     1     -40.633  59.764 -52.522  1.00  0.00    -0.267 OA
HETATM    4  H   UNL     1     -43.695  59.033 -52.056  1.00  0.00     0.169 HD
ENDROOT
BRANCH   1   5
HETATM    5  C   UNL     1     -43.286  61.003 -52.476  1.00  0.00     0.061 A 
HETATM    6  C   UNL     1     -44.048  61.758 -51.541  1.00  0.00     0.057 A 
HETATM    7  C   UNL     1     -44.187  63.132 -51.806  1.00  0.00     0.031 A 
HETATM    8  C   UNL     1     -43.697  63.709 -52.984  1.00  0.00     0.002 A 
HETATM    9  C   UNL     1     -43.039  62.928 -53.923  1.00  0.00     0.002 A 
HETATM   10  C   UNL     1     -42.824  61.579 -53.667  1.00  0.00     0.032 A 
BRANCH   6  11
HETATM   11  N   UNL     1     -44.656  61.128 -50.426  1.00  0.00    -0.376 N 
HETATM   12  C   UNL     1     -46.146  61.146 -50.445  1.00  0.00     0.150 C 
HETATM   13  C   UNL     1     -46.710  62.440 -49.833  1.00  0.00     0.254 C 
HETATM   14  N   UNL     1     -46.203  62.613 -48.400  1.00  0.00    -0.068 N 
HETATM   15  H   UNL     1     -46.506  61.790 -47.864  1.00  0.00     0.280 HD
HETATM   16  C   UNL     1     -44.670  62.609 -48.383  1.00  0.00     0.254 C 
HETATM   17  C   UNL     1     -44.097  61.346 -49.074  1.00  0.00     0.150 C 
BRANCH  14  18
HETATM   18  C   UNL     1     -46.758  63.845 -47.725  1.00  0.00     0.230 C 
HETATM   19  C   UNL     1     -47.962  64.378 -48.481  1.00  0.00     0.034 C 
ENDBRANCH  14  18
ENDBRANCH   6  11
ENDBRANCH   1   5
BRANCH   2  20
HETATM   20  C   UNL     1     -41.538  57.749 -51.756  1.00  0.00     0.032 A 
HETATM   21  C   UNL     1     -41.734  56.783 -52.746  1.00  0.00     0.017 A 
HETATM   22  C   UNL     1     -41.651  55.429 -52.420  1.00  0.00     0.010 A 
HETATM   23  C   UNL     1     -41.352  55.030 -51.108  1.00  0.00    -0.034 A 
HETATM   24  C   UNL     1     -41.146  56.009 -50.124  1.00  0.00     0.010 A 
HETATM   25  C   UNL     1     -41.243  57.366 -50.444  1.00  0.00     0.017 A 
BRANCH  23  26
HETATM   26  C   UNL     1     -41.201  53.560 -50.785  1.00  0.00     0.214 C 
BRANCH  26  27
HETATM   27  O   UNL     1     -39.926  53.145 -51.265  1.00  0.00    -0.347 OA
BRANCH  27  28
HETATM   28  C   UNL     1     -39.901  52.135 -52.185  1.00  0.00     0.069 A 
HETATM   29  C   UNL     1     -40.123  52.262 -53.556  1.00  0.00     0.037 A 
HETATM   30  C   UNL     1     -40.069  51.135 -54.383  1.00  0.00     0.003 A 
HETATM   31  C   UNL     1     -39.792  49.880 -53.843  1.00  0.00     0.000 A 
HETATM   32  C   UNL     1     -39.569  49.748 -52.475  1.00  0.00     0.003 A 
HETATM   33  C   UNL     1     -39.622  50.873 -51.652  1.00  0.00     0.037 A 
ENDBRANCH  27  28
ENDBRANCH  26  27
ENDBRANCH  23  26
ENDBRANCH   2  20
TORSDOF 7
ENDMDL
MODEL 9
REMARK VINA RESULT:      -7.4      1.994      2.794
REMARK  7 active torsions:
REMARK  status: ('A' for Active; 'I' for Inactive)
REMARK    1  A    between atoms: C_2  and  N_3 
REMARK    2  A    between atoms: N_7  and  C_8 
REMARK    3  A    between atoms: C_9  and  N_10 
REMARK       I    between atoms: N_10  and  C_11 
REMARK    4  A    between atoms: C_11  and  C_12 
REMARK    5  A    between atoms: C_15  and  C_16 
REMARK    6  A    between atoms: C_16  and  O_17 
REMARK    7  A    between atoms: O_17  and  C_18 
ROOT
HETATM    1  N   UNL     1     -42.187  59.028 -56.269  1.00  0.00    -0.321 N 
HETATM    2  C   UNL     1     -42.463  59.748 -55.124  1.00  0.00     0.256 C 
HETATM    3  O   UNL     1     -42.840  60.912 -55.077  1.00  0.00    -0.267 OA
HETATM    4  H   UNL     1     -41.624  58.190 -56.190  1.00  0.00     0.169 HD
ENDROOT
BRANCH   1   5
HETATM    5  C   UNL     1     -42.393  59.481 -57.592  1.00  0.00     0.061 A 
HETATM    6  C   UNL     1     -43.580  59.073 -58.264  1.00  0.00     0.057 A 
HETATM    7  C   UNL     1     -43.873  59.726 -59.474  1.00  0.00     0.031 A 
HETATM    8  C   UNL     1     -42.990  60.651 -60.046  1.00  0.00     0.002 A 
HETATM    9  C   UNL     1     -41.795  60.959 -59.413  1.00  0.00     0.002 A 
HETATM   10  C   UNL     1     -41.500  60.383 -58.183  1.00  0.00     0.032 A 
BRANCH   6  11
HETATM   11  N   UNL     1     -44.388  58.034 -57.740  1.00  0.00    -0.376 N 
HETATM   12  C   UNL     1     -43.975  56.663 -58.151  1.00  0.00     0.150 C 
HETATM   13  C   UNL     1     -44.592  56.260 -59.502  1.00  0.00     0.254 C 
HETATM   14  N   UNL     1     -46.117  56.347 -59.433  1.00  0.00    -0.068 N 
HETATM   15  H   UNL     1     -46.430  55.716 -58.683  1.00  0.00     0.280 HD
HETATM   16  C   UNL     1     -46.544  57.762 -59.025  1.00  0.00     0.254 C 
HETATM   17  C   UNL     1     -45.858  58.204 -57.707  1.00  0.00     0.150 C 
BRANCH  14  18
HETATM   18  C   UNL     1     -46.788  55.919 -60.717  1.00  0.00     0.230 C 
HETATM   19  C   UNL     1     -47.670  57.029 -61.262  1.00  0.00     0.034 C 
ENDBRANCH  14  18
ENDBRANCH   6  11
ENDBRANCH   1   5
BRANCH   2  20
HETATM   20  C   UNL     1     -42.119  59.047 -53.864  1.00  0.00     0.032 A 
HETATM   21  C   UNL     1     -43.151  58.472 -53.117  1.00  0.00     0.017 A 
HETATM   22  C   UNL     1     -42.859  57.809 -51.925  1.00  0.00     0.010 A 
HETATM   23  C   UNL     1     -41.532  57.695 -51.481  1.00  0.00    -0.034 A 
HETATM   24  C   UNL     1     -40.503  58.266 -52.245  1.00  0.00     0.010 A 
HETATM   25  C   UNL     1     -40.794  58.945 -53.432  1.00  0.00     0.017 A 
BRANCH  23  26
HETATM   26  C   UNL     1     -41.225  56.916 -50.222  1.00  0.00     0.214 C 
BRANCH  26  27
HETATM   27  O   UNL     1     -41.949  55.692 -50.288  1.00  0.00    -0.347 OA
BRANCH  27  28
HETATM   28  C   UNL     1     -41.434  54.701 -51.075  1.00  0.00     0.069 A 
HETATM   29  C   UNL     1     -41.884  54.339 -52.345  1.00  0.00     0.037 A 
HETATM   30  C   UNL     1     -41.262  53.296 -53.039  1.00  0.00     0.003 A 
HETATM   31  C   UNL     1     -40.188  52.614 -52.467  1.00  0.00     0.000 A 
HETATM   32  C   UNL     1     -39.735  52.973 -51.200  1.00  0.00     0.003 A 
HETATM   33  C   UNL     1     -40.357  54.013 -50.510  1.00  0.00     0.037 A 
ENDBRANCH  27  28
ENDBRANCH  26  27
ENDBRANCH  23  26
ENDBRANCH   2  20
TORSDOF 7
ENDMDL
MODEL 10
REMARK VINA RESULT:      -7.3      2.009      3.883
REMARK  7 active torsions:
REMARK  status: ('A' for Active; 'I' for Inactive)
REMARK    1  A    between atoms: C_2  and  N_3 
REMARK    2  A    between atoms: N_7  and  C_8 
REMARK    3  A    between atoms: C_9  and  N_10 
REMARK       I    between atoms: N_10  and  C_11 
REMARK    4  A    between atoms: C_11  and  C_12 
REMARK    5  A    between atoms: C_15  and  C_16 
REMARK    6  A    between atoms: C_16  and  O_17 
REMARK    7  A    between atoms: O_17  and  C_18 
ROOT
HETATM    1  N   UNL     1     -44.486  57.668 -56.627  1.00  0.00    -0.321 N 
HETATM    2  C   UNL     1     -44.378  58.337 -55.425  1.00  0.00     0.256 C 
HETATM    3  O   UNL     1     -44.787  59.467 -55.188  1.00  0.00    -0.267 OA
HETATM    4  H   UNL     1     -43.880  56.875 -56.797  1.00  0.00     0.169 HD
ENDROOT
BRANCH   1   5
HETATM    5  C   UNL     1     -45.181  58.136 -57.766  1.00  0.00     0.061 A 
HETATM    6  C   UNL     1     -44.418  58.584 -58.881  1.00  0.00     0.057 A 
HETATM    7  C   UNL     1     -45.124  58.812 -60.076  1.00  0.00     0.031 A 
HETATM    8  C   UNL     1     -46.519  58.710 -60.139  1.00  0.00     0.002 A 
HETATM    9  C   UNL     1     -47.246  58.361 -59.010  1.00  0.00     0.002 A 
HETATM   10  C   UNL     1     -46.579  58.064 -57.827  1.00  0.00     0.032 A 
BRANCH   6  11
HETATM   11  N   UNL     1     -43.026  58.819 -58.758  1.00  0.00    -0.376 N 
HETATM   12  C   UNL     1     -42.672  60.145 -58.179  1.00  0.00     0.150 C 
HETATM   13  C   UNL     1     -42.611  61.242 -59.256  1.00  0.00     0.254 C 
HETATM   14  N   UNL     1     -41.604  60.861 -60.343  1.00  0.00    -0.068 N 
HETATM   15  H   UNL     1     -40.690  60.740 -59.888  1.00  0.00     0.280 HD
HETATM   16  C   UNL     1     -41.977  59.503 -60.949  1.00  0.00     0.254 C 
HETATM   17  C   UNL     1     -42.122  58.413 -59.857  1.00  0.00     0.150 C 
BRANCH  14  18
HETATM   18  C   UNL     1     -41.463  61.921 -61.410  1.00  0.00     0.230 C 
HETATM   19  C   UNL     1     -42.209  61.521 -62.670  1.00  0.00     0.034 C 
ENDBRANCH  14  18
ENDBRANCH   6  11
ENDBRANCH   1   5
BRANCH   2  20
HETATM   20  C   UNL     1     -43.561  57.634 -54.407  1.00  0.00     0.032 A 
HETATM   21  C   UNL     1     -44.203  57.108 -53.283  1.00  0.00     0.017 A 
HETATM   22  C   UNL     1     -43.461  56.444 -52.306  1.00  0.00     0.010 A 
HETATM   23  C   UNL     1     -42.074  56.283 -52.455  1.00  0.00    -0.034 A 
HETATM   24  C   UNL     1     -41.442  56.805 -53.593  1.00  0.00     0.010 A 
HETATM   25  C   UNL     1     -42.181  57.484 -54.566  1.00  0.00     0.017 A 
BRANCH  23  26
HETATM   26  C   UNL     1     -41.293  55.504 -51.420  1.00  0.00     0.214 C 
BRANCH  26  27
HETATM   27  O   UNL     1     -41.765  54.161 -51.449  1.00  0.00    -0.347 OA
BRANCH  27  28
HETATM   28  C   UNL     1     -40.975  53.231 -52.063  1.00  0.00     0.069 A 
HETATM   29  C   UNL     1     -40.017  52.426 -51.447  1.00  0.00     0.037 A 
HETATM   30  C   UNL     1     -39.274  51.514 -52.204  1.00  0.00     0.003 A 
HETATM   31  C   UNL     1     -39.488  51.403 -53.577  1.00  0.00     0.000 A 
HETATM   32  C   UNL     1     -40.444  52.204 -54.197  1.00  0.00     0.003 A 
HETATM   33  C   UNL     1     -41.185  53.112 -53.440  1.00  0.00     0.037 A 
ENDBRANCH  27  28
ENDBRANCH  26  27
ENDBRANCH  23  26
ENDBRANCH   2  20
TORSDOF 7
ENDMDL
