MODEL 1
REMARK VINA RESULT:      -7.9      0.000      0.000
REMARK  6 active torsions:
REMARK  status: ('A' for Active; 'I' for Inactive)
REMARK    1  A    between atoms: O_2  and  C_3 
REMARK    2  A    between atoms: C_7  and  C_8 
REMARK    3  A    between atoms: C_8  and  N_9 
REMARK       I    between atoms: N_9  and  C_10 
REMARK       I    between atoms: C_10  and  N_12 
REMARK    4  A    between atoms: N_12  and  C_13 
REMARK    5  A    between atoms: C_16  and  C_21 
REMARK    6  A    between atoms: C_18  and  O_19 
ROOT
HETATM    1  N   UNL     1     -42.543  57.607 -56.159  1.00  0.00    -0.339 N 
HETATM    2  C   UNL     1     -42.567  56.426 -55.448  1.00  0.00     0.321 C 
HETATM    3  O   UNL     1     -43.616  55.927 -55.058  1.00  0.00    -0.247 OA
HETATM    4  N   UNL     1     -41.305  55.920 -55.259  1.00  0.00    -0.306 N 
HETATM    5  H   UNL     1     -41.691  58.144 -56.145  1.00  0.00     0.164 HD
HETATM    6  H   UNL     1     -40.523  56.462 -55.597  1.00  0.00     0.171 HD
ENDROOT
BRANCH   4   7
HETATM    7  C   UNL     1     -40.948  54.718 -54.609  1.00  0.00     0.069 A 
HETATM    8  C   UNL     1     -40.650  53.531 -55.272  1.00  0.00     0.033 A 
HETATM    9  C   UNL     1     -40.296  52.383 -54.550  1.00  0.00     0.015 A 
HETATM   10  C   UNL     1     -40.225  52.399 -53.150  1.00  0.00    -0.020 A 
HETATM   11  C   UNL     1     -40.522  53.594 -52.481  1.00  0.00     0.051 A 
HETATM   12  C   UNL     1     -40.898  54.732 -53.205  1.00  0.00     0.095 A 
BRANCH  10  13
HETATM   13  C   UNL     1     -39.861  51.191 -52.428  1.00  0.00     0.010 A 
HETATM   14  C   UNL     1     -39.679  50.964 -51.041  1.00  0.00     0.152 A 
HETATM   15  N   UNL     1     -39.351  49.700 -50.759  1.00  0.00    -0.187 NA
HETATM   16  N   UNL     1     -39.330  49.107 -51.962  1.00  0.00    -0.289 N 
HETATM   17  H   UNL     1     -39.108  48.119 -52.006  1.00  0.00     0.188 HD
HETATM   18  C   UNL     1     -39.625  49.954 -52.992  1.00  0.00     0.123 A 
ENDBRANCH  10  13
BRANCH  12  19
HETATM   19  O   UNL     1     -41.198  55.908 -52.556  1.00  0.00    -0.354 OA
HETATM   20  C   UNL     1     -42.172  55.688 -51.535  1.00  0.00     0.210 C 
ENDBRANCH  12  19
ENDBRANCH   4   7
BRANCH   1  21
HETATM   21  C   UNL     1     -43.776  58.343 -56.335  1.00  0.00     0.163 C 
BRANCH  21  22
HETATM   22  C   UNL     1     -44.591  57.838 -57.497  1.00  0.00    -0.038 A 
HETATM   23  C   UNL     1     -45.956  58.137 -57.600  1.00  0.00     0.009 A 
HETATM   24  C   UNL     1     -46.689  57.723 -58.711  1.00  0.00     0.003 A 
HETATM   25  C   UNL     1     -46.057  57.022 -59.738  1.00  0.00     0.037 A 
HETATM   26  C   UNL     1     -44.693  56.735 -59.667  1.00  0.00     0.068 A 
HETATM   27  C   UNL     1     -43.966  57.137 -58.545  1.00  0.00     0.045 A 
BRANCH  26  28
HETATM   28  O   UNL     1     -44.194  56.065 -60.750  1.00  0.00    -0.356 OA
HETATM   29  C   UNL     1     -44.954  54.961 -61.227  1.00  0.00     0.210 C 
ENDBRANCH  26  28
ENDBRANCH  21  22
ENDBRANCH   1  21
TORSDOF 6
ENDMDL
MODEL 2
REMARK VINA RESULT:      -7.8      2.658      9.220
REMARK  6 active torsions:
REMARK  status: ('A' for Active; 'I' for Inactive)
REMARK    1  A    between atoms: O_2  and  C_3 
REMARK    2  A    between atoms: C_7  and  C_8 
REMARK    3  A    between atoms: C_8  and  N_9 
REMARK       I    between atoms: N_9  and  C_10 
REMARK       I    between atoms: C_10  and  N_12 
REMARK    4  A    between atoms: N_12  and  C_13 
REMARK    5  A    between atoms: C_16  and  C_21 
REMARK    6  A    between atoms: C_18  and  O_19 
ROOT
HETATM    1  N   UNL     1     -41.041  55.792 -54.704  1.00  0.00    -0.339 N 
HETATM    2  C   UNL     1     -42.261  55.847 -55.343  1.00  0.00     0.321 C 
HETATM    3  O   UNL     1     -43.309  55.596 -54.759  1.00  0.00    -0.247 OA
HETATM    4  N   UNL     1     -42.130  56.213 -56.660  1.00  0.00    -0.306 N 
HETATM    5  H   UNL     1     -40.221  55.654 -55.273  1.00  0.00     0.164 HD
HETATM    6  H   UNL     1     -41.197  56.347 -57.023  1.00  0.00     0.171 HD
ENDROOT
BRANCH   4   7
HETATM    7  C   UNL     1     -43.160  56.403 -57.607  1.00  0.00     0.069 A 
HETATM    8  C   UNL     1     -43.473  55.493 -58.613  1.00  0.00     0.033 A 
HETATM    9  C   UNL     1     -44.519  55.756 -59.509  1.00  0.00     0.015 A 
HETATM   10  C   UNL     1     -45.279  56.930 -59.413  1.00  0.00    -0.020 A 
HETATM   11  C   UNL     1     -44.967  57.845 -58.400  1.00  0.00     0.051 A 
HETATM   12  C   UNL     1     -43.907  57.590 -57.521  1.00  0.00     0.095 A 
BRANCH  10  13
HETATM   13  C   UNL     1     -46.353  57.177 -60.361  1.00  0.00     0.010 A 
HETATM   14  C   UNL     1     -47.180  56.274 -61.075  1.00  0.00     0.152 A 
HETATM   15  N   UNL     1     -48.072  56.891 -61.856  1.00  0.00    -0.187 NA
HETATM   16  N   UNL     1     -47.828  58.192 -61.641  1.00  0.00    -0.289 N 
HETATM   17  H   UNL     1     -48.398  58.874 -62.129  1.00  0.00     0.188 HD
HETATM   18  C   UNL     1     -46.809  58.417 -60.759  1.00  0.00     0.123 A 
ENDBRANCH  10  13
BRANCH  12  19
HETATM   19  O   UNL     1     -43.589  58.486 -56.526  1.00  0.00    -0.354 OA
HETATM   20  C   UNL     1     -44.744  58.809 -55.749  1.00  0.00     0.210 C 
ENDBRANCH  12  19
ENDBRANCH   4   7
BRANCH   1  21
HETATM   21  C   UNL     1     -40.984  55.297 -53.346  1.00  0.00     0.163 C 
BRANCH  21  22
HETATM   22  C   UNL     1     -40.608  53.839 -53.277  1.00  0.00    -0.038 A 
HETATM   23  C   UNL     1     -40.321  53.116 -54.443  1.00  0.00     0.009 A 
HETATM   24  C   UNL     1     -39.910  51.787 -54.367  1.00  0.00     0.003 A 
HETATM   25  C   UNL     1     -39.766  51.174 -53.122  1.00  0.00     0.037 A 
HETATM   26  C   UNL     1     -40.024  51.883 -51.947  1.00  0.00     0.068 A 
HETATM   27  C   UNL     1     -40.451  53.210 -52.028  1.00  0.00     0.045 A 
BRANCH  26  28
HETATM   28  O   UNL     1     -39.821  51.173 -50.796  1.00  0.00    -0.356 OA
HETATM   29  C   UNL     1     -39.406  49.820 -50.941  1.00  0.00     0.210 C 
ENDBRANCH  26  28
ENDBRANCH  21  22
ENDBRANCH   1  21
TORSDOF 6
ENDMDL
MODEL 3
REMARK VINA RESULT:      -7.8      4.961      6.326
REMARK  6 active torsions:
REMARK  status: ('A' for Active; 'I' for Inactive)
REMARK    1  A    between atoms: O_2  and  C_3 
REMARK    2  A    between atoms: C_7  and  C_8 
REMARK    3  A    between atoms: C_8  and  N_9 
REMARK       I    between atoms: N_9  and  C_10 
REMARK       I    between atoms: C_10  and  N_12 
REMARK    4  A    between atoms: N_12  and  C_13 
REMARK    5  A    between atoms: C_16  and  C_21 
REMARK    6  A    between atoms: C_18  and  O_19 
ROOT
HETATM    1  N   UNL     1     -41.464  58.643 -49.990  1.00  0.00    -0.339 N 
HETATM    2  C   UNL     1     -41.100  57.701 -50.928  1.00  0.00     0.321 C 
HETATM    3  O   UNL     1     -40.625  58.019 -52.012  1.00  0.00    -0.247 OA
HETATM    4  N   UNL     1     -41.334  56.423 -50.485  1.00  0.00    -0.306 N 
HETATM    5  H   UNL     1     -42.150  58.377 -49.302  1.00  0.00     0.164 HD
HETATM    6  H   UNL     1     -41.775  56.309 -49.583  1.00  0.00     0.171 HD
ENDROOT
BRANCH   4   7
HETATM    7  C   UNL     1     -41.056  55.214 -51.158  1.00  0.00     0.069 A 
HETATM    8  C   UNL     1     -41.508  54.914 -52.440  1.00  0.00     0.033 A 
HETATM    9  C   UNL     1     -41.179  53.690 -53.041  1.00  0.00     0.015 A 
HETATM   10  C   UNL     1     -40.384  52.746 -52.376  1.00  0.00    -0.020 A 
HETATM   11  C   UNL     1     -39.926  53.048 -51.088  1.00  0.00     0.051 A 
HETATM   12  C   UNL     1     -40.277  54.261 -50.482  1.00  0.00     0.095 A 
BRANCH  10  13
HETATM   13  C   UNL     1     -40.065  51.483 -53.023  1.00  0.00     0.010 A 
HETATM   14  C   UNL     1     -39.581  50.266 -52.482  1.00  0.00     0.152 A 
HETATM   15  N   UNL     1     -39.416  49.315 -53.406  1.00  0.00    -0.187 NA
HETATM   16  N   UNL     1     -39.802  49.914 -54.542  1.00  0.00    -0.289 N 
HETATM   17  H   UNL     1     -39.773  49.376 -55.402  1.00  0.00     0.188 HD
HETATM   18  C   UNL     1     -40.196  51.210 -54.369  1.00  0.00     0.123 A 
ENDBRANCH  10  13
BRANCH  12  19
HETATM   19  O   UNL     1     -39.836  54.564 -49.214  1.00  0.00    -0.354 OA
HETATM   20  C   UNL     1     -40.418  53.682 -48.252  1.00  0.00     0.210 C 
ENDBRANCH  12  19
ENDBRANCH   4   7
BRANCH   1  21
HETATM   21  C   UNL     1     -41.406  60.044 -50.345  1.00  0.00     0.163 C 
BRANCH  21  22
HETATM   22  C   UNL     1     -42.735  60.579 -50.812  1.00  0.00    -0.038 A 
HETATM   23  C   UNL     1     -42.964  60.846 -52.169  1.00  0.00     0.009 A 
HETATM   24  C   UNL     1     -44.216  61.277 -52.603  1.00  0.00     0.003 A 
HETATM   25  C   UNL     1     -45.256  61.427 -51.686  1.00  0.00     0.037 A 
HETATM   26  C   UNL     1     -45.056  61.143 -50.333  1.00  0.00     0.068 A 
HETATM   27  C   UNL     1     -43.796  60.727 -49.900  1.00  0.00     0.045 A 
BRANCH  26  28
HETATM   28  O   UNL     1     -46.163  61.308 -49.546  1.00  0.00    -0.356 OA
HETATM   29  C   UNL     1     -46.735  62.610 -49.509  1.00  0.00     0.210 C 
ENDBRANCH  26  28
ENDBRANCH  21  22
ENDBRANCH   1  21
TORSDOF 6
ENDMDL
MODEL 4
REMARK VINA RESULT:      -7.6      4.161      6.418
REMARK  6 active torsions:
REMARK  status: ('A' for Active; 'I' for Inactive)
REMARK    1  A    between atoms: O_2  and  C_3 
REMARK    2  A    between atoms: C_7  and  C_8 
REMARK    3  A    between atoms: C_8  and  N_9 
REMARK       I    between atoms: N_9  and  C_10 
REMARK       I    between atoms: C_10  and  N_12 
REMARK    4  A    between atoms: N_12  and  C_13 
REMARK    5  A    between atoms: C_16  and  C_21 
REMARK    6  A    between atoms: C_18  and  O_19 
ROOT
HETATM    1  N   UNL     1     -42.769  58.703 -52.552  1.00  0.00    -0.339 N 
HETATM    2  C   UNL     1     -42.769  57.336 -52.727  1.00  0.00     0.321 C 
HETATM    3  O   UNL     1     -43.803  56.710 -52.931  1.00  0.00    -0.247 OA
HETATM    4  N   UNL     1     -41.503  56.812 -52.648  1.00  0.00    -0.306 N 
HETATM    5  H   UNL     1     -41.996  59.110 -52.051  1.00  0.00     0.164 HD
HETATM    6  H   UNL     1     -40.744  57.441 -52.429  1.00  0.00     0.171 HD
ENDROOT
BRANCH   4   7
HETATM    7  C   UNL     1     -41.118  55.463 -52.810  1.00  0.00     0.069 A 
HETATM    8  C   UNL     1     -40.834  54.875 -54.040  1.00  0.00     0.033 A 
HETATM    9  C   UNL     1     -40.450  53.529 -54.112  1.00  0.00     0.015 A 
HETATM   10  C   UNL     1     -40.333  52.744 -52.955  1.00  0.00    -0.020 A 
HETATM   11  C   UNL     1     -40.616  53.335 -51.717  1.00  0.00     0.051 A 
HETATM   12  C   UNL     1     -41.022  54.674 -51.652  1.00  0.00     0.095 A 
BRANCH  10  13
HETATM   13  C   UNL     1     -39.939  51.349 -53.063  1.00  0.00     0.010 A 
HETATM   14  C   UNL     1     -39.754  50.528 -54.203  1.00  0.00     0.152 A 
HETATM   15  N   UNL     1     -39.375  49.285 -53.893  1.00  0.00    -0.187 NA
HETATM   16  N   UNL     1     -39.307  49.304 -52.554  1.00  0.00    -0.289 N 
HETATM   17  H   UNL     1     -39.026  48.455 -52.076  1.00  0.00     0.188 HD
HETATM   18  C   UNL     1     -39.637  50.512 -52.009  1.00  0.00     0.123 A 
ENDBRANCH  10  13
BRANCH  12  19
HETATM   19  O   UNL     1     -41.308  55.261 -50.440  1.00  0.00    -0.354 OA
HETATM   20  C   UNL     1     -42.459  54.660 -49.845  1.00  0.00     0.210 C 
ENDBRANCH  12  19
ENDBRANCH   4   7
BRANCH   1  21
HETATM   21  C   UNL     1     -44.035  59.399 -52.476  1.00  0.00     0.163 C 
BRANCH  21  22
HETATM   22  C   UNL     1     -44.144  60.269 -51.251  1.00  0.00    -0.038 A 
HETATM   23  C   UNL     1     -43.317  61.390 -51.091  1.00  0.00     0.009 A 
HETATM   24  C   UNL     1     -43.468  62.227 -49.987  1.00  0.00     0.003 A 
HETATM   25  C   UNL     1     -44.460  61.962 -49.044  1.00  0.00     0.037 A 
HETATM   26  C   UNL     1     -45.310  60.865 -49.196  1.00  0.00     0.068 A 
HETATM   27  C   UNL     1     -45.145  60.019 -50.295  1.00  0.00     0.045 A 
BRANCH  26  28
HETATM   28  O   UNL     1     -46.253  60.732 -48.214  1.00  0.00    -0.356 OA
HETATM   29  C   UNL     1     -45.783  60.399 -46.914  1.00  0.00     0.210 C 
ENDBRANCH  26  28
ENDBRANCH  21  22
ENDBRANCH   1  21
TORSDOF 6
ENDMDL
MODEL 5
REMARK VINA RESULT:      -7.6      2.351      2.959
REMARK  6 active torsions:
REMARK  status: ('A' for Active; 'I' for Inactive)
REMARK    1  A    between atoms: O_2  and  C_3 
REMARK    2  A    between atoms: C_7  and  C_8 
REMARK    3  A    between atoms: C_8  and  N_9 
REMARK       I    between atoms: N_9  and  C_10 
REMARK       I    between atoms: C_10  and  N_12 
REMARK    4  A    between atoms: N_12  and  C_13 
REMARK    5  A    between atoms: C_16  and  C_21 
REMARK    6  A    between atoms: C_18  and  O_19 
ROOT
HETATM    1  N   UNL     1     -42.263  57.984 -55.925  1.00  0.00    -0.339 N 
HETATM    2  C   UNL     1     -42.205  56.624 -55.708  1.00  0.00     0.321 C 
HETATM    3  O   UNL     1     -42.922  55.841 -56.321  1.00  0.00    -0.247 OA
HETATM    4  N   UNL     1     -41.269  56.299 -54.759  1.00  0.00    -0.306 N 
HETATM    5  H   UNL     1     -41.941  58.590 -55.187  1.00  0.00     0.164 HD
HETATM    6  H   UNL     1     -40.778  57.054 -54.300  1.00  0.00     0.171 HD
ENDROOT
BRANCH   4   7
HETATM    7  C   UNL     1     -40.913  55.009 -54.308  1.00  0.00     0.069 A 
HETATM    8  C   UNL     1     -40.405  54.007 -55.130  1.00  0.00     0.033 A 
HETATM    9  C   UNL     1     -40.068  52.755 -54.599  1.00  0.00     0.015 A 
HETATM   10  C   UNL     1     -40.225  52.479 -53.233  1.00  0.00    -0.020 A 
HETATM   11  C   UNL     1     -40.734  53.487 -52.404  1.00  0.00     0.051 A 
HETATM   12  C   UNL     1     -41.091  54.729 -52.943  1.00  0.00     0.095 A 
BRANCH  10  13
HETATM   13  C   UNL     1     -39.873  51.168 -52.713  1.00  0.00     0.010 A 
HETATM   14  C   UNL     1     -39.702  49.928 -53.377  1.00  0.00     0.152 A 
HETATM   15  N   UNL     1     -39.366  48.935 -52.548  1.00  0.00    -0.187 NA
HETATM   16  N   UNL     1     -39.311  49.535 -51.350  1.00  0.00    -0.289 N 
HETATM   17  H   UNL     1     -39.062  48.973 -50.543  1.00  0.00     0.188 HD
HETATM   18  C   UNL     1     -39.609  50.867 -51.393  1.00  0.00     0.123 A 
ENDBRANCH  10  13
BRANCH  12  19
HETATM   19  O   UNL     1     -41.598  55.723 -52.137  1.00  0.00    -0.354 OA
HETATM   20  C   UNL     1     -42.958  55.452 -51.793  1.00  0.00     0.210 C 
ENDBRANCH  12  19
ENDBRANCH   4   7
BRANCH   1  21
HETATM   21  C   UNL     1     -43.288  58.511 -56.800  1.00  0.00     0.163 C 
BRANCH  21  22
HETATM   22  C   UNL     1     -42.752  58.890 -58.156  1.00  0.00    -0.038 A 
HETATM   23  C   UNL     1     -42.460  57.907 -59.112  1.00  0.00     0.009 A 
HETATM   24  C   UNL     1     -42.028  58.268 -60.387  1.00  0.00     0.003 A 
HETATM   25  C   UNL     1     -41.901  59.616 -60.722  1.00  0.00     0.037 A 
HETATM   26  C   UNL     1     -42.209  60.611 -59.793  1.00  0.00     0.068 A 
HETATM   27  C   UNL     1     -42.627  60.246 -58.511  1.00  0.00     0.045 A 
BRANCH  26  28
HETATM   28  O   UNL     1     -42.065  61.890 -60.256  1.00  0.00    -0.356 OA
HETATM   29  C   UNL     1     -40.976  62.134 -61.138  1.00  0.00     0.210 C 
ENDBRANCH  26  28
ENDBRANCH  21  22
ENDBRANCH   1  21
TORSDOF 6
ENDMDL
MODEL 6
REMARK VINA RESULT:      -7.5      2.633      3.433
REMARK  6 active torsions:
REMARK  status: ('A' for Active; 'I' for Inactive)
REMARK    1  A    between atoms: O_2  and  C_3 
REMARK    2  A    between atoms: C_7  and  C_8 
REMARK    3  A    between atoms: C_8  and  N_9 
REMARK       I    between atoms: N_9  and  C_10 
REMARK       I    between atoms: C_10  and  N_12 
REMARK    4  A    between atoms: N_12  and  C_13 
REMARK    5  A    between atoms: C_16  and  C_21 
REMARK    6  A    between atoms: C_18  and  O_19 
ROOT
HETATM    1  N   UNL     1     -43.688  55.186 -58.023  1.00  0.00    -0.339 N 
HETATM    2  C   UNL     1     -43.003  55.406 -56.847  1.00  0.00     0.321 C 
HETATM    3  O   UNL     1     -42.285  56.387 -56.691  1.00  0.00    -0.247 OA
HETATM    4  N   UNL     1     -43.240  54.415 -55.927  1.00  0.00    -0.306 N 
HETATM    5  H   UNL     1     -43.959  54.239 -58.237  1.00  0.00     0.164 HD
HETATM    6  H   UNL     1     -43.821  53.638 -56.208  1.00  0.00     0.171 HD
ENDROOT
BRANCH   4   7
HETATM    7  C   UNL     1     -42.739  54.326 -54.610  1.00  0.00     0.069 A 
HETATM    8  C   UNL     1     -41.703  53.479 -54.225  1.00  0.00     0.033 A 
HETATM    9  C   UNL     1     -41.259  53.458 -52.895  1.00  0.00     0.015 A 
HETATM   10  C   UNL     1     -41.836  54.289 -51.924  1.00  0.00    -0.020 A 
HETATM   11  C   UNL     1     -42.877  55.143 -52.311  1.00  0.00     0.051 A 
HETATM   12  C   UNL     1     -43.333  55.144 -53.635  1.00  0.00     0.095 A 
BRANCH  10  13
HETATM   13  C   UNL     1     -41.359  54.240 -50.552  1.00  0.00     0.010 A 
HETATM   14  C   UNL     1     -41.542  55.147 -49.479  1.00  0.00     0.152 A 
HETATM   15  N   UNL     1     -40.948  54.746 -48.351  1.00  0.00    -0.187 NA
HETATM   16  N   UNL     1     -40.388  53.576 -48.692  1.00  0.00    -0.289 N 
HETATM   17  H   UNL     1     -39.875  53.064 -47.983  1.00  0.00     0.188 HD
HETATM   18  C   UNL     1     -40.601  53.230 -49.996  1.00  0.00     0.123 A 
ENDBRANCH  10  13
BRANCH  12  19
HETATM   19  O   UNL     1     -44.359  55.976 -54.022  1.00  0.00    -0.354 OA
HETATM   20  C   UNL     1     -44.252  57.246 -53.376  1.00  0.00     0.210 C 
ENDBRANCH  12  19
ENDBRANCH   4   7
BRANCH   1  21
HETATM   21  C   UNL     1     -43.449  56.065 -59.147  1.00  0.00     0.163 C 
BRANCH  21  22
HETATM   22  C   UNL     1     -44.723  56.609 -59.738  1.00  0.00    -0.038 A 
HETATM   23  C   UNL     1     -45.781  55.752 -60.074  1.00  0.00     0.009 A 
HETATM   24  C   UNL     1     -46.982  56.268 -60.558  1.00  0.00     0.003 A 
HETATM   25  C   UNL     1     -47.141  57.647 -60.693  1.00  0.00     0.037 A 
HETATM   26  C   UNL     1     -46.109  58.520 -60.342  1.00  0.00     0.068 A 
HETATM   27  C   UNL     1     -44.902  57.998 -59.872  1.00  0.00     0.045 A 
BRANCH  26  28
HETATM   28  O   UNL     1     -46.404  59.846 -60.500  1.00  0.00    -0.356 OA
HETATM   29  C   UNL     1     -47.642  60.157 -61.127  1.00  0.00     0.210 C 
ENDBRANCH  26  28
ENDBRANCH  21  22
ENDBRANCH   1  21
TORSDOF 6
ENDMDL
MODEL 7
REMARK VINA RESULT:      -7.2      3.917      5.631
REMARK  6 active torsions:
REMARK  status: ('A' for Active; 'I' for Inactive)
REMARK    1  A    between atoms: O_2  and  C_3 
REMARK    2  A    between atoms: C_7  and  C_8 
REMARK    3  A    between atoms: C_8  and  N_9 
REMARK       I    between atoms: N_9  and  C_10 
REMARK       I    between atoms: C_10  and  N_12 
REMARK    4  A    between atoms: N_12  and  C_13 
REMARK    5  A    between atoms: C_16  and  C_21 
REMARK    6  A    between atoms: C_18  and  O_19 
ROOT
HETATM    1  N   UNL     1     -42.489  58.964 -54.153  1.00  0.00    -0.339 N 
HETATM    2  C   UNL     1     -41.702  57.884 -53.815  1.00  0.00     0.321 C 
HETATM    3  O   UNL     1     -40.725  58.000 -53.084  1.00  0.00    -0.247 OA
HETATM    4  N   UNL     1     -42.158  56.722 -54.386  1.00  0.00    -0.306 N 
HETATM    5  H   UNL     1     -43.033  58.900 -54.999  1.00  0.00     0.164 HD
HETATM    6  H   UNL     1     -42.953  56.781 -55.007  1.00  0.00     0.171 HD
ENDROOT
BRANCH   4   7
HETATM    7  C   UNL     1     -41.627  55.423 -54.237  1.00  0.00     0.069 A 
HETATM    8  C   UNL     1     -40.660  54.874 -55.075  1.00  0.00     0.033 A 
HETATM    9  C   UNL     1     -40.179  53.576 -54.851  1.00  0.00     0.015 A 
HETATM   10  C   UNL     1     -40.648  52.803 -53.780  1.00  0.00    -0.020 A 
HETATM   11  C   UNL     1     -41.619  53.355 -52.934  1.00  0.00     0.051 A 
HETATM   12  C   UNL     1     -42.114  54.643 -53.175  1.00  0.00     0.095 A 
BRANCH  10  13
HETATM   13  C   UNL     1     -40.135  51.458 -53.577  1.00  0.00     0.010 A 
HETATM   14  C   UNL     1     -39.994  50.378 -54.484  1.00  0.00     0.152 A 
HETATM   15  N   UNL     1     -39.466  49.289 -53.918  1.00  0.00    -0.187 NA
HETATM   16  N   UNL     1     -39.258  49.666 -52.648  1.00  0.00    -0.289 N 
HETATM   17  H   UNL     1     -38.847  48.995 -52.009  1.00  0.00     0.188 HD
HETATM   18  C   UNL     1     -39.643  50.952 -52.392  1.00  0.00     0.123 A 
ENDBRANCH  10  13
BRANCH  12  19
HETATM   19  O   UNL     1     -43.072  55.191 -52.352  1.00  0.00    -0.354 OA
HETATM   20  C   UNL     1     -42.749  54.964 -50.979  1.00  0.00     0.210 C 
ENDBRANCH  12  19
ENDBRANCH   4   7
BRANCH   1  21
HETATM   21  C   UNL     1     -42.075  60.288 -53.742  1.00  0.00     0.163 C 
BRANCH  21  22
HETATM   22  C   UNL     1     -42.830  60.782 -52.537  1.00  0.00    -0.038 A 
HETATM   23  C   UNL     1     -42.382  60.493 -51.240  1.00  0.00     0.009 A 
HETATM   24  C   UNL     1     -43.048  61.009 -50.131  1.00  0.00     0.003 A 
HETATM   25  C   UNL     1     -44.158  61.834 -50.308  1.00  0.00     0.037 A 
HETATM   26  C   UNL     1     -44.607  62.155 -51.590  1.00  0.00     0.068 A 
HETATM   27  C   UNL     1     -43.947  61.623 -52.700  1.00  0.00     0.045 A 
BRANCH  26  28
HETATM   28  O   UNL     1     -45.689  62.991 -51.624  1.00  0.00    -0.356 OA
HETATM   29  C   UNL     1     -46.973  62.379 -51.665  1.00  0.00     0.210 C 
ENDBRANCH  26  28
ENDBRANCH  21  22
ENDBRANCH   1  21
TORSDOF 6
ENDMDL
MODEL 8
REMARK VINA RESULT:      -7.1      3.046      9.920
REMARK  6 active torsions:
REMARK  status: ('A' for Active; 'I' for Inactive)
REMARK    1  A    between atoms: O_2  and  C_3 
REMARK    2  A    between atoms: C_7  and  C_8 
REMARK    3  A    between atoms: C_8  and  N_9 
REMARK       I    between atoms: N_9  and  C_10 
REMARK       I    between atoms: C_10  and  N_12 
REMARK    4  A    between atoms: N_12  and  C_13 
REMARK    5  A    between atoms: C_16  and  C_21 
REMARK    6  A    between atoms: C_18  and  O_19 
ROOT
HETATM    1  N   UNL     1     -42.276  54.595 -55.576  1.00  0.00    -0.339 N 
HETATM    2  C   UNL     1     -42.777  55.742 -56.153  1.00  0.00     0.321 C 
HETATM    3  O   UNL     1     -43.453  56.543 -55.517  1.00  0.00    -0.247 OA
HETATM    4  N   UNL     1     -42.419  55.846 -57.474  1.00  0.00    -0.306 N 
HETATM    5  H   UNL     1     -42.050  53.825 -56.185  1.00  0.00     0.164 HD
HETATM    6  H   UNL     1     -41.895  55.086 -57.883  1.00  0.00     0.171 HD
ENDROOT
BRANCH   4   7
HETATM    7  C   UNL     1     -42.721  56.897 -58.367  1.00  0.00     0.069 A 
HETATM    8  C   UNL     1     -42.096  58.141 -58.349  1.00  0.00     0.033 A 
HETATM    9  C   UNL     1     -42.451  59.128 -59.279  1.00  0.00     0.015 A 
HETATM   10  C   UNL     1     -43.432  58.889 -60.252  1.00  0.00    -0.020 A 
HETATM   11  C   UNL     1     -44.060  57.637 -60.273  1.00  0.00     0.051 A 
HETATM   12  C   UNL     1     -43.719  56.662 -59.327  1.00  0.00     0.095 A 
BRANCH  10  13
HETATM   13  C   UNL     1     -43.783  59.935 -61.199  1.00  0.00     0.010 A 
HETATM   14  C   UNL     1     -42.966  60.719 -62.052  1.00  0.00     0.152 A 
HETATM   15  N   UNL     1     -43.665  61.583 -62.793  1.00  0.00    -0.187 NA
HETATM   16  N   UNL     1     -44.935  61.352 -62.426  1.00  0.00    -0.289 N 
HETATM   17  H   UNL     1     -45.669  61.895 -62.869  1.00  0.00     0.188 HD
HETATM   18  C   UNL     1     -45.059  60.380 -61.475  1.00  0.00     0.123 A 
ENDBRANCH  10  13
BRANCH  12  19
HETATM   19  O   UNL     1     -44.335  55.431 -59.337  1.00  0.00    -0.354 OA
HETATM   20  C   UNL     1     -44.868  55.142 -60.631  1.00  0.00     0.210 C 
ENDBRANCH  12  19
ENDBRANCH   4   7
BRANCH   1  21
HETATM   21  C   UNL     1     -42.668  54.263 -54.223  1.00  0.00     0.163 C 
BRANCH  21  22
HETATM   22  C   UNL     1     -41.628  53.444 -53.504  1.00  0.00    -0.038 A 
HETATM   23  C   UNL     1     -40.883  52.471 -54.186  1.00  0.00     0.009 A 
HETATM   24  C   UNL     1     -39.878  51.763 -53.531  1.00  0.00     0.003 A 
HETATM   25  C   UNL     1     -39.596  52.034 -52.192  1.00  0.00     0.037 A 
HETATM   26  C   UNL     1     -40.310  53.015 -51.500  1.00  0.00     0.068 A 
HETATM   27  C   UNL     1     -41.327  53.711 -52.156  1.00  0.00     0.045 A 
BRANCH  26  28
HETATM   28  O   UNL     1     -39.918  53.198 -50.203  1.00  0.00    -0.356 OA
HETATM   29  C   UNL     1     -40.832  53.872 -49.346  1.00  0.00     0.210 C 
ENDBRANCH  26  28
ENDBRANCH  21  22
ENDBRANCH   1  21
TORSDOF 6
ENDMDL
MODEL 9
REMARK VINA RESULT:      -7.1     14.518     16.686
REMARK  6 active torsions:
REMARK  status: ('A' for Active; 'I' for Inactive)
REMARK    1  A    between atoms: O_2  and  C_3 
REMARK    2  A    between atoms: C_7  and  C_8 
REMARK    3  A    between atoms: C_8  and  N_9 
REMARK       I    between atoms: N_9  and  C_10 
REMARK       I    between atoms: C_10  and  N_12 
REMARK    4  A    between atoms: N_12  and  C_13 
REMARK    5  A    between atoms: C_16  and  C_21 
REMARK    6  A    between atoms: C_18  and  O_19 
ROOT
HETATM    1  N   UNL     1     -35.996  42.090 -55.633  1.00  0.00    -0.339 N 
HETATM    2  C   UNL     1     -35.856  41.471 -54.409  1.00  0.00     0.321 C 
HETATM    3  O   UNL     1     -36.804  40.942 -53.840  1.00  0.00    -0.247 OA
HETATM    4  N   UNL     1     -34.562  41.529 -53.953  1.00  0.00    -0.306 N 
HETATM    5  H   UNL     1     -35.316  42.790 -55.883  1.00  0.00     0.164 HD
HETATM    6  H   UNL     1     -33.888  42.039 -54.507  1.00  0.00     0.171 HD
ENDROOT
BRANCH   4   7
HETATM    7  C   UNL     1     -34.044  40.978 -52.761  1.00  0.00     0.069 A 
HETATM    8  C   UNL     1     -34.740  40.931 -51.556  1.00  0.00     0.033 A 
HETATM    9  C   UNL     1     -34.154  40.356 -50.419  1.00  0.00     0.015 A 
HETATM   10  C   UNL     1     -32.864  39.810 -50.465  1.00  0.00    -0.020 A 
HETATM   11  C   UNL     1     -32.163  39.855 -51.678  1.00  0.00     0.051 A 
HETATM   12  C   UNL     1     -32.743  40.450 -52.805  1.00  0.00     0.095 A 
BRANCH  10  13
HETATM   13  C   UNL     1     -32.280  39.227 -49.268  1.00  0.00     0.010 A 
HETATM   14  C   UNL     1     -32.237  37.883 -48.824  1.00  0.00     0.152 A 
HETATM   15  N   UNL     1     -31.595  37.739 -47.661  1.00  0.00    -0.187 NA
HETATM   16  N   UNL     1     -31.216  38.989 -47.357  1.00  0.00    -0.289 N 
HETATM   17  H   UNL     1     -30.692  39.137 -46.501  1.00  0.00     0.188 HD
HETATM   18  C   UNL     1     -31.603  39.916 -48.283  1.00  0.00     0.123 A 
ENDBRANCH  10  13
BRANCH  12  19
HETATM   19  O   UNL     1     -32.060  40.504 -53.999  1.00  0.00    -0.354 OA
HETATM   20  C   UNL     1     -31.772  39.188 -54.476  1.00  0.00     0.210 C 
ENDBRANCH  12  19
ENDBRANCH   4   7
BRANCH   1  21
HETATM   21  C   UNL     1     -37.320  42.234 -56.197  1.00  0.00     0.163 C 
BRANCH  21  22
HETATM   22  C   UNL     1     -37.469  41.517 -57.514  1.00  0.00    -0.038 A 
HETATM   23  C   UNL     1     -37.079  42.130 -58.713  1.00  0.00     0.009 A 
HETATM   24  C   UNL     1     -37.158  41.437 -59.919  1.00  0.00     0.003 A 
HETATM   25  C   UNL     1     -37.611  40.118 -59.934  1.00  0.00     0.037 A 
HETATM   26  C   UNL     1     -37.982  39.480 -58.749  1.00  0.00     0.068 A 
HETATM   27  C   UNL     1     -37.917  40.183 -57.544  1.00  0.00     0.045 A 
BRANCH  26  28
HETATM   28  O   UNL     1     -38.385  38.182 -58.900  1.00  0.00    -0.356 OA
HETATM   29  C   UNL     1     -39.350  37.923 -59.913  1.00  0.00     0.210 C 
ENDBRANCH  26  28
ENDBRANCH  21  22
ENDBRANCH   1  21
TORSDOF 6
ENDMDL
MODEL 10
REMARK VINA RESULT:      -7.0      3.131      9.325
REMARK  6 active torsions:
REMARK  status: ('A' for Active; 'I' for Inactive)
REMARK    1  A    between atoms: O_2  and  C_3 
REMARK    2  A    between atoms: C_7  and  C_8 
REMARK    3  A    between atoms: C_8  and  N_9 
REMARK       I    between atoms: N_9  and  C_10 
REMARK       I    between atoms: C_10  and  N_12 
REMARK    4  A    between atoms: N_12  and  C_13 
REMARK    5  A    between atoms: C_16  and  C_21 
REMARK    6  A    between atoms: C_18  and  O_19 
ROOT
HETATM    1  N   UNL     1     -43.600  54.963 -54.887  1.00  0.00    -0.339 N 
HETATM    2  C   UNL     1     -43.250  56.071 -55.629  1.00  0.00     0.321 C 
HETATM    3  O   UNL     1     -42.576  56.979 -55.156  1.00  0.00    -0.247 OA
HETATM    4  N   UNL     1     -43.741  56.003 -56.909  1.00  0.00    -0.306 N 
HETATM    5  H   UNL     1     -44.413  54.444 -55.177  1.00  0.00     0.164 HD
HETATM    6  H   UNL     1     -44.323  55.214 -57.151  1.00  0.00     0.171 HD
ENDROOT
BRANCH   4   7
HETATM    7  C   UNL     1     -43.556  56.936 -57.953  1.00  0.00     0.069 A 
HETATM    8  C   UNL     1     -42.519  56.872 -58.881  1.00  0.00     0.033 A 
HETATM    9  C   UNL     1     -42.412  57.836 -59.893  1.00  0.00     0.015 A 
HETATM   10  C   UNL     1     -43.342  58.879 -60.004  1.00  0.00    -0.020 A 
HETATM   11  C   UNL     1     -44.387  58.943 -59.072  1.00  0.00     0.051 A 
HETATM   12  C   UNL     1     -44.477  57.992 -58.048  1.00  0.00     0.095 A 
BRANCH  10  13
HETATM   13  C   UNL     1     -43.201  59.868 -61.061  1.00  0.00     0.010 A 
HETATM   14  C   UNL     1     -42.041  60.444 -61.635  1.00  0.00     0.152 A 
HETATM   15  N   UNL     1     -42.320  61.322 -62.603  1.00  0.00    -0.187 NA
HETATM   16  N   UNL     1     -43.660  61.307 -62.660  1.00  0.00    -0.289 N 
HETATM   17  H   UNL     1     -44.117  61.901 -63.343  1.00  0.00     0.188 HD
HETATM   18  C   UNL     1     -44.234  60.457 -61.758  1.00  0.00     0.123 A 
ENDBRANCH  10  13
BRANCH  12  19
HETATM   19  O   UNL     1     -45.496  58.050 -57.125  1.00  0.00    -0.354 OA
HETATM   20  C   UNL     1     -46.763  58.160 -57.777  1.00  0.00     0.210 C 
ENDBRANCH  12  19
ENDBRANCH   4   7
BRANCH   1  21
HETATM   21  C   UNL     1     -43.275  54.933 -53.478  1.00  0.00     0.163 C 
BRANCH  21  22
HETATM   22  C   UNL     1     -42.096  54.046 -53.175  1.00  0.00    -0.038 A 
HETATM   23  C   UNL     1     -41.478  54.079 -51.917  1.00  0.00     0.009 A 
HETATM   24  C   UNL     1     -40.430  53.209 -51.622  1.00  0.00     0.003 A 
HETATM   25  C   UNL     1     -40.003  52.285 -52.576  1.00  0.00     0.037 A 
HETATM   26  C   UNL     1     -40.620  52.220 -53.827  1.00  0.00     0.068 A 
HETATM   27  C   UNL     1     -41.659  53.104 -54.124  1.00  0.00     0.045 A 
BRANCH  26  28
HETATM   28  O   UNL     1     -40.122  51.256 -54.659  1.00  0.00    -0.356 OA
HETATM   29  C   UNL     1     -39.738  50.025 -54.058  1.00  0.00     0.210 C 
ENDBRANCH  26  28
ENDBRANCH  21  22
ENDBRANCH   1  21
TORSDOF 6
ENDMDL
