MODEL 1
REMARK VINA RESULT:      -8.2      0.000      0.000
REMARK  5 active torsions:
REMARK  status: ('A' for Active; 'I' for Inactive)
REMARK    1  A    between atoms: C_3  and  O_4 
REMARK    2  A    between atoms: O_4  and  C_5 
REMARK    3  A    between atoms: C_5  and  C_6 
REMARK       I    between atoms: C_6  and  N_7 
REMARK    4  A    between atoms: N_7  and  N_8 
REMARK    5  A    between atoms: C_9  and  C_10 
ROOT
HETATM    1  C   UNL     1     -42.685  55.553 -56.536  1.00  0.00     0.261 C 
HETATM    2  N   UNL     1     -41.486  55.757 -55.862  1.00  0.00    -0.246 N 
HETATM    3  O   UNL     1     -43.317  54.497 -56.578  1.00  0.00    -0.269 OA
HETATM    4  H   UNL     1     -41.226  56.727 -55.686  1.00  0.00     0.192 HD
ENDROOT
BRANCH   2   5
HETATM    5  N   UNL     1     -40.871  54.841 -55.036  1.00  0.00    -0.184 NA
HETATM    6  C   UNL     1     -41.416  54.607 -53.883  1.00  0.00     0.152 C 
BRANCH   6   7
HETATM    7  C   UNL     1     -40.787  53.690 -52.952  1.00  0.00     0.011 A 
HETATM    8  C   UNL     1     -40.434  52.325 -53.209  1.00  0.00     0.004 A 
HETATM    9  C   UNL     1     -39.848  51.819 -52.047  1.00  0.00     0.043 A 
HETATM   10  C   UNL     1     -40.566  51.468 -54.323  1.00  0.00     0.014 A 
HETATM   11  C   UNL     1     -39.379  50.503 -51.948  1.00  0.00     0.030 A 
HETATM   12  N   UNL     1     -39.849  52.834 -51.119  1.00  0.00    -0.364 N 
HETATM   13  C   UNL     1     -39.519  49.677 -53.068  1.00  0.00     0.002 A 
HETATM   14  C   UNL     1     -40.104  50.150 -54.239  1.00  0.00     0.001 A 
HETATM   15  H   UNL     1     -39.488  52.750 -50.179  1.00  0.00     0.165 HD
HETATM   16  C   UNL     1     -40.415  53.962 -51.650  1.00  0.00     0.102 A 
ENDBRANCH   6   7
ENDBRANCH   2   5
BRANCH   1  17
HETATM   17  C   UNL     1     -43.155  56.774 -57.318  1.00  0.00     0.280 C 
BRANCH  17  18
HETATM   18  O   UNL     1     -43.017  56.601 -58.731  1.00  0.00    -0.341 OA
BRANCH  18  19
HETATM   19  C   UNL     1     -44.234  56.815 -59.334  1.00  0.00     0.081 A 
HETATM   20  C   UNL     1     -44.994  55.726 -59.796  1.00  0.00    -0.028 A 
HETATM   21  C   UNL     1     -44.516  54.308 -59.679  1.00  0.00     0.051 C 
HETATM   22  C   UNL     1     -46.258  55.978 -60.347  1.00  0.00     0.009 A 
HETATM   23  C   UNL     1     -46.725  57.285 -60.489  1.00  0.00     0.001 A 
HETATM   24  C   UNL     1     -45.932  58.359 -60.086  1.00  0.00     0.009 A 
HETATM   25  C   UNL     1     -44.677  58.138 -59.504  1.00  0.00    -0.028 A 
HETATM   26  C   UNL     1     -43.817  59.311 -59.127  1.00  0.00     0.051 C 
ENDBRANCH  18  19
ENDBRANCH  17  18
ENDBRANCH   1  17
TORSDOF 5
ENDMDL
MODEL 2
REMARK VINA RESULT:      -8.1      0.192      1.774
REMARK  5 active torsions:
REMARK  status: ('A' for Active; 'I' for Inactive)
REMARK    1  A    between atoms: C_3  and  O_4 
REMARK    2  A    between atoms: O_4  and  C_5 
REMARK    3  A    between atoms: C_5  and  C_6 
REMARK       I    between atoms: C_6  and  N_7 
REMARK    4  A    between atoms: N_7  and  N_8 
REMARK    5  A    between atoms: C_9  and  C_10 
ROOT
HETATM    1  C   UNL     1     -42.654  55.532 -56.541  1.00  0.00     0.261 C 
HETATM    2  N   UNL     1     -41.468  55.714 -55.837  1.00  0.00    -0.246 N 
HETATM    3  O   UNL     1     -43.290  54.481 -56.622  1.00  0.00    -0.269 OA
HETATM    4  H   UNL     1     -41.207  56.678 -55.633  1.00  0.00     0.192 HD
ENDROOT
BRANCH   2   5
HETATM    5  N   UNL     1     -40.875  54.775 -55.020  1.00  0.00    -0.184 NA
HETATM    6  C   UNL     1     -41.362  54.619 -53.829  1.00  0.00     0.152 C 
BRANCH   6   7
HETATM    7  C   UNL     1     -40.749  53.682 -52.908  1.00  0.00     0.011 A 
HETATM    8  C   UNL     1     -40.410  52.317 -53.183  1.00  0.00     0.004 A 
HETATM    9  C   UNL     1     -39.835  51.787 -52.026  1.00  0.00     0.043 A 
HETATM   10  C   UNL     1     -40.545  51.478 -54.311  1.00  0.00     0.014 A 
HETATM   11  C   UNL     1     -39.382  50.464 -51.944  1.00  0.00     0.030 A 
HETATM   12  N   UNL     1     -39.830  52.788 -51.083  1.00  0.00    -0.364 N 
HETATM   13  C   UNL     1     -39.525  49.656 -53.077  1.00  0.00     0.002 A 
HETATM   14  C   UNL     1     -40.098  50.153 -54.244  1.00  0.00     0.001 A 
HETATM   15  H   UNL     1     -39.475  52.686 -50.142  1.00  0.00     0.165 HD
HETATM   16  C   UNL     1     -40.380  53.930 -51.600  1.00  0.00     0.102 A 
ENDBRANCH   6   7
ENDBRANCH   2   5
BRANCH   1  17
HETATM   17  C   UNL     1     -43.100  56.774 -57.304  1.00  0.00     0.280 C 
BRANCH  17  18
HETATM   18  O   UNL     1     -43.083  56.578 -58.720  1.00  0.00    -0.341 OA
BRANCH  18  19
HETATM   19  C   UNL     1     -44.338  56.823 -59.227  1.00  0.00     0.081 A 
HETATM   20  C   UNL     1     -44.882  58.117 -59.169  1.00  0.00    -0.028 A 
HETATM   21  C   UNL     1     -44.149  59.267 -58.544  1.00  0.00     0.051 C 
HETATM   22  C   UNL     1     -46.136  58.342 -59.754  1.00  0.00     0.009 A 
HETATM   23  C   UNL     1     -46.853  57.292 -60.328  1.00  0.00     0.001 A 
HETATM   24  C   UNL     1     -46.329  56.000 -60.319  1.00  0.00     0.009 A 
HETATM   25  C   UNL     1     -45.065  55.748 -59.770  1.00  0.00    -0.028 A 
HETATM   26  C   UNL     1     -44.542  54.340 -59.723  1.00  0.00     0.051 C 
ENDBRANCH  18  19
ENDBRANCH  17  18
ENDBRANCH   1  17
TORSDOF 5
ENDMDL
MODEL 3
REMARK VINA RESULT:      -8.0      1.459      1.754
REMARK  5 active torsions:
REMARK  status: ('A' for Active; 'I' for Inactive)
REMARK    1  A    between atoms: C_3  and  O_4 
REMARK    2  A    between atoms: O_4  and  C_5 
REMARK    3  A    between atoms: C_5  and  C_6 
REMARK       I    between atoms: C_6  and  N_7 
REMARK    4  A    between atoms: N_7  and  N_8 
REMARK    5  A    between atoms: C_9  and  C_10 
ROOT
HETATM    1  C   UNL     1     -43.427  56.758 -55.954  1.00  0.00     0.261 C 
HETATM    2  N   UNL     1     -43.950  55.986 -54.922  1.00  0.00    -0.246 N 
HETATM    3  O   UNL     1     -42.239  56.830 -56.269  1.00  0.00    -0.269 OA
HETATM    4  H   UNL     1     -44.954  55.812 -54.952  1.00  0.00     0.192 HD
ENDROOT
BRANCH   2   5
HETATM    5  N   UNL     1     -43.236  55.088 -54.159  1.00  0.00    -0.184 NA
HETATM    6  C   UNL     1     -42.311  55.558 -53.383  1.00  0.00     0.152 C 
BRANCH   6   7
HETATM    7  C   UNL     1     -41.493  54.657 -52.594  1.00  0.00     0.011 A 
HETATM    8  C   UNL     1     -40.924  53.418 -53.035  1.00  0.00     0.004 A 
HETATM    9  C   UNL     1     -40.208  52.881 -51.964  1.00  0.00     0.043 A 
HETATM   10  C   UNL     1     -40.958  52.697 -54.249  1.00  0.00     0.014 A 
HETATM   11  C   UNL     1     -39.517  51.665 -52.049  1.00  0.00     0.030 A 
HETATM   12  N   UNL     1     -40.340  53.756 -50.911  1.00  0.00    -0.364 N 
HETATM   13  C   UNL     1     -39.565  50.974 -53.264  1.00  0.00     0.002 A 
HETATM   14  C   UNL     1     -40.274  51.480 -54.349  1.00  0.00     0.001 A 
HETATM   15  H   UNL     1     -39.928  53.620 -49.998  1.00  0.00     0.165 HD
HETATM   16  C   UNL     1     -41.114  54.824 -51.276  1.00  0.00     0.102 A 
ENDBRANCH   6   7
ENDBRANCH   2   5
BRANCH   1  17
HETATM   17  C   UNL     1     -44.475  57.608 -56.664  1.00  0.00     0.280 C 
BRANCH  17  18
HETATM   18  O   UNL     1     -44.076  57.966 -57.990  1.00  0.00    -0.341 OA
BRANCH  18  19
HETATM   19  C   UNL     1     -44.799  57.226 -58.897  1.00  0.00     0.081 A 
HETATM   20  C   UNL     1     -44.158  56.257 -59.687  1.00  0.00    -0.028 A 
HETATM   21  C   UNL     1     -42.681  56.002 -59.602  1.00  0.00     0.051 C 
HETATM   22  C   UNL     1     -44.937  55.478 -60.553  1.00  0.00     0.009 A 
HETATM   23  C   UNL     1     -46.309  55.701 -60.671  1.00  0.00     0.001 A 
HETATM   24  C   UNL     1     -46.920  56.710 -59.929  1.00  0.00     0.009 A 
HETATM   25  C   UNL     1     -46.174  57.486 -59.032  1.00  0.00    -0.028 A 
HETATM   26  C   UNL     1     -46.843  58.603 -58.282  1.00  0.00     0.051 C 
ENDBRANCH  18  19
ENDBRANCH  17  18
ENDBRANCH   1  17
TORSDOF 5
ENDMDL
MODEL 4
REMARK VINA RESULT:      -8.0      1.410      2.015
REMARK  5 active torsions:
REMARK  status: ('A' for Active; 'I' for Inactive)
REMARK    1  A    between atoms: C_3  and  O_4 
REMARK    2  A    between atoms: O_4  and  C_5 
REMARK    3  A    between atoms: C_5  and  C_6 
REMARK       I    between atoms: C_6  and  N_7 
REMARK    4  A    between atoms: N_7  and  N_8 
REMARK    5  A    between atoms: C_9  and  C_10 
ROOT
HETATM    1  C   UNL     1     -43.324  56.687 -56.072  1.00  0.00     0.261 C 
HETATM    2  N   UNL     1     -43.782  55.831 -55.076  1.00  0.00    -0.246 N 
HETATM    3  O   UNL     1     -42.148  56.854 -56.393  1.00  0.00    -0.269 OA
HETATM    4  H   UNL     1     -44.773  55.591 -55.106  1.00  0.00     0.192 HD
ENDROOT
BRANCH   2   5
HETATM    5  N   UNL     1     -43.001  54.944 -54.367  1.00  0.00    -0.184 NA
HETATM    6  C   UNL     1     -42.371  55.394 -53.327  1.00  0.00     0.152 C 
BRANCH   6   7
HETATM    7  C   UNL     1     -41.495  54.520 -52.571  1.00  0.00     0.011 A 
HETATM    8  C   UNL     1     -40.928  53.285 -53.024  1.00  0.00     0.004 A 
HETATM    9  C   UNL     1     -40.145  52.778 -51.986  1.00  0.00     0.043 A 
HETATM   10  C   UNL     1     -41.014  52.544 -54.223  1.00  0.00     0.014 A 
HETATM   11  C   UNL     1     -39.437  51.573 -52.090  1.00  0.00     0.030 A 
HETATM   12  N   UNL     1     -40.236  53.667 -50.940  1.00  0.00    -0.364 N 
HETATM   13  C   UNL     1     -39.537  50.862 -53.290  1.00  0.00     0.002 A 
HETATM   14  C   UNL     1     -40.314  51.338 -54.342  1.00  0.00     0.001 A 
HETATM   15  H   UNL     1     -39.772  53.553 -50.049  1.00  0.00     0.165 HD
HETATM   16  C   UNL     1     -41.048  54.716 -51.278  1.00  0.00     0.102 A 
ENDBRANCH   6   7
ENDBRANCH   2   5
BRANCH   1  17
HETATM   17  C   UNL     1     -44.435  57.500 -56.728  1.00  0.00     0.280 C 
BRANCH  17  18
HETATM   18  O   UNL     1     -44.092  57.918 -58.052  1.00  0.00    -0.341 OA
BRANCH  18  19
HETATM   19  C   UNL     1     -44.837  57.202 -58.960  1.00  0.00     0.081 A 
HETATM   20  C   UNL     1     -46.230  57.372 -59.021  1.00  0.00    -0.028 A 
HETATM   21  C   UNL     1     -46.965  58.304 -58.102  1.00  0.00     0.051 C 
HETATM   22  C   UNL     1     -46.948  56.674 -60.002  1.00  0.00     0.009 A 
HETATM   23  C   UNL     1     -46.300  55.785 -60.860  1.00  0.00     0.001 A 
HETATM   24  C   UNL     1     -44.926  55.578 -60.745  1.00  0.00     0.009 A 
HETATM   25  C   UNL     1     -44.176  56.283 -59.795  1.00  0.00    -0.028 A 
HETATM   26  C   UNL     1     -42.706  56.005 -59.652  1.00  0.00     0.051 C 
ENDBRANCH  18  19
ENDBRANCH  17  18
ENDBRANCH   1  17
TORSDOF 5
ENDMDL
MODEL 5
REMARK VINA RESULT:      -7.9      4.882      8.845
REMARK  5 active torsions:
REMARK  status: ('A' for Active; 'I' for Inactive)
REMARK    1  A    between atoms: C_3  and  O_4 
REMARK    2  A    between atoms: O_4  and  C_5 
REMARK    3  A    between atoms: C_5  and  C_6 
REMARK       I    between atoms: C_6  and  N_7 
REMARK    4  A    between atoms: N_7  and  N_8 
REMARK    5  A    between atoms: C_9  and  C_10 
ROOT
HETATM    1  C   UNL     1     -41.881  54.070 -53.821  1.00  0.00     0.261 C 
HETATM    2  N   UNL     1     -41.038  55.176 -53.855  1.00  0.00    -0.246 N 
HETATM    3  O   UNL     1     -43.038  54.058 -53.401  1.00  0.00    -0.269 OA
HETATM    4  H   UNL     1     -40.227  55.108 -54.468  1.00  0.00     0.192 HD
ENDROOT
BRANCH   2   5
HETATM    5  N   UNL     1     -41.403  56.465 -53.528  1.00  0.00    -0.184 NA
HETATM    6  C   UNL     1     -41.429  56.784 -52.272  1.00  0.00     0.152 C 
BRANCH   6   7
HETATM    7  C   UNL     1     -41.853  58.110 -51.866  1.00  0.00     0.011 A 
HETATM    8  C   UNL     1     -43.173  58.494 -51.460  1.00  0.00     0.004 A 
HETATM    9  C   UNL     1     -43.135  59.854 -51.148  1.00  0.00     0.043 A 
HETATM   10  C   UNL     1     -44.402  57.811 -51.335  1.00  0.00     0.014 A 
HETATM   11  C   UNL     1     -44.262  60.562 -50.710  1.00  0.00     0.030 A 
HETATM   12  N   UNL     1     -41.845  60.282 -51.361  1.00  0.00    -0.364 N 
HETATM   13  C   UNL     1     -45.465  59.859 -50.592  1.00  0.00     0.002 A 
HETATM   14  C   UNL     1     -45.537  58.504 -50.901  1.00  0.00     0.001 A 
HETATM   15  H   UNL     1     -41.526  61.231 -51.220  1.00  0.00     0.165 HD
HETATM   16  C   UNL     1     -41.067  59.243 -51.796  1.00  0.00     0.102 A 
ENDBRANCH   6   7
ENDBRANCH   2   5
BRANCH   1  17
HETATM   17  C   UNL     1     -41.213  52.788 -54.306  1.00  0.00     0.280 C 
BRANCH  17  18
HETATM   18  O   UNL     1     -39.872  52.658 -53.825  1.00  0.00    -0.341 OA
BRANCH  18  19
HETATM   19  C   UNL     1     -39.825  51.667 -52.873  1.00  0.00     0.081 A 
HETATM   20  C   UNL     1     -39.866  51.997 -51.508  1.00  0.00    -0.028 A 
HETATM   21  C   UNL     1     -39.936  53.418 -51.029  1.00  0.00     0.051 C 
HETATM   22  C   UNL     1     -39.882  50.958 -50.567  1.00  0.00     0.009 A 
HETATM   23  C   UNL     1     -39.799  49.627 -50.977  1.00  0.00     0.001 A 
HETATM   24  C   UNL     1     -39.693  49.317 -52.332  1.00  0.00     0.009 A 
HETATM   25  C   UNL     1     -39.705  50.332 -53.298  1.00  0.00    -0.028 A 
HETATM   26  C   UNL     1     -39.536  49.979 -54.749  1.00  0.00     0.051 C 
ENDBRANCH  18  19
ENDBRANCH  17  18
ENDBRANCH   1  17
TORSDOF 5
ENDMDL
MODEL 6
REMARK VINA RESULT:      -7.9      1.987      2.902
REMARK  5 active torsions:
REMARK  status: ('A' for Active; 'I' for Inactive)
REMARK    1  A    between atoms: C_3  and  O_4 
REMARK    2  A    between atoms: O_4  and  C_5 
REMARK    3  A    between atoms: C_5  and  C_6 
REMARK       I    between atoms: C_6  and  N_7 
REMARK    4  A    between atoms: N_7  and  N_8 
REMARK    5  A    between atoms: C_9  and  C_10 
ROOT
HETATM    1  C   UNL     1     -43.283  56.388 -55.406  1.00  0.00     0.261 C 
HETATM    2  N   UNL     1     -42.318  55.390 -55.492  1.00  0.00    -0.246 N 
HETATM    3  O   UNL     1     -44.090  56.534 -54.488  1.00  0.00    -0.269 OA
HETATM    4  H   UNL     1     -41.557  55.552 -56.151  1.00  0.00     0.192 HD
ENDROOT
BRANCH   2   5
HETATM    5  N   UNL     1     -42.034  54.471 -54.505  1.00  0.00    -0.184 NA
HETATM    6  C   UNL     1     -40.877  54.547 -53.925  1.00  0.00     0.152 C 
BRANCH   6   7
HETATM    7  C   UNL     1     -40.504  53.576 -52.914  1.00  0.00     0.011 A 
HETATM    8  C   UNL     1     -40.207  52.191 -53.133  1.00  0.00     0.004 A 
HETATM    9  C   UNL     1     -39.889  51.631 -51.894  1.00  0.00     0.043 A 
HETATM   10  C   UNL     1     -40.185  51.358 -54.272  1.00  0.00     0.014 A 
HETATM   11  C   UNL     1     -39.543  50.282 -51.740  1.00  0.00     0.030 A 
HETATM   12  N   UNL     1     -39.994  52.633 -50.959  1.00  0.00    -0.364 N 
HETATM   13  C   UNL     1     -39.526  49.481 -52.886  1.00  0.00     0.002 A 
HETATM   14  C   UNL     1     -39.844  50.008 -54.134  1.00  0.00     0.001 A 
HETATM   15  H   UNL     1     -39.824  52.513 -49.969  1.00  0.00     0.165 HD
HETATM   16  C   UNL     1     -40.366  53.806 -51.559  1.00  0.00     0.102 A 
ENDBRANCH   6   7
ENDBRANCH   2   5
BRANCH   1  17
HETATM   17  C   UNL     1     -43.318  57.300 -56.628  1.00  0.00     0.280 C 
BRANCH  17  18
HETATM   18  O   UNL     1     -42.013  57.546 -57.160  1.00  0.00    -0.341 OA
BRANCH  18  19
HETATM   19  C   UNL     1     -42.124  58.318 -58.292  1.00  0.00     0.081 A 
HETATM   20  C   UNL     1     -42.066  59.719 -58.199  1.00  0.00    -0.028 A 
HETATM   21  C   UNL     1     -41.909  60.429 -56.886  1.00  0.00     0.051 C 
HETATM   22  C   UNL     1     -42.117  60.472 -59.381  1.00  0.00     0.009 A 
HETATM   23  C   UNL     1     -42.282  59.845 -60.616  1.00  0.00     0.001 A 
HETATM   24  C   UNL     1     -42.404  58.458 -60.687  1.00  0.00     0.009 A 
HETATM   25  C   UNL     1     -42.326  57.677 -59.527  1.00  0.00    -0.028 A 
HETATM   26  C   UNL     1     -42.513  56.189 -59.620  1.00  0.00     0.051 C 
ENDBRANCH  18  19
ENDBRANCH  17  18
ENDBRANCH   1  17
TORSDOF 5
ENDMDL
MODEL 7
REMARK VINA RESULT:      -7.9      2.003      9.494
REMARK  5 active torsions:
REMARK  status: ('A' for Active; 'I' for Inactive)
REMARK    1  A    between atoms: C_3  and  O_4 
REMARK    2  A    between atoms: O_4  and  C_5 
REMARK    3  A    between atoms: C_5  and  C_6 
REMARK       I    between atoms: C_6  and  N_7 
REMARK    4  A    between atoms: N_7  and  N_8 
REMARK    5  A    between atoms: C_9  and  C_10 
ROOT
HETATM    1  C   UNL     1     -41.498  54.380 -54.824  1.00  0.00     0.261 C 
HETATM    2  N   UNL     1     -42.553  54.504 -55.723  1.00  0.00    -0.246 N 
HETATM    3  O   UNL     1     -40.710  55.273 -54.511  1.00  0.00    -0.269 OA
HETATM    4  H   UNL     1     -43.273  53.783 -55.677  1.00  0.00     0.192 HD
ENDROOT
BRANCH   2   5
HETATM    5  N   UNL     1     -42.956  55.679 -56.320  1.00  0.00    -0.184 NA
HETATM    6  C   UNL     1     -43.030  55.702 -57.614  1.00  0.00     0.152 C 
BRANCH   6   7
HETATM    7  C   UNL     1     -43.401  56.925 -58.300  1.00  0.00     0.011 A 
HETATM    8  C   UNL     1     -44.597  57.147 -59.058  1.00  0.00     0.004 A 
HETATM    9  C   UNL     1     -44.553  58.457 -59.536  1.00  0.00     0.043 A 
HETATM   10  C   UNL     1     -45.713  56.348 -59.389  1.00  0.00     0.014 A 
HETATM   11  C   UNL     1     -45.573  59.012 -60.320  1.00  0.00     0.030 A 
HETATM   12  N   UNL     1     -43.374  59.010 -59.091  1.00  0.00    -0.364 N 
HETATM   13  C   UNL     1     -46.669  58.200 -60.629  1.00  0.00     0.002 A 
HETATM   14  C   UNL     1     -46.740  56.888 -60.172  1.00  0.00     0.001 A 
HETATM   15  H   UNL     1     -43.073  59.954 -59.292  1.00  0.00     0.165 HD
HETATM   16  C   UNL     1     -42.672  58.097 -58.352  1.00  0.00     0.102 A 
ENDBRANCH   6   7
ENDBRANCH   2   5
BRANCH   1  17
HETATM   17  C   UNL     1     -41.334  52.967 -54.275  1.00  0.00     0.280 C 
BRANCH  17  18
HETATM   18  O   UNL     1     -39.963  52.624 -54.058  1.00  0.00    -0.341 OA
BRANCH  18  19
HETATM   19  C   UNL     1     -39.882  51.706 -53.037  1.00  0.00     0.081 A 
HETATM   20  C   UNL     1     -39.928  52.133 -51.699  1.00  0.00    -0.028 A 
HETATM   21  C   UNL     1     -40.042  53.581 -51.323  1.00  0.00     0.051 C 
HETATM   22  C   UNL     1     -39.908  51.164 -50.686  1.00  0.00     0.009 A 
HETATM   23  C   UNL     1     -39.784  49.810 -50.999  1.00  0.00     0.001 A 
HETATM   24  C   UNL     1     -39.673  49.407 -52.329  1.00  0.00     0.009 A 
HETATM   25  C   UNL     1     -39.720  50.349 -53.365  1.00  0.00    -0.028 A 
HETATM   26  C   UNL     1     -39.545  49.897 -54.788  1.00  0.00     0.051 C 
ENDBRANCH  18  19
ENDBRANCH  17  18
ENDBRANCH   1  17
TORSDOF 5
ENDMDL
MODEL 8
REMARK VINA RESULT:      -7.8      1.776      2.101
REMARK  5 active torsions:
REMARK  status: ('A' for Active; 'I' for Inactive)
REMARK    1  A    between atoms: C_3  and  O_4 
REMARK    2  A    between atoms: O_4  and  C_5 
REMARK    3  A    between atoms: C_5  and  C_6 
REMARK       I    between atoms: C_6  and  N_7 
REMARK    4  A    between atoms: N_7  and  N_8 
REMARK    5  A    between atoms: C_9  and  C_10 
ROOT
HETATM    1  C   UNL     1     -43.434  56.730 -54.822  1.00  0.00     0.261 C 
HETATM    2  N   UNL     1     -42.515  55.694 -54.948  1.00  0.00    -0.246 N 
HETATM    3  O   UNL     1     -44.153  56.941 -53.845  1.00  0.00    -0.269 OA
HETATM    4  H   UNL     1     -41.809  55.801 -55.676  1.00  0.00     0.192 HD
ENDROOT
BRANCH   2   5
HETATM    5  N   UNL     1     -42.179  54.802 -53.951  1.00  0.00    -0.184 NA
HETATM    6  C   UNL     1     -40.928  54.494 -53.816  1.00  0.00     0.152 C 
BRANCH   6   7
HETATM    7  C   UNL     1     -40.520  53.524 -52.818  1.00  0.00     0.011 A 
HETATM    8  C   UNL     1     -40.216  52.143 -53.048  1.00  0.00     0.004 A 
HETATM    9  C   UNL     1     -39.862  51.582 -51.819  1.00  0.00     0.043 A 
HETATM   10  C   UNL     1     -40.215  51.313 -54.190  1.00  0.00     0.014 A 
HETATM   11  C   UNL     1     -39.500  50.236 -51.678  1.00  0.00     0.030 A 
HETATM   12  N   UNL     1     -39.953  52.581 -50.878  1.00  0.00    -0.364 N 
HETATM   13  C   UNL     1     -39.505  49.438 -52.826  1.00  0.00     0.002 A 
HETATM   14  C   UNL     1     -39.858  49.966 -54.064  1.00  0.00     0.001 A 
HETATM   15  H   UNL     1     -39.758  52.459 -49.893  1.00  0.00     0.165 HD
HETATM   16  C   UNL     1     -40.351  53.751 -51.465  1.00  0.00     0.102 A 
ENDBRANCH   6   7
ENDBRANCH   2   5
BRANCH   1  17
HETATM   17  C   UNL     1     -43.544  57.596 -56.072  1.00  0.00     0.280 C 
BRANCH  17  18
HETATM   18  O   UNL     1     -42.325  57.624 -56.821  1.00  0.00    -0.341 OA
BRANCH  18  19
HETATM   19  C   UNL     1     -42.587  58.068 -58.096  1.00  0.00     0.081 A 
HETATM   20  C   UNL     1     -42.987  57.160 -59.091  1.00  0.00    -0.028 A 
HETATM   21  C   UNL     1     -43.123  55.689 -58.826  1.00  0.00     0.051 C 
HETATM   22  C   UNL     1     -43.308  57.658 -60.362  1.00  0.00     0.009 A 
HETATM   23  C   UNL     1     -43.175  59.017 -60.648  1.00  0.00     0.001 A 
HETATM   24  C   UNL     1     -42.714  59.896 -59.670  1.00  0.00     0.009 A 
HETATM   25  C   UNL     1     -42.414  59.434 -58.381  1.00  0.00    -0.028 A 
HETATM   26  C   UNL     1     -41.868  60.389 -57.358  1.00  0.00     0.051 C 
ENDBRANCH  18  19
ENDBRANCH  17  18
ENDBRANCH   1  17
TORSDOF 5
ENDMDL
MODEL 9
REMARK VINA RESULT:      -7.8      2.134      8.519
REMARK  5 active torsions:
REMARK  status: ('A' for Active; 'I' for Inactive)
REMARK    1  A    between atoms: C_3  and  O_4 
REMARK    2  A    between atoms: O_4  and  C_5 
REMARK    3  A    between atoms: C_5  and  C_6 
REMARK       I    between atoms: C_6  and  N_7 
REMARK    4  A    between atoms: N_7  and  N_8 
REMARK    5  A    between atoms: C_9  and  C_10 
ROOT
HETATM    1  C   UNL     1     -42.917  55.040 -53.248  1.00  0.00     0.261 C 
HETATM    2  N   UNL     1     -42.517  56.131 -54.013  1.00  0.00    -0.246 N 
HETATM    3  O   UNL     1     -43.911  54.343 -53.453  1.00  0.00    -0.269 OA
HETATM    4  H   UNL     1     -41.551  56.436 -53.895  1.00  0.00     0.192 HD
ENDROOT
BRANCH   2   5
HETATM    5  N   UNL     1     -43.105  56.536 -55.192  1.00  0.00    -0.184 NA
HETATM    6  C   UNL     1     -42.329  56.763 -56.205  1.00  0.00     0.152 C 
BRANCH   6   7
HETATM    7  C   UNL     1     -42.886  57.239 -57.457  1.00  0.00     0.011 A 
HETATM    8  C   UNL     1     -43.511  56.439 -58.469  1.00  0.00     0.004 A 
HETATM    9  C   UNL     1     -43.908  57.298 -59.495  1.00  0.00     0.043 A 
HETATM   10  C   UNL     1     -43.770  55.059 -58.611  1.00  0.00     0.014 A 
HETATM   11  C   UNL     1     -44.559  56.847 -60.651  1.00  0.00     0.030 A 
HETATM   12  N   UNL     1     -43.535  58.569 -59.125  1.00  0.00    -0.364 N 
HETATM   13  C   UNL     1     -44.806  55.475 -60.764  1.00  0.00     0.002 A 
HETATM   14  C   UNL     1     -44.418  54.592 -59.760  1.00  0.00     0.001 A 
HETATM   15  H   UNL     1     -43.692  59.398 -59.683  1.00  0.00     0.165 HD
HETATM   16  C   UNL     1     -42.916  58.546 -57.904  1.00  0.00     0.102 A 
ENDBRANCH   6   7
ENDBRANCH   2   5
BRANCH   1  17
HETATM   17  C   UNL     1     -42.030  54.796 -52.033  1.00  0.00     0.280 C 
BRANCH  17  18
HETATM   18  O   UNL     1     -40.646  54.698 -52.382  1.00  0.00    -0.341 OA
BRANCH  18  19
HETATM   19  C   UNL     1     -40.287  53.372 -52.442  1.00  0.00     0.081 A 
HETATM   20  C   UNL     1     -40.056  52.649 -51.260  1.00  0.00    -0.028 A 
HETATM   21  C   UNL     1     -40.164  53.278 -49.902  1.00  0.00     0.051 C 
HETATM   22  C   UNL     1     -39.756  51.283 -51.359  1.00  0.00     0.009 A 
HETATM   23  C   UNL     1     -39.629  50.670 -52.606  1.00  0.00     0.001 A 
HETATM   24  C   UNL     1     -39.796  51.416 -53.772  1.00  0.00     0.009 A 
HETATM   25  C   UNL     1     -40.128  52.776 -53.706  1.00  0.00    -0.028 A 
HETATM   26  C   UNL     1     -40.251  53.573 -54.974  1.00  0.00     0.051 C 
ENDBRANCH  18  19
ENDBRANCH  17  18
ENDBRANCH   1  17
TORSDOF 5
ENDMDL
MODEL 10
REMARK VINA RESULT:      -7.7      2.298      8.981
REMARK  5 active torsions:
REMARK  status: ('A' for Active; 'I' for Inactive)
REMARK    1  A    between atoms: C_3  and  O_4 
REMARK    2  A    between atoms: O_4  and  C_5 
REMARK    3  A    between atoms: C_5  and  C_6 
REMARK       I    between atoms: C_6  and  N_7 
REMARK    4  A    between atoms: N_7  and  N_8 
REMARK    5  A    between atoms: C_9  and  C_10 
ROOT
HETATM    1  C   UNL     1     -43.303  55.750 -53.853  1.00  0.00     0.261 C 
HETATM    2  N   UNL     1     -42.888  55.526 -55.162  1.00  0.00    -0.246 N 
HETATM    3  O   UNL     1     -44.054  56.651 -53.479  1.00  0.00    -0.269 OA
HETATM    4  H   UNL     1     -42.501  54.605 -55.362  1.00  0.00     0.192 HD
ENDROOT
BRANCH   2   5
HETATM    5  N   UNL     1     -43.345  56.209 -56.269  1.00  0.00    -0.184 NA
HETATM    6  C   UNL     1     -42.935  55.812 -57.433  1.00  0.00     0.152 C 
BRANCH   6   7
HETATM    7  C   UNL     1     -43.342  56.522 -58.630  1.00  0.00     0.011 A 
HETATM    8  C   UNL     1     -42.959  57.851 -59.004  1.00  0.00     0.004 A 
HETATM    9  C   UNL     1     -43.568  58.135 -60.227  1.00  0.00     0.043 A 
HETATM   10  C   UNL     1     -42.152  58.846 -58.409  1.00  0.00     0.014 A 
HETATM   11  C   UNL     1     -43.404  59.359 -60.889  1.00  0.00     0.030 A 
HETATM   12  N   UNL     1     -44.298  57.024 -60.581  1.00  0.00    -0.364 N 
HETATM   13  C   UNL     1     -42.597  60.324 -60.279  1.00  0.00     0.002 A 
HETATM   14  C   UNL     1     -41.980  60.074 -59.057  1.00  0.00     0.001 A 
HETATM   15  H   UNL     1     -44.851  56.947 -61.425  1.00  0.00     0.165 HD
HETATM   16  C   UNL     1     -44.174  56.050 -59.628  1.00  0.00     0.102 A 
ENDBRANCH   6   7
ENDBRANCH   2   5
BRANCH   1  17
HETATM   17  C   UNL     1     -42.674  54.791 -52.848  1.00  0.00     0.280 C 
BRANCH  17  18
HETATM   18  O   UNL     1     -41.254  54.943 -52.769  1.00  0.00    -0.341 OA
BRANCH  18  19
HETATM   19  C   UNL     1     -40.673  53.703 -52.637  1.00  0.00     0.081 A 
HETATM   20  C   UNL     1     -40.547  53.114 -51.368  1.00  0.00    -0.028 A 
HETATM   21  C   UNL     1     -41.009  53.801 -50.116  1.00  0.00     0.051 C 
HETATM   22  C   UNL     1     -40.009  51.822 -51.280  1.00  0.00     0.009 A 
HETATM   23  C   UNL     1     -39.553  51.162 -52.421  1.00  0.00     0.001 A 
HETATM   24  C   UNL     1     -39.624  51.786 -53.665  1.00  0.00     0.009 A 
HETATM   25  C   UNL     1     -40.184  53.064 -53.791  1.00  0.00    -0.028 A 
HETATM   26  C   UNL     1     -40.202  53.739 -55.133  1.00  0.00     0.051 C 
ENDBRANCH  18  19
ENDBRANCH  17  18
ENDBRANCH   1  17
TORSDOF 5
ENDMDL
