MODEL 1
REMARK VINA RESULT:     -10.5      0.000      0.000
REMARK  7 active torsions:
REMARK  status: ('A' for Active; 'I' for Inactive)
REMARK    1  A    between atoms: C_6  and  N_7 
REMARK       I    between atoms: N_7  and  C_8 
REMARK    2  A    between atoms: C_8  and  C_9 
REMARK    3  A    between atoms: C_9  and  N_10 
REMARK    4  A    between atoms: N_13  and  C_14 
REMARK    5  A    between atoms: C_14  and  C_15 
REMARK    6  A    between atoms: C_30  and  C_31 
REMARK       I    between atoms: C_31  and  N_32 
REMARK    7  A    between atoms: N_32  and  C_33 
ROOT
HETATM    1  N   UNL     1     -42.592  57.994 -53.457  1.00  0.00    -0.290 N 
HETATM    2  C   UNL     1     -42.238  57.693 -54.766  1.00  0.00     0.332 C 
HETATM    3  O   UNL     1     -41.468  56.755 -55.002  1.00  0.00    -0.246 OA
HETATM    4  N   UNL     1     -42.813  58.455 -55.767  1.00  0.00    -0.261 N 
HETATM    5  C   UNL     1     -43.842  59.364 -55.572  1.00  0.00     0.264 C 
HETATM    6  O   UNL     1     -44.393  59.985 -56.477  1.00  0.00    -0.267 OA
HETATM    7  C   UNL     1     -44.298  59.563 -54.187  1.00  0.00     0.059 A 
HETATM    8  C   UNL     1     -43.657  58.883 -53.150  1.00  0.00     0.056 A 
HETATM    9  C   UNL     1     -45.358  60.444 -53.930  1.00  0.00     0.020 A 
HETATM   10  C   UNL     1     -45.807  60.634 -52.626  1.00  0.00     0.018 A 
HETATM   11  C   UNL     1     -45.200  59.941 -51.577  1.00  0.00     0.034 A 
HETATM   12  C   UNL     1     -44.117  59.087 -51.838  1.00  0.00     0.048 A 
ENDROOT
BRANCH   1  13
HETATM   13  C   UNL     1     -41.871  57.299 -52.385  1.00  0.00     0.237 C 
BRANCH  13  14
HETATM   14  C   UNL     1     -41.952  55.777 -52.522  1.00  0.00     0.240 C 
HETATM   15  N   UNL     1     -40.711  55.175 -52.634  1.00  0.00    -0.325 N 
HETATM   16  H   UNL     1     -39.942  55.762 -52.321  1.00  0.00     0.169 HD
HETATM   17  O   UNL     1     -43.038  55.212 -52.421  1.00  0.00    -0.271 OA
BRANCH  15  18
HETATM   18  C   UNL     1     -40.421  53.795 -52.777  1.00  0.00     0.046 A 
HETATM   19  C   UNL     1     -40.416  53.106 -54.008  1.00  0.00    -0.034 A 
HETATM   20  C   UNL     1     -40.168  51.717 -54.022  1.00  0.00     0.015 A 
HETATM   21  C   UNL     1     -40.612  53.747 -55.356  1.00  0.00     0.050 C 
HETATM   22  C   UNL     1     -39.872  51.011 -52.856  1.00  0.00    -0.061 A 
HETATM   23  C   UNL     1     -39.566  49.545 -52.908  1.00  0.00     0.048 C 
HETATM   24  C   UNL     1     -39.790  51.713 -51.655  1.00  0.00     0.015 A 
HETATM   25  C   UNL     1     -40.062  53.092 -51.598  1.00  0.00    -0.034 A 
HETATM   26  C   UNL     1     -39.981  53.763 -50.248  1.00  0.00     0.050 C 
ENDBRANCH  15  18
ENDBRANCH  13  14
ENDBRANCH   1  13
BRANCH   4  27
HETATM   27  C   UNL     1     -42.314  58.284 -57.126  1.00  0.00     0.175 C 
BRANCH  27  28
HETATM   28  C   UNL     1     -43.204  57.348 -57.920  1.00  0.00    -0.037 A 
HETATM   29  C   UNL     1     -44.201  57.865 -58.764  1.00  0.00     0.048 A 
HETATM   30  C   UNL     1     -44.948  56.979 -59.510  1.00  0.00     0.105 A 
HETATM   31  C   UNL     1     -44.743  55.622 -59.443  1.00  0.00     0.105 A 
HETATM   32  O   UNL     1     -45.938  57.311 -60.382  1.00  0.00    -0.323 OA
HETATM   33  O   UNL     1     -45.577  54.929 -60.263  1.00  0.00    -0.323 OA
HETATM   34  C   UNL     1     -43.778  55.075 -58.626  1.00  0.00     0.040 A 
HETATM   35  C   UNL     1     -46.325  56.008 -60.862  1.00  0.00     0.352 A 
HETATM   36  C   UNL     1     -43.000  55.949 -57.861  1.00  0.00     0.012 A 
ENDBRANCH  27  28
ENDBRANCH   4  27
BRANCH  11  37
HETATM   37  C   UNL     1     -45.728  60.141 -50.199  1.00  0.00     0.252 C 
HETATM   38  N   UNL     1     -45.914  61.450 -49.801  1.00  0.00    -0.352 N 
HETATM   39  H   UNL     1     -45.518  62.190 -50.365  1.00  0.00     0.163 HD
HETATM   40  O   UNL     1     -45.928  59.171 -49.477  1.00  0.00    -0.268 OA
BRANCH  38  41
HETATM   41  C   UNL     1     -46.257  61.782 -48.421  1.00  0.00     0.084 C 
HETATM   42  C   UNL     1     -45.015  62.236 -47.641  1.00  0.00     0.025 C 
HETATM   43  C   UNL     1     -44.512  63.606 -48.093  1.00  0.00     0.002 C 
HETATM   44  C   UNL     1     -45.614  64.658 -48.026  1.00  0.00     0.000 C 
HETATM   45  C   UNL     1     -46.857  64.234 -48.802  1.00  0.00     0.002 C 
HETATM   46  C   UNL     1     -47.355  62.852 -48.377  1.00  0.00     0.025 C 
ENDBRANCH  38  41
ENDBRANCH  11  37
TORSDOF 7
ENDMDL
MODEL 2
REMARK VINA RESULT:     -10.1      2.174      8.499
REMARK  7 active torsions:
REMARK  status: ('A' for Active; 'I' for Inactive)
REMARK    1  A    between atoms: C_6  and  N_7 
REMARK       I    between atoms: N_7  and  C_8 
REMARK    2  A    between atoms: C_8  and  C_9 
REMARK    3  A    between atoms: C_9  and  N_10 
REMARK    4  A    between atoms: N_13  and  C_14 
REMARK    5  A    between atoms: C_14  and  C_15 
REMARK    6  A    between atoms: C_30  and  C_31 
REMARK       I    between atoms: C_31  and  N_32 
REMARK    7  A    between atoms: N_32  and  C_33 
ROOT
HETATM    1  N   UNL     1     -43.760  59.327 -53.421  1.00  0.00    -0.290 N 
HETATM    2  C   UNL     1     -43.331  59.809 -52.191  1.00  0.00     0.332 C 
HETATM    3  O   UNL     1     -43.108  59.028 -51.260  1.00  0.00    -0.246 OA
HETATM    4  N   UNL     1     -43.134  61.175 -52.082  1.00  0.00    -0.261 N 
HETATM    5  C   UNL     1     -43.156  62.061 -53.148  1.00  0.00     0.264 C 
HETATM    6  O   UNL     1     -42.911  63.261 -53.052  1.00  0.00    -0.267 OA
HETATM    7  C   UNL     1     -43.476  61.500 -54.471  1.00  0.00     0.059 A 
HETATM    8  C   UNL     1     -43.783  60.144 -54.584  1.00  0.00     0.056 A 
HETATM    9  C   UNL     1     -43.480  62.341 -55.593  1.00  0.00     0.020 A 
HETATM   10  C   UNL     1     -43.770  61.823 -56.852  1.00  0.00     0.018 A 
HETATM   11  C   UNL     1     -44.052  60.462 -56.992  1.00  0.00     0.034 A 
HETATM   12  C   UNL     1     -44.079  59.633 -55.859  1.00  0.00     0.048 A 
ENDROOT
BRANCH   1  13
HETATM   13  C   UNL     1     -44.122  57.908 -53.501  1.00  0.00     0.237 C 
BRANCH  13  14
HETATM   14  C   UNL     1     -42.898  57.005 -53.676  1.00  0.00     0.240 C 
HETATM   15  N   UNL     1     -43.106  55.716 -53.220  1.00  0.00    -0.325 N 
HETATM   16  H   UNL     1     -44.087  55.472 -53.116  1.00  0.00     0.169 HD
HETATM   17  O   UNL     1     -41.909  57.425 -54.271  1.00  0.00    -0.271 OA
BRANCH  15  18
HETATM   18  C   UNL     1     -42.193  54.631 -53.227  1.00  0.00     0.046 A 
HETATM   19  C   UNL     1     -41.355  54.289 -52.144  1.00  0.00    -0.034 A 
HETATM   20  C   UNL     1     -40.444  53.222 -52.286  1.00  0.00     0.015 A 
HETATM   21  C   UNL     1     -41.378  54.952 -50.794  1.00  0.00     0.050 C 
HETATM   22  C   UNL     1     -40.385  52.454 -53.450  1.00  0.00    -0.061 A 
HETATM   23  C   UNL     1     -39.439  51.296 -53.553  1.00  0.00     0.048 C 
HETATM   24  C   UNL     1     -41.276  52.740 -54.482  1.00  0.00     0.015 A 
HETATM   25  C   UNL     1     -42.176  53.817 -54.389  1.00  0.00    -0.034 A 
HETATM   26  C   UNL     1     -43.082  54.072 -55.569  1.00  0.00     0.050 C 
ENDBRANCH  15  18
ENDBRANCH  13  14
ENDBRANCH   1  13
BRANCH   4  27
HETATM   27  C   UNL     1     -42.871  61.721 -50.757  1.00  0.00     0.175 C 
BRANCH  27  28
HETATM   28  C   UNL     1     -44.152  61.845 -49.954  1.00  0.00    -0.037 A 
HETATM   29  C   UNL     1     -44.254  61.246 -48.687  1.00  0.00     0.048 A 
HETATM   30  C   UNL     1     -45.416  61.433 -47.969  1.00  0.00     0.105 A 
HETATM   31  C   UNL     1     -46.459  62.179 -48.461  1.00  0.00     0.105 A 
HETATM   32  O   UNL     1     -45.672  60.937 -46.729  1.00  0.00    -0.323 OA
HETATM   33  O   UNL     1     -47.505  62.246 -47.593  1.00  0.00    -0.323 OA
HETATM   34  C   UNL     1     -46.400  62.781 -49.699  1.00  0.00     0.040 A 
HETATM   35  C   UNL     1     -46.993  61.464 -46.493  1.00  0.00     0.352 A 
HETATM   36  C   UNL     1     -45.232  62.614 -50.449  1.00  0.00     0.012 A 
ENDBRANCH  27  28
ENDBRANCH   4  27
BRANCH  11  37
HETATM   37  C   UNL     1     -44.323  59.933 -58.358  1.00  0.00     0.252 C 
HETATM   38  N   UNL     1     -43.709  58.740 -58.683  1.00  0.00    -0.352 N 
HETATM   39  H   UNL     1     -42.980  58.388 -58.077  1.00  0.00     0.163 HD
HETATM   40  O   UNL     1     -45.019  60.577 -59.133  1.00  0.00    -0.268 OA
BRANCH  38  41
HETATM   41  C   UNL     1     -43.752  58.210 -60.042  1.00  0.00     0.084 C 
HETATM   42  C   UNL     1     -42.533  57.319 -60.323  1.00  0.00     0.025 C 
HETATM   43  C   UNL     1     -42.588  55.999 -59.555  1.00  0.00     0.002 C 
HETATM   44  C   UNL     1     -43.888  55.247 -59.824  1.00  0.00     0.000 C 
HETATM   45  C   UNL     1     -45.115  56.109 -59.544  1.00  0.00     0.002 C 
HETATM   46  C   UNL     1     -45.059  57.445 -60.286  1.00  0.00     0.025 C 
ENDBRANCH  38  41
ENDBRANCH  11  37
TORSDOF 7
ENDMDL
MODEL 3
REMARK VINA RESULT:     -10.0      2.170      8.402
REMARK  7 active torsions:
REMARK  status: ('A' for Active; 'I' for Inactive)
REMARK    1  A    between atoms: C_6  and  N_7 
REMARK       I    between atoms: N_7  and  C_8 
REMARK    2  A    between atoms: C_8  and  C_9 
REMARK    3  A    between atoms: C_9  and  N_10 
REMARK    4  A    between atoms: N_13  and  C_14 
REMARK    5  A    between atoms: C_14  and  C_15 
REMARK    6  A    between atoms: C_30  and  C_31 
REMARK       I    between atoms: C_31  and  N_32 
REMARK    7  A    between atoms: N_32  and  C_33 
ROOT
HETATM    1  N   UNL     1     -43.845  59.278 -52.881  1.00  0.00    -0.290 N 
HETATM    2  C   UNL     1     -43.255  59.832 -51.752  1.00  0.00     0.332 C 
HETATM    3  O   UNL     1     -42.867  59.104 -50.832  1.00  0.00    -0.246 OA
HETATM    4  N   UNL     1     -43.093  61.206 -51.734  1.00  0.00    -0.261 N 
HETATM    5  C   UNL     1     -43.306  62.038 -52.822  1.00  0.00     0.264 C 
HETATM    6  O   UNL     1     -43.092  63.248 -52.817  1.00  0.00    -0.267 OA
HETATM    7  C   UNL     1     -43.799  61.405 -54.056  1.00  0.00     0.059 A 
HETATM    8  C   UNL     1     -44.071  60.036 -54.061  1.00  0.00     0.056 A 
HETATM    9  C   UNL     1     -44.001  62.189 -55.201  1.00  0.00     0.020 A 
HETATM   10  C   UNL     1     -44.457  61.602 -56.377  1.00  0.00     0.018 A 
HETATM   11  C   UNL     1     -44.708  60.228 -56.414  1.00  0.00     0.034 A 
HETATM   12  C   UNL     1     -44.535  59.455 -55.254  1.00  0.00     0.048 A 
ENDROOT
BRANCH   1  13
HETATM   13  C   UNL     1     -44.164  57.847 -52.843  1.00  0.00     0.237 C 
BRANCH  13  14
HETATM   14  C   UNL     1     -42.974  56.976 -53.254  1.00  0.00     0.240 C 
HETATM   15  N   UNL     1     -43.122  55.649 -52.890  1.00  0.00    -0.325 N 
HETATM   16  H   UNL     1     -44.081  55.387 -52.680  1.00  0.00     0.169 HD
HETATM   17  O   UNL     1     -42.071  57.456 -53.934  1.00  0.00    -0.271 OA
BRANCH  15  18
HETATM   18  C   UNL     1     -42.219  54.579 -53.110  1.00  0.00     0.046 A 
HETATM   19  C   UNL     1     -42.156  53.823 -54.300  1.00  0.00    -0.034 A 
HETATM   20  C   UNL     1     -41.254  52.741 -54.384  1.00  0.00     0.015 A 
HETATM   21  C   UNL     1     -42.957  54.103 -55.543  1.00  0.00     0.050 C 
HETATM   22  C   UNL     1     -40.380  52.429 -53.344  1.00  0.00    -0.061 A 
HETATM   23  C   UNL     1     -39.400  51.303 -53.481  1.00  0.00     0.048 C 
HETATM   24  C   UNL     1     -40.384  53.233 -52.206  1.00  0.00     0.015 A 
HETATM   25  C   UNL     1     -41.291  54.301 -52.073  1.00  0.00    -0.034 A 
HETATM   26  C   UNL     1     -41.246  55.098 -50.792  1.00  0.00     0.050 C 
ENDBRANCH  15  18
ENDBRANCH  13  14
ENDBRANCH   1  13
BRANCH   4  27
HETATM   27  C   UNL     1     -42.654  61.824 -50.489  1.00  0.00     0.175 C 
BRANCH  27  28
HETATM   28  C   UNL     1     -43.840  62.240 -49.640  1.00  0.00    -0.037 A 
HETATM   29  C   UNL     1     -44.521  61.289 -48.861  1.00  0.00     0.048 A 
HETATM   30  C   UNL     1     -45.557  61.723 -48.062  1.00  0.00     0.105 A 
HETATM   31  C   UNL     1     -45.931  63.044 -48.013  1.00  0.00     0.105 A 
HETATM   32  O   UNL     1     -46.308  60.941 -47.240  1.00  0.00    -0.323 OA
HETATM   33  O   UNL     1     -46.965  63.260 -47.157  1.00  0.00    -0.323 OA
HETATM   34  C   UNL     1     -45.291  64.007 -48.762  1.00  0.00     0.040 A 
HETATM   35  C   UNL     1     -47.191  61.923 -46.663  1.00  0.00     0.352 A 
HETATM   36  C   UNL     1     -44.233  63.598 -49.579  1.00  0.00     0.012 A 
ENDBRANCH  27  28
ENDBRANCH   4  27
BRANCH  11  37
HETATM   37  C   UNL     1     -45.161  59.626 -57.698  1.00  0.00     0.252 C 
HETATM   38  N   UNL     1     -44.505  58.479 -58.098  1.00  0.00    -0.352 N 
HETATM   39  H   UNL     1     -43.653  58.215 -57.621  1.00  0.00     0.163 HD
HETATM   40  O   UNL     1     -46.037  60.178 -58.354  1.00  0.00    -0.268 OA
BRANCH  38  41
HETATM   41  C   UNL     1     -44.733  57.895 -59.416  1.00  0.00     0.084 C 
HETATM   42  C   UNL     1     -43.694  58.399 -60.427  1.00  0.00     0.025 C 
HETATM   43  C   UNL     1     -42.299  57.835 -60.159  1.00  0.00     0.002 C 
HETATM   44  C   UNL     1     -42.313  56.310 -60.104  1.00  0.00     0.000 C 
HETATM   45  C   UNL     1     -43.333  55.784 -59.099  1.00  0.00     0.002 C 
HETATM   46  C   UNL     1     -44.728  56.363 -59.341  1.00  0.00     0.025 C 
ENDBRANCH  38  41
ENDBRANCH  11  37
TORSDOF 7
ENDMDL
MODEL 4
REMARK VINA RESULT:      -9.8      2.985      6.604
REMARK  7 active torsions:
REMARK  status: ('A' for Active; 'I' for Inactive)
REMARK    1  A    between atoms: C_6  and  N_7 
REMARK       I    between atoms: N_7  and  C_8 
REMARK    2  A    between atoms: C_8  and  C_9 
REMARK    3  A    between atoms: C_9  and  N_10 
REMARK    4  A    between atoms: N_13  and  C_14 
REMARK    5  A    between atoms: C_14  and  C_15 
REMARK    6  A    between atoms: C_30  and  C_31 
REMARK       I    between atoms: C_31  and  N_32 
REMARK    7  A    between atoms: N_32  and  C_33 
ROOT
HETATM    1  N   UNL     1     -43.137  60.221 -54.113  1.00  0.00    -0.290 N 
HETATM    2  C   UNL     1     -42.127  59.485 -53.508  1.00  0.00     0.332 C 
HETATM    3  O   UNL     1     -40.979  59.512 -53.964  1.00  0.00    -0.246 OA
HETATM    4  N   UNL     1     -42.461  58.770 -52.371  1.00  0.00    -0.261 N 
HETATM    5  C   UNL     1     -43.668  58.881 -51.698  1.00  0.00     0.264 C 
HETATM    6  O   UNL     1     -43.929  58.295 -50.650  1.00  0.00    -0.267 OA
HETATM    7  C   UNL     1     -44.675  59.779 -52.285  1.00  0.00     0.059 A 
HETATM    8  C   UNL     1     -44.397  60.427 -53.489  1.00  0.00     0.056 A 
HETATM    9  C   UNL     1     -45.903  59.959 -51.631  1.00  0.00     0.020 A 
HETATM   10  C   UNL     1     -46.861  60.814 -52.169  1.00  0.00     0.018 A 
HETATM   11  C   UNL     1     -46.592  61.495 -53.359  1.00  0.00     0.034 A 
HETATM   12  C   UNL     1     -45.374  61.284 -54.025  1.00  0.00     0.048 A 
ENDROOT
BRANCH   1  13
HETATM   13  C   UNL     1     -42.833  60.852 -55.402  1.00  0.00     0.237 C 
BRANCH  13  14
HETATM   14  C   UNL     1     -42.678  59.829 -56.529  1.00  0.00     0.240 C 
HETATM   15  N   UNL     1     -43.802  59.041 -56.705  1.00  0.00    -0.325 N 
HETATM   16  H   UNL     1     -44.644  59.431 -56.288  1.00  0.00     0.169 HD
HETATM   17  O   UNL     1     -41.672  59.842 -57.233  1.00  0.00    -0.271 OA
BRANCH  15  18
HETATM   18  C   UNL     1     -44.000  58.002 -57.649  1.00  0.00     0.046 A 
HETATM   19  C   UNL     1     -43.388  56.733 -57.575  1.00  0.00    -0.034 A 
HETATM   20  C   UNL     1     -43.615  55.796 -58.605  1.00  0.00     0.015 A 
HETATM   21  C   UNL     1     -42.523  56.258 -56.439  1.00  0.00     0.050 C 
HETATM   22  C   UNL     1     -44.475  56.066 -59.669  1.00  0.00    -0.061 A 
HETATM   23  C   UNL     1     -44.734  55.032 -60.724  1.00  0.00     0.048 C 
HETATM   24  C   UNL     1     -45.146  57.287 -59.691  1.00  0.00     0.015 A 
HETATM   25  C   UNL     1     -44.920  58.258 -58.698  1.00  0.00    -0.034 A 
HETATM   26  C   UNL     1     -45.667  59.565 -58.820  1.00  0.00     0.050 C 
ENDBRANCH  15  18
ENDBRANCH  13  14
ENDBRANCH   1  13
BRANCH   4  27
HETATM   27  C   UNL     1     -41.472  57.845 -51.833  1.00  0.00     0.175 C 
BRANCH  27  28
HETATM   28  C   UNL     1     -41.586  56.483 -52.489  1.00  0.00    -0.037 A 
HETATM   29  C   UNL     1     -40.609  56.054 -53.405  1.00  0.00     0.048 A 
HETATM   30  C   UNL     1     -40.723  54.786 -53.934  1.00  0.00     0.105 A 
HETATM   31  C   UNL     1     -41.756  53.948 -53.590  1.00  0.00     0.105 A 
HETATM   32  O   UNL     1     -39.862  54.213 -54.817  1.00  0.00    -0.323 OA
HETATM   33  O   UNL     1     -41.677  52.743 -54.215  1.00  0.00    -0.323 OA
HETATM   34  C   UNL     1     -42.735  54.330 -52.699  1.00  0.00     0.040 A 
HETATM   35  C   UNL     1     -40.468  52.915 -54.984  1.00  0.00     0.352 A 
HETATM   36  C   UNL     1     -42.643  55.609 -52.141  1.00  0.00     0.012 A 
ENDBRANCH  27  28
ENDBRANCH   4  27
BRANCH  11  37
HETATM   37  C   UNL     1     -47.624  62.429 -53.887  1.00  0.00     0.252 C 
HETATM   38  N   UNL     1     -48.933  62.147 -53.549  1.00  0.00    -0.352 N 
HETATM   39  H   UNL     1     -49.145  61.248 -53.136  1.00  0.00     0.163 HD
HETATM   40  O   UNL     1     -47.290  63.356 -54.615  1.00  0.00    -0.268 OA
BRANCH  38  41
HETATM   41  C   UNL     1     -50.045  62.879 -54.146  1.00  0.00     0.084 C 
HETATM   42  C   UNL     1     -51.202  61.932 -54.494  1.00  0.00     0.025 C 
HETATM   43  C   UNL     1     -51.913  61.399 -53.250  1.00  0.00     0.002 C 
HETATM   44  C   UNL     1     -52.388  62.533 -52.347  1.00  0.00     0.000 C 
HETATM   45  C   UNL     1     -51.253  63.483 -51.979  1.00  0.00     0.002 C 
HETATM   46  C   UNL     1     -50.517  64.003 -53.215  1.00  0.00     0.025 C 
ENDBRANCH  38  41
ENDBRANCH  11  37
TORSDOF 7
ENDMDL
MODEL 5
REMARK VINA RESULT:      -9.7      1.735      2.666
REMARK  7 active torsions:
REMARK  status: ('A' for Active; 'I' for Inactive)
REMARK    1  A    between atoms: C_6  and  N_7 
REMARK       I    between atoms: N_7  and  C_8 
REMARK    2  A    between atoms: C_8  and  C_9 
REMARK    3  A    between atoms: C_9  and  N_10 
REMARK    4  A    between atoms: N_13  and  C_14 
REMARK    5  A    between atoms: C_14  and  C_15 
REMARK    6  A    between atoms: C_30  and  C_31 
REMARK       I    between atoms: C_31  and  N_32 
REMARK    7  A    between atoms: N_32  and  C_33 
ROOT
HETATM    1  N   UNL     1     -42.717  60.311 -53.801  1.00  0.00    -0.290 N 
HETATM    2  C   UNL     1     -42.503  60.283 -55.173  1.00  0.00     0.332 C 
HETATM    3  O   UNL     1     -41.409  59.927 -55.625  1.00  0.00    -0.246 OA
HETATM    4  N   UNL     1     -43.568  60.628 -55.986  1.00  0.00    -0.261 N 
HETATM    5  C   UNL     1     -44.868  60.818 -55.541  1.00  0.00     0.264 C 
HETATM    6  O   UNL     1     -45.821  61.056 -56.279  1.00  0.00    -0.267 OA
HETATM    7  C   UNL     1     -45.098  60.703 -54.092  1.00  0.00     0.059 A 
HETATM    8  C   UNL     1     -44.015  60.462 -53.244  1.00  0.00     0.056 A 
HETATM    9  C   UNL     1     -46.397  60.852 -53.586  1.00  0.00     0.020 A 
HETATM   10  C   UNL     1     -46.630  60.735 -52.219  1.00  0.00     0.018 A 
HETATM   11  C   UNL     1     -45.566  60.465 -51.355  1.00  0.00     0.034 A 
HETATM   12  C   UNL     1     -44.263  60.350 -51.865  1.00  0.00     0.048 A 
ENDROOT
BRANCH   1  13
HETATM   13  C   UNL     1     -41.554  60.101 -52.932  1.00  0.00     0.237 C 
BRANCH  13  14
HETATM   14  C   UNL     1     -40.921  58.722 -53.131  1.00  0.00     0.240 C 
HETATM   15  N   UNL     1     -41.853  57.702 -53.202  1.00  0.00    -0.325 N 
HETATM   16  H   UNL     1     -42.796  58.023 -53.406  1.00  0.00     0.169 HD
HETATM   17  O   UNL     1     -39.710  58.626 -53.314  1.00  0.00    -0.271 OA
BRANCH  15  18
HETATM   18  C   UNL     1     -41.618  56.315 -53.378  1.00  0.00     0.046 A 
HETATM   19  C   UNL     1     -41.237  55.435 -52.343  1.00  0.00    -0.034 A 
HETATM   20  C   UNL     1     -40.974  54.083 -52.648  1.00  0.00     0.015 A 
HETATM   21  C   UNL     1     -41.128  55.809 -50.889  1.00  0.00     0.050 C 
HETATM   22  C   UNL     1     -41.132  53.575 -53.938  1.00  0.00    -0.061 A 
HETATM   23  C   UNL     1     -40.890  52.123 -54.222  1.00  0.00     0.048 C 
HETATM   24  C   UNL     1     -41.593  54.428 -54.938  1.00  0.00     0.015 A 
HETATM   25  C   UNL     1     -41.836  55.790 -54.678  1.00  0.00    -0.034 A 
HETATM   26  C   UNL     1     -42.302  56.646 -55.830  1.00  0.00     0.050 C 
ENDBRANCH  15  18
ENDBRANCH  13  14
ENDBRANCH   1  13
BRANCH   4  27
HETATM   27  C   UNL     1     -43.314  60.790 -57.412  1.00  0.00     0.175 C 
BRANCH  27  28
HETATM   28  C   UNL     1     -43.220  59.445 -58.105  1.00  0.00    -0.037 A 
HETATM   29  C   UNL     1     -44.357  58.627 -58.222  1.00  0.00     0.048 A 
HETATM   30  C   UNL     1     -44.238  57.439 -58.909  1.00  0.00     0.105 A 
HETATM   31  C   UNL     1     -43.048  57.043 -59.472  1.00  0.00     0.105 A 
HETATM   32  O   UNL     1     -45.238  56.542 -59.126  1.00  0.00    -0.323 OA
HETATM   33  O   UNL     1     -43.148  55.847 -60.111  1.00  0.00    -0.323 OA
HETATM   34  C   UNL     1     -41.910  57.814 -59.378  1.00  0.00     0.040 A 
HETATM   35  C   UNL     1     -44.542  55.541 -59.896  1.00  0.00     0.352 A 
HETATM   36  C   UNL     1     -42.001  59.027 -58.691  1.00  0.00     0.012 A 
ENDBRANCH  27  28
ENDBRANCH   4  27
BRANCH  11  37
HETATM   37  C   UNL     1     -45.857  60.310 -49.903  1.00  0.00     0.252 C 
HETATM   38  N   UNL     1     -45.896  61.475 -49.161  1.00  0.00    -0.352 N 
HETATM   39  H   UNL     1     -45.550  62.328 -49.579  1.00  0.00     0.163 HD
HETATM   40  O   UNL     1     -46.000  59.191 -49.426  1.00  0.00    -0.268 OA
BRANCH  38  41
HETATM   41  C   UNL     1     -45.996  61.444 -47.705  1.00  0.00     0.084 C 
HETATM   42  C   UNL     1     -44.806  62.168 -47.058  1.00  0.00     0.025 C 
HETATM   43  C   UNL     1     -44.864  63.681 -47.265  1.00  0.00     0.002 C 
HETATM   44  C   UNL     1     -46.188  64.263 -46.780  1.00  0.00     0.000 C 
HETATM   45  C   UNL     1     -47.386  63.566 -47.416  1.00  0.00     0.002 C 
HETATM   46  C   UNL     1     -47.326  62.048 -47.239  1.00  0.00     0.025 C 
ENDBRANCH  38  41
ENDBRANCH  11  37
TORSDOF 7
ENDMDL
MODEL 6
REMARK VINA RESULT:      -9.6      2.747      9.560
REMARK  7 active torsions:
REMARK  status: ('A' for Active; 'I' for Inactive)
REMARK    1  A    between atoms: C_6  and  N_7 
REMARK       I    between atoms: N_7  and  C_8 
REMARK    2  A    between atoms: C_8  and  C_9 
REMARK    3  A    between atoms: C_9  and  N_10 
REMARK    4  A    between atoms: N_13  and  C_14 
REMARK    5  A    between atoms: C_14  and  C_15 
REMARK    6  A    between atoms: C_30  and  C_31 
REMARK       I    between atoms: C_31  and  N_32 
REMARK    7  A    between atoms: N_32  and  C_33 
ROOT
HETATM    1  N   UNL     1     -44.791  60.552 -52.132  1.00  0.00    -0.290 N 
HETATM    2  C   UNL     1     -45.295  61.784 -51.736  1.00  0.00     0.332 C 
HETATM    3  O   UNL     1     -46.470  62.082 -51.972  1.00  0.00    -0.246 OA
HETATM    4  N   UNL     1     -44.439  62.622 -51.043  1.00  0.00    -0.261 N 
HETATM    5  C   UNL     1     -43.192  62.252 -50.563  1.00  0.00     0.264 C 
HETATM    6  O   UNL     1     -42.469  62.981 -49.888  1.00  0.00    -0.267 OA
HETATM    7  C   UNL     1     -42.738  60.888 -50.877  1.00  0.00     0.059 A 
HETATM    8  C   UNL     1     -43.541  60.064 -51.666  1.00  0.00     0.056 A 
HETATM    9  C   UNL     1     -41.500  60.444 -50.389  1.00  0.00     0.020 A 
HETATM   10  C   UNL     1     -41.063  59.153 -50.670  1.00  0.00     0.018 A 
HETATM   11  C   UNL     1     -41.864  58.300 -51.433  1.00  0.00     0.034 A 
HETATM   12  C   UNL     1     -43.087  58.763 -51.945  1.00  0.00     0.048 A 
ENDROOT
BRANCH   1  13
HETATM   13  C   UNL     1     -45.637  59.725 -53.000  1.00  0.00     0.237 C 
BRANCH  13  14
HETATM   14  C   UNL     1     -45.244  59.840 -54.475  1.00  0.00     0.240 C 
HETATM   15  N   UNL     1     -44.750  58.658 -54.999  1.00  0.00    -0.325 N 
HETATM   16  H   UNL     1     -44.987  57.837 -54.448  1.00  0.00     0.169 HD
HETATM   17  O   UNL     1     -45.478  60.877 -55.091  1.00  0.00    -0.271 OA
BRANCH  15  18
HETATM   18  C   UNL     1     -44.296  58.412 -56.318  1.00  0.00     0.046 A 
HETATM   19  C   UNL     1     -45.138  58.084 -57.402  1.00  0.00    -0.034 A 
HETATM   20  C   UNL     1     -44.566  57.803 -58.661  1.00  0.00     0.015 A 
HETATM   21  C   UNL     1     -46.641  58.050 -57.346  1.00  0.00     0.050 C 
HETATM   22  C   UNL     1     -43.192  57.894 -58.882  1.00  0.00    -0.061 A 
HETATM   23  C   UNL     1     -42.618  57.636 -60.242  1.00  0.00     0.048 C 
HETATM   24  C   UNL     1     -42.374  58.304 -57.831  1.00  0.00     0.015 A 
HETATM   25  C   UNL     1     -42.905  58.562 -56.554  1.00  0.00    -0.034 A 
HETATM   26  C   UNL     1     -41.939  58.970 -55.468  1.00  0.00     0.050 C 
ENDBRANCH  15  18
ENDBRANCH  13  14
ENDBRANCH   1  13
BRANCH   4  27
HETATM   27  C   UNL     1     -44.882  63.987 -50.786  1.00  0.00     0.175 C 
BRANCH  27  28
HETATM   28  C   UNL     1     -45.818  64.041 -49.594  1.00  0.00    -0.037 A 
HETATM   29  C   UNL     1     -45.402  63.552 -48.344  1.00  0.00     0.048 A 
HETATM   30  C   UNL     1     -46.265  63.673 -47.277  1.00  0.00     0.105 A 
HETATM   31  C   UNL     1     -47.504  64.252 -47.408  1.00  0.00     0.105 A 
HETATM   32  O   UNL     1     -46.015  63.266 -46.002  1.00  0.00    -0.323 OA
HETATM   33  O   UNL     1     -48.191  64.282 -46.235  1.00  0.00    -0.323 OA
HETATM   34  C   UNL     1     -47.950  64.743 -48.616  1.00  0.00     0.040 A 
HETATM   35  C   UNL     1     -47.236  63.664 -45.347  1.00  0.00     0.352 A 
HETATM   36  C   UNL     1     -47.095  64.638 -49.717  1.00  0.00     0.012 A 
ENDBRANCH  27  28
ENDBRANCH   4  27
BRANCH  11  37
HETATM   37  C   UNL     1     -41.382  56.914 -51.684  1.00  0.00     0.252 C 
HETATM   38  N   UNL     1     -41.472  56.463 -52.986  1.00  0.00    -0.352 N 
HETATM   39  H   UNL     1     -42.016  56.999 -53.649  1.00  0.00     0.163 HD
HETATM   40  O   UNL     1     -40.980  56.231 -50.750  1.00  0.00    -0.268 OA
BRANCH  38  41
HETATM   41  C   UNL     1     -41.200  55.070 -53.327  1.00  0.00     0.084 C 
HETATM   42  C   UNL     1     -42.446  54.199 -53.116  1.00  0.00     0.025 C 
HETATM   43  C   UNL     1     -43.537  54.484 -54.149  1.00  0.00     0.002 C 
HETATM   44  C   UNL     1     -43.008  54.347 -55.573  1.00  0.00     0.000 C 
HETATM   45  C   UNL     1     -41.774  55.211 -55.810  1.00  0.00     0.002 C 
HETATM   46  C   UNL     1     -40.686  54.954 -54.767  1.00  0.00     0.025 C 
ENDBRANCH  38  41
ENDBRANCH  11  37
TORSDOF 7
ENDMDL
MODEL 7
REMARK VINA RESULT:      -9.5      3.291      8.283
REMARK  7 active torsions:
REMARK  status: ('A' for Active; 'I' for Inactive)
REMARK    1  A    between atoms: C_6  and  N_7 
REMARK       I    between atoms: N_7  and  C_8 
REMARK    2  A    between atoms: C_8  and  C_9 
REMARK    3  A    between atoms: C_9  and  N_10 
REMARK    4  A    between atoms: N_13  and  C_14 
REMARK    5  A    between atoms: C_14  and  C_15 
REMARK    6  A    between atoms: C_30  and  C_31 
REMARK       I    between atoms: C_31  and  N_32 
REMARK    7  A    between atoms: N_32  and  C_33 
ROOT
HETATM    1  N   UNL     1     -43.906  58.315 -55.568  1.00  0.00    -0.290 N 
HETATM    2  C   UNL     1     -44.267  57.201 -54.822  1.00  0.00     0.332 C 
HETATM    3  O   UNL     1     -44.980  57.327 -53.821  1.00  0.00    -0.246 OA
HETATM    4  N   UNL     1     -43.827  55.969 -55.274  1.00  0.00    -0.261 N 
HETATM    5  C   UNL     1     -43.218  55.752 -56.500  1.00  0.00     0.264 C 
HETATM    6  O   UNL     1     -42.894  54.645 -56.922  1.00  0.00    -0.267 OA
HETATM    7  C   UNL     1     -42.972  56.936 -57.338  1.00  0.00     0.059 A 
HETATM    8  C   UNL     1     -43.311  58.201 -56.853  1.00  0.00     0.056 A 
HETATM    9  C   UNL     1     -42.389  56.777 -58.604  1.00  0.00     0.020 A 
HETATM   10  C   UNL     1     -42.161  57.887 -59.411  1.00  0.00     0.018 A 
HETATM   11  C   UNL     1     -42.519  59.159 -58.958  1.00  0.00     0.034 A 
HETATM   12  C   UNL     1     -43.071  59.314 -57.677  1.00  0.00     0.048 A 
ENDROOT
BRANCH   1  13
HETATM   13  C   UNL     1     -44.232  59.633 -55.014  1.00  0.00     0.237 C 
BRANCH  13  14
HETATM   14  C   UNL     1     -43.115  60.182 -54.123  1.00  0.00     0.240 C 
HETATM   15  N   UNL     1     -42.649  59.258 -53.205  1.00  0.00    -0.325 N 
HETATM   16  H   UNL     1     -42.888  58.297 -53.435  1.00  0.00     0.169 HD
HETATM   17  O   UNL     1     -42.656  61.301 -54.339  1.00  0.00    -0.271 OA
BRANCH  15  18
HETATM   18  C   UNL     1     -41.631  59.430 -52.234  1.00  0.00     0.046 A 
HETATM   19  C   UNL     1     -41.757  60.235 -51.082  1.00  0.00    -0.034 A 
HETATM   20  C   UNL     1     -40.655  60.376 -50.214  1.00  0.00     0.015 A 
HETATM   21  C   UNL     1     -43.017  60.941 -50.658  1.00  0.00     0.050 C 
HETATM   22  C   UNL     1     -39.455  59.698 -50.431  1.00  0.00    -0.061 A 
HETATM   23  C   UNL     1     -38.317  59.831 -49.464  1.00  0.00     0.048 C 
HETATM   24  C   UNL     1     -39.366  58.836 -51.521  1.00  0.00     0.015 A 
HETATM   25  C   UNL     1     -40.434  58.694 -52.426  1.00  0.00    -0.034 A 
HETATM   26  C   UNL     1     -40.235  57.762 -53.597  1.00  0.00     0.050 C 
ENDBRANCH  15  18
ENDBRANCH  13  14
ENDBRANCH   1  13
BRANCH   4  27
HETATM   27  C   UNL     1     -44.030  54.814 -54.408  1.00  0.00     0.175 C 
BRANCH  27  28
HETATM   28  C   UNL     1     -42.834  54.594 -53.503  1.00  0.00    -0.037 A 
HETATM   29  C   UNL     1     -42.744  55.266 -52.272  1.00  0.00     0.048 A 
HETATM   30  C   UNL     1     -41.667  54.992 -51.457  1.00  0.00     0.105 A 
HETATM   31  C   UNL     1     -40.695  54.091 -51.818  1.00  0.00     0.105 A 
HETATM   32  O   UNL     1     -41.436  55.541 -50.234  1.00  0.00    -0.323 OA
HETATM   33  O   UNL     1     -39.728  53.961 -50.870  1.00  0.00    -0.323 OA
HETATM   34  C   UNL     1     -40.744  53.414 -53.017  1.00  0.00     0.040 A 
HETATM   35  C   UNL     1     -40.211  54.876 -49.864  1.00  0.00     0.352 A 
HETATM   36  C   UNL     1     -41.827  53.666 -53.863  1.00  0.00     0.012 A 
ENDBRANCH  27  28
ENDBRANCH   4  27
BRANCH  11  37
HETATM   37  C   UNL     1     -42.294  60.320 -59.862  1.00  0.00     0.252 C 
HETATM   38  N   UNL     1     -41.804  61.468 -59.271  1.00  0.00    -0.352 N 
HETATM   39  H   UNL     1     -41.801  61.531 -58.261  1.00  0.00     0.163 HD
HETATM   40  O   UNL     1     -42.585  60.233 -61.049  1.00  0.00    -0.268 OA
BRANCH  38  41
HETATM   41  C   UNL     1     -41.708  62.722 -60.012  1.00  0.00     0.084 C 
HETATM   42  C   UNL     1     -42.098  63.914 -59.126  1.00  0.00     0.025 C 
HETATM   43  C   UNL     1     -41.056  64.200 -58.044  1.00  0.00     0.002 C 
HETATM   44  C   UNL     1     -39.667  64.395 -58.643  1.00  0.00     0.000 C 
HETATM   45  C   UNL     1     -39.253  63.218 -59.521  1.00  0.00     0.002 C 
HETATM   46  C   UNL     1     -40.300  62.905 -60.590  1.00  0.00     0.025 C 
ENDBRANCH  38  41
ENDBRANCH  11  37
TORSDOF 7
ENDMDL
MODEL 8
REMARK VINA RESULT:      -9.3      2.943      6.932
REMARK  7 active torsions:
REMARK  status: ('A' for Active; 'I' for Inactive)
REMARK    1  A    between atoms: C_6  and  N_7 
REMARK       I    between atoms: N_7  and  C_8 
REMARK    2  A    between atoms: C_8  and  C_9 
REMARK    3  A    between atoms: C_9  and  N_10 
REMARK    4  A    between atoms: N_13  and  C_14 
REMARK    5  A    between atoms: C_14  and  C_15 
REMARK    6  A    between atoms: C_30  and  C_31 
REMARK       I    between atoms: C_31  and  N_32 
REMARK    7  A    between atoms: N_32  and  C_33 
ROOT
HETATM    1  N   UNL     1     -44.076  60.754 -53.789  1.00  0.00    -0.290 N 
HETATM    2  C   UNL     1     -42.773  60.291 -53.659  1.00  0.00     0.332 C 
HETATM    3  O   UNL     1     -42.081  60.089 -54.662  1.00  0.00    -0.246 OA
HETATM    4  N   UNL     1     -42.292  60.112 -52.374  1.00  0.00    -0.261 N 
HETATM    5  C   UNL     1     -42.944  60.530 -51.224  1.00  0.00     0.264 C 
HETATM    6  O   UNL     1     -42.477  60.430 -50.092  1.00  0.00    -0.267 OA
HETATM    7  C   UNL     1     -44.268  61.149 -51.399  1.00  0.00     0.059 A 
HETATM    8  C   UNL     1     -44.817  61.241 -52.678  1.00  0.00     0.056 A 
HETATM    9  C   UNL     1     -44.961  61.624 -50.276  1.00  0.00     0.020 A 
HETATM   10  C   UNL     1     -46.209  62.221 -50.428  1.00  0.00     0.018 A 
HETATM   11  C   UNL     1     -46.765  62.350 -51.702  1.00  0.00     0.034 A 
HETATM   12  C   UNL     1     -46.080  61.843 -52.818  1.00  0.00     0.048 A 
ENDROOT
BRANCH   1  13
HETATM   13  C   UNL     1     -44.646  60.797 -55.140  1.00  0.00     0.237 C 
BRANCH  13  14
HETATM   14  C   UNL     1     -44.905  59.399 -55.706  1.00  0.00     0.240 C 
HETATM   15  N   UNL     1     -44.352  59.209 -56.959  1.00  0.00    -0.325 N 
HETATM   16  H   UNL     1     -43.628  59.884 -57.193  1.00  0.00     0.169 HD
HETATM   17  O   UNL     1     -45.459  58.551 -55.010  1.00  0.00    -0.271 OA
BRANCH  15  18
HETATM   18  C   UNL     1     -44.401  58.046 -57.768  1.00  0.00     0.046 A 
HETATM   19  C   UNL     1     -43.499  56.965 -57.664  1.00  0.00    -0.034 A 
HETATM   20  C   UNL     1     -43.610  55.884 -58.562  1.00  0.00     0.015 A 
HETATM   21  C   UNL     1     -42.423  56.838 -56.619  1.00  0.00     0.050 C 
HETATM   22  C   UNL     1     -44.624  55.823 -59.518  1.00  0.00    -0.061 A 
HETATM   23  C   UNL     1     -44.745  54.637 -60.428  1.00  0.00     0.048 C 
HETATM   24  C   UNL     1     -45.565  56.849 -59.558  1.00  0.00     0.015 A 
HETATM   25  C   UNL     1     -45.467  57.959 -58.699  1.00  0.00    -0.034 A 
HETATM   26  C   UNL     1     -46.513  59.039 -58.835  1.00  0.00     0.050 C 
ENDBRANCH  15  18
ENDBRANCH  13  14
ENDBRANCH   1  13
BRANCH   4  27
HETATM   27  C   UNL     1     -41.004  59.449 -52.214  1.00  0.00     0.175 C 
BRANCH  27  28
HETATM   28  C   UNL     1     -41.182  57.965 -51.962  1.00  0.00    -0.037 A 
HETATM   29  C   UNL     1     -41.503  57.100 -53.022  1.00  0.00     0.048 A 
HETATM   30  C   UNL     1     -41.600  55.751 -52.757  1.00  0.00     0.105 A 
HETATM   31  C   UNL     1     -41.392  55.243 -51.497  1.00  0.00     0.105 A 
HETATM   32  O   UNL     1     -41.887  54.780 -53.666  1.00  0.00    -0.323 OA
HETATM   33  O   UNL     1     -41.525  53.891 -51.453  1.00  0.00    -0.323 OA
HETATM   34  C   UNL     1     -41.078  56.057 -50.430  1.00  0.00     0.040 A 
HETATM   35  C   UNL     1     -41.829  53.604 -52.834  1.00  0.00     0.352 A 
HETATM   36  C   UNL     1     -40.968  57.430 -50.669  1.00  0.00     0.012 A 
ENDBRANCH  27  28
ENDBRANCH   4  27
BRANCH  11  37
HETATM   37  C   UNL     1     -48.085  63.026 -51.833  1.00  0.00     0.252 C 
HETATM   38  N   UNL     1     -48.841  62.682 -52.936  1.00  0.00    -0.352 N 
HETATM   39  H   UNL     1     -48.402  62.153 -53.679  1.00  0.00     0.163 HD
HETATM   40  O   UNL     1     -48.422  63.868 -51.009  1.00  0.00    -0.268 OA
BRANCH  38  41
HETATM   41  C   UNL     1     -50.067  63.399 -53.270  1.00  0.00     0.084 C 
HETATM   42  C   UNL     1     -50.322  63.376 -54.784  1.00  0.00     0.025 C 
HETATM   43  C   UNL     1     -50.718  61.988 -55.287  1.00  0.00     0.002 C 
HETATM   44  C   UNL     1     -51.917  61.437 -54.522  1.00  0.00     0.000 C 
HETATM   45  C   UNL     1     -51.685  61.441 -53.015  1.00  0.00     0.002 C 
HETATM   46  C   UNL     1     -51.262  62.819 -52.504  1.00  0.00     0.025 C 
ENDBRANCH  38  41
ENDBRANCH  11  37
TORSDOF 7
ENDMDL
MODEL 9
REMARK VINA RESULT:      -9.2      3.290      9.385
REMARK  7 active torsions:
REMARK  status: ('A' for Active; 'I' for Inactive)
REMARK    1  A    between atoms: C_6  and  N_7 
REMARK       I    between atoms: N_7  and  C_8 
REMARK    2  A    between atoms: C_8  and  C_9 
REMARK    3  A    between atoms: C_9  and  N_10 
REMARK    4  A    between atoms: N_13  and  C_14 
REMARK    5  A    between atoms: C_14  and  C_15 
REMARK    6  A    between atoms: C_30  and  C_31 
REMARK       I    between atoms: C_31  and  N_32 
REMARK    7  A    between atoms: N_32  and  C_33 
ROOT
HETATM    1  N   UNL     1     -42.561  58.528 -54.594  1.00  0.00    -0.290 N 
HETATM    2  C   UNL     1     -43.144  57.377 -54.078  1.00  0.00     0.332 C 
HETATM    3  O   UNL     1     -43.532  57.348 -52.906  1.00  0.00    -0.246 OA
HETATM    4  N   UNL     1     -43.298  56.307 -54.941  1.00  0.00    -0.261 N 
HETATM    5  C   UNL     1     -43.085  56.362 -56.310  1.00  0.00     0.264 C 
HETATM    6  O   UNL     1     -43.291  55.426 -57.078  1.00  0.00    -0.267 OA
HETATM    7  C   UNL     1     -42.600  57.640 -56.856  1.00  0.00     0.059 A 
HETATM    8  C   UNL     1     -42.335  58.699 -55.986  1.00  0.00     0.056 A 
HETATM    9  C   UNL     1     -42.398  57.768 -58.237  1.00  0.00     0.020 A 
HETATM   10  C   UNL     1     -41.949  58.974 -58.768  1.00  0.00     0.018 A 
HETATM   11  C   UNL     1     -41.706  60.056 -57.919  1.00  0.00     0.034 A 
HETATM   12  C   UNL     1     -41.879  59.911 -56.534  1.00  0.00     0.048 A 
ENDROOT
BRANCH   1  13
HETATM   13  C   UNL     1     -42.251  59.608 -53.651  1.00  0.00     0.237 C 
BRANCH  13  14
HETATM   14  C   UNL     1     -43.281  60.739 -53.703  1.00  0.00     0.240 C 
HETATM   15  N   UNL     1     -44.587  60.283 -53.735  1.00  0.00    -0.325 N 
HETATM   16  H   UNL     1     -44.690  59.319 -53.429  1.00  0.00     0.169 HD
HETATM   17  O   UNL     1     -42.911  61.906 -53.609  1.00  0.00    -0.271 OA
BRANCH  15  18
HETATM   18  C   UNL     1     -45.777  61.050 -53.788  1.00  0.00     0.046 A 
HETATM   19  C   UNL     1     -46.235  61.732 -54.936  1.00  0.00    -0.034 A 
HETATM   20  C   UNL     1     -47.407  62.512 -54.853  1.00  0.00     0.015 A 
HETATM   21  C   UNL     1     -45.591  61.661 -56.294  1.00  0.00     0.050 C 
HETATM   22  C   UNL     1     -48.161  62.588 -53.683  1.00  0.00    -0.061 A 
HETATM   23  C   UNL     1     -49.428  63.388 -53.640  1.00  0.00     0.048 C 
HETATM   24  C   UNL     1     -47.753  61.843 -52.579  1.00  0.00     0.015 A 
HETATM   25  C   UNL     1     -46.572  61.078 -52.613  1.00  0.00    -0.034 A 
HETATM   26  C   UNL     1     -46.191  60.329 -51.359  1.00  0.00     0.050 C 
ENDBRANCH  15  18
ENDBRANCH  13  14
ENDBRANCH   1  13
BRANCH   4  27
HETATM   27  C   UNL     1     -43.728  55.033 -54.378  1.00  0.00     0.175 C 
BRANCH  27  28
HETATM   28  C   UNL     1     -42.557  54.278 -53.780  1.00  0.00    -0.037 A 
HETATM   29  C   UNL     1     -42.428  54.159 -52.386  1.00  0.00     0.048 A 
HETATM   30  C   UNL     1     -41.379  53.416 -51.889  1.00  0.00     0.105 A 
HETATM   31  C   UNL     1     -40.471  52.801 -52.716  1.00  0.00     0.105 A 
HETATM   32  O   UNL     1     -41.118  53.190 -50.573  1.00  0.00    -0.323 OA
HETATM   33  O   UNL     1     -39.522  52.112 -52.027  1.00  0.00    -0.323 OA
HETATM   34  C   UNL     1     -40.560  52.895 -54.088  1.00  0.00     0.040 A 
HETATM   35  C   UNL     1     -39.946  52.355 -50.669  1.00  0.00     0.352 A 
HETATM   36  C   UNL     1     -41.616  53.637 -54.622  1.00  0.00     0.012 A 
ENDBRANCH  27  28
ENDBRANCH   4  27
BRANCH  11  37
HETATM   37  C   UNL     1     -41.262  61.343 -58.524  1.00  0.00     0.252 C 
HETATM   38  N   UNL     1     -42.073  61.864 -59.513  1.00  0.00    -0.352 N 
HETATM   39  H   UNL     1     -42.801  61.279 -59.903  1.00  0.00     0.163 HD
HETATM   40  O   UNL     1     -40.206  61.851 -58.167  1.00  0.00    -0.268 OA
BRANCH  38  41
HETATM   41  C   UNL     1     -41.660  63.021 -60.301  1.00  0.00     0.084 C 
HETATM   42  C   UNL     1     -40.926  62.581 -61.576  1.00  0.00     0.025 C 
HETATM   43  C   UNL     1     -41.864  61.928 -62.592  1.00  0.00     0.002 C 
HETATM   44  C   UNL     1     -43.046  62.832 -62.925  1.00  0.00     0.000 C 
HETATM   45  C   UNL     1     -43.798  63.275 -61.674  1.00  0.00     0.002 C 
HETATM   46  C   UNL     1     -42.865  63.907 -60.639  1.00  0.00     0.025 C 
ENDBRANCH  38  41
ENDBRANCH  11  37
TORSDOF 7
ENDMDL
MODEL 10
REMARK VINA RESULT:      -9.0      2.539      8.313
REMARK  7 active torsions:
REMARK  status: ('A' for Active; 'I' for Inactive)
REMARK    1  A    between atoms: C_6  and  N_7 
REMARK       I    between atoms: N_7  and  C_8 
REMARK    2  A    between atoms: C_8  and  C_9 
REMARK    3  A    between atoms: C_9  and  N_10 
REMARK    4  A    between atoms: N_13  and  C_14 
REMARK    5  A    between atoms: C_14  and  C_15 
REMARK    6  A    between atoms: C_30  and  C_31 
REMARK       I    between atoms: C_31  and  N_32 
REMARK    7  A    between atoms: N_32  and  C_33 
ROOT
HETATM    1  N   UNL     1     -43.741  59.049 -53.198  1.00  0.00    -0.290 N 
HETATM    2  C   UNL     1     -43.308  59.662 -52.030  1.00  0.00     0.332 C 
HETATM    3  O   UNL     1     -43.041  58.984 -51.033  1.00  0.00    -0.246 OA
HETATM    4  N   UNL     1     -43.160  61.038 -52.057  1.00  0.00    -0.261 N 
HETATM    5  C   UNL     1     -43.232  61.815 -53.203  1.00  0.00     0.264 C 
HETATM    6  O   UNL     1     -43.030  63.026 -53.229  1.00  0.00    -0.267 OA
HETATM    7  C   UNL     1     -43.555  61.118 -54.459  1.00  0.00     0.059 A 
HETATM    8  C   UNL     1     -43.814  59.747 -54.433  1.00  0.00     0.056 A 
HETATM    9  C   UNL     1     -43.609  61.845 -55.657  1.00  0.00     0.020 A 
HETATM   10  C   UNL     1     -43.903  61.197 -56.853  1.00  0.00     0.018 A 
HETATM   11  C   UNL     1     -44.137  59.820 -56.856  1.00  0.00     0.034 A 
HETATM   12  C   UNL     1     -44.113  59.105 -55.648  1.00  0.00     0.048 A 
ENDROOT
BRANCH   1  13
HETATM   13  C   UNL     1     -44.052  57.617 -53.133  1.00  0.00     0.237 C 
BRANCH  13  14
HETATM   14  C   UNL     1     -42.811  56.743 -53.332  1.00  0.00     0.240 C 
HETATM   15  N   UNL     1     -43.027  55.413 -53.015  1.00  0.00    -0.325 N 
HETATM   16  H   UNL     1     -44.010  55.155 -52.985  1.00  0.00     0.169 HD
HETATM   17  O   UNL     1     -41.798  57.225 -53.832  1.00  0.00    -0.271 OA
BRANCH  15  18
HETATM   18  C   UNL     1     -42.104  54.340 -53.080  1.00  0.00     0.046 A 
HETATM   19  C   UNL     1     -41.294  53.920 -52.003  1.00  0.00    -0.034 A 
HETATM   20  C   UNL     1     -40.369  52.875 -52.201  1.00  0.00     0.015 A 
HETATM   21  C   UNL     1     -41.364  54.474 -50.605  1.00  0.00     0.050 C 
HETATM   22  C   UNL     1     -40.267  52.203 -53.420  1.00  0.00    -0.061 A 
HETATM   23  C   UNL     1     -39.306  51.064 -53.586  1.00  0.00     0.048 C 
HETATM   24  C   UNL     1     -41.130  52.563 -54.452  1.00  0.00     0.015 A 
HETATM   25  C   UNL     1     -42.044  53.621 -54.301  1.00  0.00    -0.034 A 
HETATM   26  C   UNL     1     -42.917  53.962 -55.485  1.00  0.00     0.050 C 
ENDBRANCH  15  18
ENDBRANCH  13  14
ENDBRANCH   1  13
BRANCH   4  27
HETATM   27  C   UNL     1     -42.893  61.720 -50.797  1.00  0.00     0.175 C 
BRANCH  27  28
HETATM   28  C   UNL     1     -44.159  61.856 -49.973  1.00  0.00    -0.037 A 
HETATM   29  C   UNL     1     -44.242  61.267 -48.699  1.00  0.00     0.048 A 
HETATM   30  C   UNL     1     -45.390  61.465 -47.963  1.00  0.00     0.105 A 
HETATM   31  C   UNL     1     -46.439  62.213 -48.442  1.00  0.00     0.105 A 
HETATM   32  O   UNL     1     -45.627  60.980 -46.714  1.00  0.00    -0.323 OA
HETATM   33  O   UNL     1     -47.468  62.291 -47.557  1.00  0.00    -0.323 OA
HETATM   34  C   UNL     1     -46.398  62.805 -49.686  1.00  0.00     0.040 A 
HETATM   35  C   UNL     1     -46.941  61.516 -46.460  1.00  0.00     0.352 A 
HETATM   36  C   UNL     1     -45.244  62.626 -50.454  1.00  0.00     0.012 A 
ENDBRANCH  27  28
ENDBRANCH   4  27
BRANCH  11  37
HETATM   37  C   UNL     1     -44.412  59.152 -58.158  1.00  0.00     0.252 C 
HETATM   38  N   UNL     1     -44.986  59.938 -59.137  1.00  0.00    -0.352 N 
HETATM   39  H   UNL     1     -45.358  60.843 -58.878  1.00  0.00     0.163 HD
HETATM   40  O   UNL     1     -44.169  57.959 -58.294  1.00  0.00    -0.268 OA
BRANCH  38  41
HETATM   41  C   UNL     1     -45.464  59.362 -60.390  1.00  0.00     0.084 C 
HETATM   42  C   UNL     1     -46.865  58.758 -60.217  1.00  0.00     0.025 C 
HETATM   43  C   UNL     1     -47.940  59.828 -60.027  1.00  0.00     0.002 C 
HETATM   44  C   UNL     1     -47.921  60.850 -61.160  1.00  0.00     0.000 C 
HETATM   45  C   UNL     1     -46.540  61.471 -61.345  1.00  0.00     0.002 C 
HETATM   46  C   UNL     1     -45.451  60.409 -61.510  1.00  0.00     0.025 C 
ENDBRANCH  38  41
ENDBRANCH  11  37
TORSDOF 7
ENDMDL
