MODEL 1
REMARK VINA RESULT:      -7.4      0.000      0.000
REMARK  8 active torsions:
REMARK  status: ('A' for Active; 'I' for Inactive)
REMARK    1  A    between atoms: C_2  and  O_3 
REMARK    2  A    between atoms: C_2  and  C_4 
REMARK    3  A    between atoms: C_2  and  C_29 
REMARK    4  A    between atoms: N_11  and  C_13 
REMARK    5  A    between atoms: C_13  and  C_14 
REMARK    6  A    between atoms: C_16  and  S_17 
REMARK    7  A    between atoms: S_17  and  C_18 
REMARK    8  A    between atoms: C_29  and  N_30 
ROOT
HETATM    1  C   UNL     1     -41.465  57.744 -51.774  1.00  0.00    -0.022 A 
HETATM    2  C   UNL     1     -41.203  57.217 -53.059  1.00  0.00     0.022 A 
HETATM    3  C   UNL     1     -40.884  55.864 -53.277  1.00  0.00     0.002 A 
HETATM    4  C   UNL     1     -40.855  55.009 -52.180  1.00  0.00     0.076 A 
HETATM    5  O   UNL     1     -40.533  53.689 -52.309  1.00  0.00    -0.349 OA
HETATM    6  C   UNL     1     -41.538  52.966 -53.029  1.00  0.00     0.203 C 
HETATM    7  C   UNL     1     -41.238  52.948 -54.530  1.00  0.00     0.262 C 
HETATM    8  N   UNL     1     -41.453  54.292 -55.201  1.00  0.00    -0.059 N 
HETATM    9  H   UNL     1     -41.139  54.167 -56.170  1.00  0.00     0.280 HD
HETATM   10  C   UNL     1     -40.540  55.372 -54.655  1.00  0.00     0.276 C 
HETATM   11  C   UNL     1     -41.094  55.492 -50.899  1.00  0.00     0.038 A 
HETATM   12  C   UNL     1     -41.409  56.841 -50.699  1.00  0.00     0.013 A 
ENDROOT
BRANCH   8  13
HETATM   13  C   UNL     1     -42.909  54.696 -55.309  1.00  0.00     0.299 C 
BRANCH  13  14
HETATM   14  C   UNL     1     -43.118  55.933 -56.103  1.00  0.00     0.080 A 
HETATM   15  O   UNL     1     -42.768  55.879 -57.420  1.00  0.00    -0.306 OA
HETATM   16  C   UNL     1     -43.081  57.088 -57.985  1.00  0.00     0.120 A 
HETATM   17  C   UNL     1     -43.584  57.924 -57.009  1.00  0.00     0.047 A 
HETATM   18  C   UNL     1     -43.616  57.183 -55.801  1.00  0.00     0.038 A 
BRANCH  16  19
HETATM   19  S   UNL     1     -42.835  57.435 -59.675  1.00  0.00    -0.025 SA
BRANCH  19  20
HETATM   20  C   UNL     1     -44.176  56.537 -60.297  1.00  0.00     0.197 A 
HETATM   21  N   UNL     1     -45.459  57.007 -60.319  1.00  0.00    -0.322 N 
HETATM   22  C   UNL     1     -45.968  58.260 -59.826  1.00  0.00     0.159 C 
HETATM   23  C   UNL     1     -46.198  56.020 -60.905  1.00  0.00     0.235 A 
HETATM   24  N   UNL     1     -45.414  55.020 -61.242  1.00  0.00    -0.143 NA
HETATM   25  N   UNL     1     -44.139  55.345 -60.850  1.00  0.00    -0.123 NA
ENDBRANCH  19  20
ENDBRANCH  16  19
ENDBRANCH  13  14
ENDBRANCH   8  13
BRANCH   1  26
HETATM   26  C   UNL     1     -41.834  59.231 -51.601  1.00  0.00     0.105 C 
HETATM   27  C   UNL     1     -41.405  59.766 -50.221  1.00  0.00     0.053 C 
BRANCH  26  28
HETATM   28  O   UNL     1     -41.096  59.960 -52.594  1.00  0.00    -0.384 OA
HETATM   29  H   UNL     1     -41.573  60.788 -52.792  1.00  0.00     0.211 HD
ENDBRANCH  26  28
BRANCH  26  30
HETATM   30  C   UNL     1     -43.363  59.528 -51.828  1.00  0.00     0.276 C 
BRANCH  30  31
HETATM   31  N   UNL     1     -44.305  59.083 -50.701  1.00  0.00    -0.076 N 
HETATM   32  H   UNL     1     -43.741  58.767 -49.903  1.00  0.00     0.279 HD
HETATM   33  C   UNL     1     -45.197  60.188 -50.191  1.00  0.00     0.269 C 
HETATM   34  C   UNL     1     -45.122  57.889 -51.124  1.00  0.00     0.269 C 
ENDBRANCH  30  31
ENDBRANCH  26  30
ENDBRANCH   1  26
TORSDOF 8
ENDMDL
MODEL 2
REMARK VINA RESULT:      -7.3      2.778      6.208
REMARK  8 active torsions:
REMARK  status: ('A' for Active; 'I' for Inactive)
REMARK    1  A    between atoms: C_2  and  O_3 
REMARK    2  A    between atoms: C_2  and  C_4 
REMARK    3  A    between atoms: C_2  and  C_29 
REMARK    4  A    between atoms: N_11  and  C_13 
REMARK    5  A    between atoms: C_13  and  C_14 
REMARK    6  A    between atoms: C_16  and  S_17 
REMARK    7  A    between atoms: S_17  and  C_18 
REMARK    8  A    between atoms: C_29  and  N_30 
ROOT
HETATM    1  C   UNL     1     -42.088  55.113 -55.250  1.00  0.00    -0.022 A 
HETATM    2  C   UNL     1     -42.616  54.998 -53.944  1.00  0.00     0.022 A 
HETATM    3  C   UNL     1     -42.093  54.111 -52.987  1.00  0.00     0.002 A 
HETATM    4  C   UNL     1     -40.991  53.337 -53.337  1.00  0.00     0.076 A 
HETATM    5  O   UNL     1     -40.442  52.438 -52.469  1.00  0.00    -0.349 OA
HETATM    6  C   UNL     1     -39.814  53.089 -51.358  1.00  0.00     0.203 C 
HETATM    7  C   UNL     1     -40.792  53.265 -50.195  1.00  0.00     0.262 C 
HETATM    8  N   UNL     1     -41.853  54.318 -50.457  1.00  0.00    -0.059 N 
HETATM    9  H   UNL     1     -42.486  54.275 -49.650  1.00  0.00     0.280 HD
HETATM   10  C   UNL     1     -42.741  53.973 -51.637  1.00  0.00     0.276 C 
HETATM   11  C   UNL     1     -40.451  53.412 -54.616  1.00  0.00     0.038 A 
HETATM   12  C   UNL     1     -40.984  54.300 -55.558  1.00  0.00     0.013 A 
ENDROOT
BRANCH   8  13
HETATM   13  C   UNL     1     -41.321  55.735 -50.465  1.00  0.00     0.299 C 
BRANCH  13  14
HETATM   14  C   UNL     1     -42.353  56.750 -50.797  1.00  0.00     0.080 A 
HETATM   15  O   UNL     1     -41.910  58.017 -51.032  1.00  0.00    -0.306 OA
HETATM   16  C   UNL     1     -42.995  58.784 -51.367  1.00  0.00     0.120 A 
HETATM   17  C   UNL     1     -44.133  58.008 -51.294  1.00  0.00     0.047 A 
HETATM   18  C   UNL     1     -43.724  56.699 -50.936  1.00  0.00     0.038 A 
BRANCH  16  19
HETATM   19  S   UNL     1     -42.868  60.471 -51.789  1.00  0.00    -0.025 SA
BRANCH  19  20
HETATM   20  C   UNL     1     -42.554  60.266 -53.478  1.00  0.00     0.197 A 
HETATM   21  N   UNL     1     -43.476  60.508 -54.456  1.00  0.00    -0.322 N 
HETATM   22  C   UNL     1     -44.848  60.924 -54.319  1.00  0.00     0.159 C 
HETATM   23  C   UNL     1     -42.833  60.257 -55.634  1.00  0.00     0.235 A 
HETATM   24  N   UNL     1     -41.589  59.907 -55.392  1.00  0.00    -0.143 NA
HETATM   25  N   UNL     1     -41.416  59.905 -54.031  1.00  0.00    -0.123 NA
ENDBRANCH  19  20
ENDBRANCH  16  19
ENDBRANCH  13  14
ENDBRANCH   8  13
BRANCH   1  26
HETATM   26  C   UNL     1     -42.688  56.124 -56.248  1.00  0.00     0.105 C 
HETATM   27  C   UNL     1     -43.889  56.875 -55.642  1.00  0.00     0.053 C 
BRANCH  26  28
HETATM   28  O   UNL     1     -41.667  57.094 -56.522  1.00  0.00    -0.384 OA
HETATM   29  H   UNL     1     -41.753  57.826 -55.883  1.00  0.00     0.211 HD
ENDBRANCH  26  28
BRANCH  26  30
HETATM   30  C   UNL     1     -43.111  55.475 -57.618  1.00  0.00     0.276 C 
BRANCH  30  31
HETATM   31  N   UNL     1     -43.321  56.452 -58.784  1.00  0.00    -0.076 N 
HETATM   32  H   UNL     1     -43.214  57.411 -58.436  1.00  0.00     0.279 HD
HETATM   33  C   UNL     1     -42.319  56.281 -59.899  1.00  0.00     0.269 C 
HETATM   34  C   UNL     1     -44.729  56.362 -59.313  1.00  0.00     0.269 C 
ENDBRANCH  30  31
ENDBRANCH  26  30
ENDBRANCH   1  26
TORSDOF 8
ENDMDL
MODEL 3
REMARK VINA RESULT:      -7.3      1.801      4.416
REMARK  8 active torsions:
REMARK  status: ('A' for Active; 'I' for Inactive)
REMARK    1  A    between atoms: C_2  and  O_3 
REMARK    2  A    between atoms: C_2  and  C_4 
REMARK    3  A    between atoms: C_2  and  C_29 
REMARK    4  A    between atoms: N_11  and  C_13 
REMARK    5  A    between atoms: C_13  and  C_14 
REMARK    6  A    between atoms: C_16  and  S_17 
REMARK    7  A    between atoms: S_17  and  C_18 
REMARK    8  A    between atoms: C_29  and  N_30 
ROOT
HETATM    1  C   UNL     1     -41.407  55.959 -50.547  1.00  0.00    -0.022 A 
HETATM    2  C   UNL     1     -42.316  56.187 -51.604  1.00  0.00     0.022 A 
HETATM    3  C   UNL     1     -42.690  57.477 -52.024  1.00  0.00     0.002 A 
HETATM    4  C   UNL     1     -42.115  58.570 -51.383  1.00  0.00     0.076 A 
HETATM    5  O   UNL     1     -42.443  59.852 -51.719  1.00  0.00    -0.349 OA
HETATM    6  C   UNL     1     -41.979  60.191 -53.032  1.00  0.00     0.203 C 
HETATM    7  C   UNL     1     -43.041  59.886 -54.090  1.00  0.00     0.262 C 
HETATM    8  N   UNL     1     -43.235  58.401 -54.336  1.00  0.00    -0.059 N 
HETATM    9  H   UNL     1     -44.022  58.333 -54.992  1.00  0.00     0.280 HD
HETATM   10  C   UNL     1     -43.719  57.662 -53.104  1.00  0.00     0.276 C 
HETATM   11  C   UNL     1     -41.226  58.387 -50.330  1.00  0.00     0.038 A 
HETATM   12  C   UNL     1     -40.865  57.097 -49.925  1.00  0.00     0.013 A 
ENDROOT
BRANCH   8  13
HETATM   13  C   UNL     1     -42.072  57.742 -55.047  1.00  0.00     0.299 C 
BRANCH  13  14
HETATM   14  C   UNL     1     -42.474  57.002 -56.270  1.00  0.00     0.080 A 
HETATM   15  O   UNL     1     -42.447  57.699 -57.441  1.00  0.00    -0.306 OA
HETATM   16  C   UNL     1     -42.798  56.838 -58.448  1.00  0.00     0.120 A 
HETATM   17  C   UNL     1     -43.096  55.606 -57.902  1.00  0.00     0.047 A 
HETATM   18  C   UNL     1     -42.882  55.706 -56.505  1.00  0.00     0.038 A 
BRANCH  16  19
HETATM   19  S   UNL     1     -42.849  57.312 -60.125  1.00  0.00    -0.025 SA
BRANCH  19  20
HETATM   20  C   UNL     1     -44.356  56.568 -60.532  1.00  0.00     0.197 A 
HETATM   21  N   UNL     1     -45.575  57.116 -60.249  1.00  0.00    -0.322 N 
HETATM   22  C   UNL     1     -45.872  58.342 -59.554  1.00  0.00     0.159 C 
HETATM   23  C   UNL     1     -46.494  56.243 -60.755  1.00  0.00     0.235 A 
HETATM   24  N   UNL     1     -45.877  55.236 -61.332  1.00  0.00    -0.143 NA
HETATM   25  N   UNL     1     -44.527  55.438 -61.184  1.00  0.00    -0.123 NA
ENDBRANCH  19  20
ENDBRANCH  16  19
ENDBRANCH  13  14
ENDBRANCH   8  13
BRANCH   1  26
HETATM   26  C   UNL     1     -41.016  54.521 -50.150  1.00  0.00     0.105 C 
HETATM   27  C   UNL     1     -39.535  54.430 -49.736  1.00  0.00     0.053 C 
BRANCH  26  28
HETATM   28  O   UNL     1     -41.807  54.179 -49.001  1.00  0.00    -0.384 OA
HETATM   29  H   UNL     1     -42.485  53.532 -49.272  1.00  0.00     0.211 HD
ENDBRANCH  26  28
BRANCH  26  30
HETATM   30  C   UNL     1     -41.316  53.458 -51.271  1.00  0.00     0.276 C 
BRANCH  30  31
HETATM   31  N   UNL     1     -40.154  53.149 -52.226  1.00  0.00    -0.076 N 
HETATM   32  H   UNL     1     -39.355  53.744 -51.980  1.00  0.00     0.279 HD
HETATM   33  C   UNL     1     -39.674  51.721 -52.147  1.00  0.00     0.269 C 
HETATM   34  C   UNL     1     -40.514  53.513 -53.644  1.00  0.00     0.269 C 
ENDBRANCH  30  31
ENDBRANCH  26  30
ENDBRANCH   1  26
TORSDOF 8
ENDMDL
MODEL 4
REMARK VINA RESULT:      -7.1      2.270      2.859
REMARK  8 active torsions:
REMARK  status: ('A' for Active; 'I' for Inactive)
REMARK    1  A    between atoms: C_2  and  O_3 
REMARK    2  A    between atoms: C_2  and  C_4 
REMARK    3  A    between atoms: C_2  and  C_29 
REMARK    4  A    between atoms: N_11  and  C_13 
REMARK    5  A    between atoms: C_13  and  C_14 
REMARK    6  A    between atoms: C_16  and  S_17 
REMARK    7  A    between atoms: S_17  and  C_18 
REMARK    8  A    between atoms: C_29  and  N_30 
ROOT
HETATM    1  C   UNL     1     -41.558  57.838 -51.917  1.00  0.00    -0.022 A 
HETATM    2  C   UNL     1     -41.262  57.249 -53.166  1.00  0.00     0.022 A 
HETATM    3  C   UNL     1     -40.918  55.893 -53.306  1.00  0.00     0.002 A 
HETATM    4  C   UNL     1     -40.896  55.097 -52.165  1.00  0.00     0.076 A 
HETATM    5  O   UNL     1     -40.551  53.777 -52.218  1.00  0.00    -0.349 OA
HETATM    6  C   UNL     1     -41.529  53.000 -52.919  1.00  0.00     0.203 C 
HETATM    7  C   UNL     1     -41.199  52.908 -54.410  1.00  0.00     0.262 C 
HETATM    8  N   UNL     1     -41.422  54.212 -55.155  1.00  0.00    -0.059 N 
HETATM    9  H   UNL     1     -41.086  54.042 -56.110  1.00  0.00     0.280 HD
HETATM   10  C   UNL     1     -40.538  55.334 -54.650  1.00  0.00     0.276 C 
HETATM   11  C   UNL     1     -41.169  55.643 -50.916  1.00  0.00     0.038 A 
HETATM   12  C   UNL     1     -41.510  56.995 -50.794  1.00  0.00     0.013 A 
ENDROOT
BRANCH   8  13
HETATM   13  C   UNL     1     -42.881  54.585 -55.313  1.00  0.00     0.299 C 
BRANCH  13  14
HETATM   14  C   UNL     1     -43.107  55.671 -56.300  1.00  0.00     0.080 A 
HETATM   15  O   UNL     1     -43.560  56.858 -55.807  1.00  0.00    -0.306 OA
HETATM   16  C   UNL     1     -43.656  57.736 -56.855  1.00  0.00     0.120 A 
HETATM   17  C   UNL     1     -43.310  57.084 -58.020  1.00  0.00     0.047 A 
HETATM   18  C   UNL     1     -42.949  55.760 -57.667  1.00  0.00     0.038 A 
BRANCH  16  19
HETATM   19  S   UNL     1     -44.160  59.393 -56.658  1.00  0.00    -0.025 SA
BRANCH  19  20
HETATM   20  C   UNL     1     -42.798  60.144 -57.415  1.00  0.00     0.197 A 
HETATM   21  N   UNL     1     -42.810  60.628 -58.692  1.00  0.00    -0.322 N 
HETATM   22  C   UNL     1     -43.877  60.594 -59.658  1.00  0.00     0.159 C 
HETATM   23  C   UNL     1     -41.569  61.158 -58.893  1.00  0.00     0.235 A 
HETATM   24  N   UNL     1     -40.850  61.027 -57.800  1.00  0.00    -0.143 NA
HETATM   25  N   UNL     1     -41.624  60.380 -56.870  1.00  0.00    -0.123 NA
ENDBRANCH  19  20
ENDBRANCH  16  19
ENDBRANCH  13  14
ENDBRANCH   8  13
BRANCH   1  26
HETATM   26  C   UNL     1     -41.955  59.326 -51.830  1.00  0.00     0.105 C 
HETATM   27  C   UNL     1     -41.451  59.973 -50.525  1.00  0.00     0.053 C 
BRANCH  26  28
HETATM   28  O   UNL     1     -41.303  59.993 -52.921  1.00  0.00    -0.384 OA
HETATM   29  H   UNL     1     -41.780  60.824 -53.108  1.00  0.00     0.211 HD
ENDBRANCH  26  28
BRANCH  26  30
HETATM   30  C   UNL     1     -43.502  59.572 -51.974  1.00  0.00     0.276 C 
BRANCH  30  31
HETATM   31  N   UNL     1     -44.359  59.171 -50.765  1.00  0.00    -0.076 N 
HETATM   32  H   UNL     1     -43.738  58.918 -49.988  1.00  0.00     0.279 HD
HETATM   33  C   UNL     1     -45.251  60.280 -50.266  1.00  0.00     0.269 C 
HETATM   34  C   UNL     1     -45.165  57.933 -51.065  1.00  0.00     0.269 C 
ENDBRANCH  30  31
ENDBRANCH  26  30
ENDBRANCH   1  26
TORSDOF 8
ENDMDL
MODEL 5
REMARK VINA RESULT:      -7.0      2.862      7.666
REMARK  8 active torsions:
REMARK  status: ('A' for Active; 'I' for Inactive)
REMARK    1  A    between atoms: C_2  and  O_3 
REMARK    2  A    between atoms: C_2  and  C_4 
REMARK    3  A    between atoms: C_2  and  C_29 
REMARK    4  A    between atoms: N_11  and  C_13 
REMARK    5  A    between atoms: C_13  and  C_14 
REMARK    6  A    between atoms: C_16  and  S_17 
REMARK    7  A    between atoms: S_17  and  C_18 
REMARK    8  A    between atoms: C_29  and  N_30 
ROOT
HETATM    1  C   UNL     1     -43.112  58.548 -56.776  1.00  0.00    -0.022 A 
HETATM    2  C   UNL     1     -42.331  58.026 -55.720  1.00  0.00     0.022 A 
HETATM    3  C   UNL     1     -41.946  58.794 -54.607  1.00  0.00     0.002 A 
HETATM    4  C   UNL     1     -42.379  60.114 -54.535  1.00  0.00     0.076 A 
HETATM    5  O   UNL     1     -42.028  60.928 -53.496  1.00  0.00    -0.349 OA
HETATM    6  C   UNL     1     -42.634  60.510 -52.267  1.00  0.00     0.203 C 
HETATM    7  C   UNL     1     -41.729  59.537 -51.507  1.00  0.00     0.262 C 
HETATM    8  N   UNL     1     -41.646  58.166 -52.154  1.00  0.00    -0.059 N 
HETATM    9  H   UNL     1     -40.951  57.646 -51.605  1.00  0.00     0.280 HD
HETATM   10  C   UNL     1     -41.051  58.211 -53.548  1.00  0.00     0.276 C 
HETATM   11  C   UNL     1     -43.138  60.667 -55.560  1.00  0.00     0.038 A 
HETATM   12  C   UNL     1     -43.512  59.889 -56.662  1.00  0.00     0.013 A 
ENDROOT
BRANCH   8  13
HETATM   13  C   UNL     1     -42.921  57.357 -52.041  1.00  0.00     0.299 C 
BRANCH  13  14
HETATM   14  C   UNL     1     -42.697  55.972 -51.557  1.00  0.00     0.080 A 
HETATM   15  O   UNL     1     -41.408  55.530 -51.546  1.00  0.00    -0.306 OA
HETATM   16  C   UNL     1     -41.405  54.263 -51.024  1.00  0.00     0.120 A 
HETATM   17  C   UNL     1     -42.704  53.886 -50.752  1.00  0.00     0.047 A 
HETATM   18  C   UNL     1     -43.535  54.984 -51.086  1.00  0.00     0.038 A 
BRANCH  16  19
HETATM   19  S   UNL     1     -39.945  53.339 -50.791  1.00  0.00    -0.025 SA
BRANCH  19  20
HETATM   20  C   UNL     1     -39.982  52.463 -52.282  1.00  0.00     0.197 A 
HETATM   21  N   UNL     1     -39.732  51.123 -52.382  1.00  0.00    -0.322 N 
HETATM   22  C   UNL     1     -39.364  50.195 -51.344  1.00  0.00     0.159 C 
HETATM   23  C   UNL     1     -39.889  50.821 -53.704  1.00  0.00     0.235 A 
HETATM   24  N   UNL     1     -40.235  51.902 -54.367  1.00  0.00    -0.143 NA
HETATM   25  N   UNL     1     -40.286  52.939 -53.469  1.00  0.00    -0.123 NA
ENDBRANCH  19  20
ENDBRANCH  16  19
ENDBRANCH  13  14
ENDBRANCH   8  13
BRANCH   1  26
HETATM   26  C   UNL     1     -43.525  57.648 -57.959  1.00  0.00     0.105 C 
HETATM   27  C   UNL     1     -42.376  57.482 -58.973  1.00  0.00     0.053 C 
BRANCH  26  28
HETATM   28  O   UNL     1     -43.810  56.351 -57.414  1.00  0.00    -0.384 OA
HETATM   29  H   UNL     1     -43.711  55.687 -58.122  1.00  0.00     0.211 HD
ENDBRANCH  26  28
BRANCH  26  30
HETATM   30  C   UNL     1     -44.816  58.148 -58.706  1.00  0.00     0.276 C 
BRANCH  30  31
HETATM   31  N   UNL     1     -46.111  57.387 -58.387  1.00  0.00    -0.076 N 
HETATM   32  H   UNL     1     -45.875  56.543 -57.851  1.00  0.00     0.279 HD
HETATM   33  C   UNL     1     -47.082  58.178 -57.546  1.00  0.00     0.269 C 
HETATM   34  C   UNL     1     -46.772  56.899 -59.650  1.00  0.00     0.269 C 
ENDBRANCH  30  31
ENDBRANCH  26  30
ENDBRANCH   1  26
TORSDOF 8
ENDMDL
MODEL 6
REMARK VINA RESULT:      -7.0      3.333      5.989
REMARK  8 active torsions:
REMARK  status: ('A' for Active; 'I' for Inactive)
REMARK    1  A    between atoms: C_2  and  O_3 
REMARK    2  A    between atoms: C_2  and  C_4 
REMARK    3  A    between atoms: C_2  and  C_29 
REMARK    4  A    between atoms: N_11  and  C_13 
REMARK    5  A    between atoms: C_13  and  C_14 
REMARK    6  A    between atoms: C_16  and  S_17 
REMARK    7  A    between atoms: S_17  and  C_18 
REMARK    8  A    between atoms: C_29  and  N_30 
ROOT
HETATM    1  C   UNL     1     -42.684  55.489 -54.989  1.00  0.00    -0.022 A 
HETATM    2  C   UNL     1     -43.043  55.957 -53.705  1.00  0.00     0.022 A 
HETATM    3  C   UNL     1     -42.685  55.285 -52.522  1.00  0.00     0.002 A 
HETATM    4  C   UNL     1     -41.922  54.126 -52.628  1.00  0.00     0.076 A 
HETATM    5  O   UNL     1     -41.554  53.407 -51.527  1.00  0.00    -0.349 OA
HETATM    6  C   UNL     1     -40.617  54.124 -50.715  1.00  0.00     0.203 C 
HETATM    7  C   UNL     1     -41.332  54.955 -49.648  1.00  0.00     0.262 C 
HETATM    8  N   UNL     1     -42.055  56.163 -50.213  1.00  0.00    -0.059 N 
HETATM    9  H   UNL     1     -42.557  56.578 -49.420  1.00  0.00     0.280 HD
HETATM   10  C   UNL     1     -43.156  55.785 -51.185  1.00  0.00     0.276 C 
HETATM   11  C   UNL     1     -41.562  53.627 -53.874  1.00  0.00     0.038 A 
HETATM   12  C   UNL     1     -41.926  54.308 -55.042  1.00  0.00     0.013 A 
ENDROOT
BRANCH   8  13
HETATM   13  C   UNL     1     -41.130  57.255 -50.707  1.00  0.00     0.299 C 
BRANCH  13  14
HETATM   14  C   UNL     1     -41.816  58.554 -50.924  1.00  0.00     0.080 A 
HETATM   15  O   UNL     1     -43.166  58.508 -51.105  1.00  0.00    -0.306 OA
HETATM   16  C   UNL     1     -43.614  59.796 -51.236  1.00  0.00     0.120 A 
HETATM   17  C   UNL     1     -42.535  60.655 -51.188  1.00  0.00     0.047 A 
HETATM   18  C   UNL     1     -41.380  59.861 -50.980  1.00  0.00     0.038 A 
BRANCH  16  19
HETATM   19  S   UNL     1     -45.298  60.196 -51.444  1.00  0.00    -0.025 SA
BRANCH  19  20
HETATM   20  C   UNL     1     -45.341  60.137 -53.172  1.00  0.00     0.197 A 
HETATM   21  N   UNL     1     -45.496  61.238 -53.967  1.00  0.00    -0.322 N 
HETATM   22  C   UNL     1     -45.687  62.610 -53.576  1.00  0.00     0.159 C 
HETATM   23  C   UNL     1     -45.448  60.772 -55.249  1.00  0.00     0.235 A 
HETATM   24  N   UNL     1     -45.252  59.472 -55.240  1.00  0.00    -0.143 NA
HETATM   25  N   UNL     1     -45.193  59.071 -53.929  1.00  0.00    -0.123 NA
ENDBRANCH  19  20
ENDBRANCH  16  19
ENDBRANCH  13  14
ENDBRANCH   8  13
BRANCH   1  26
HETATM   26  C   UNL     1     -43.085  56.284 -56.249  1.00  0.00     0.105 C 
HETATM   27  C   UNL     1     -43.232  55.365 -57.477  1.00  0.00     0.053 C 
BRANCH  26  28
HETATM   28  O   UNL     1     -44.373  56.860 -55.984  1.00  0.00    -0.384 OA
HETATM   29  H   UNL     1     -44.409  57.125 -55.046  1.00  0.00     0.211 HD
ENDBRANCH  26  28
BRANCH  26  30
HETATM   30  C   UNL     1     -42.096  57.460 -56.588  1.00  0.00     0.276 C 
BRANCH  30  31
HETATM   31  N   UNL     1     -42.450  58.827 -55.984  1.00  0.00    -0.076 N 
HETATM   32  H   UNL     1     -43.455  58.848 -55.778  1.00  0.00     0.279 HD
HETATM   33  C   UNL     1     -41.735  59.115 -54.687  1.00  0.00     0.269 C 
HETATM   34  C   UNL     1     -42.212  59.932 -56.981  1.00  0.00     0.269 C 
ENDBRANCH  30  31
ENDBRANCH  26  30
ENDBRANCH   1  26
TORSDOF 8
ENDMDL
MODEL 7
REMARK VINA RESULT:      -6.9      3.234      7.601
REMARK  8 active torsions:
REMARK  status: ('A' for Active; 'I' for Inactive)
REMARK    1  A    between atoms: C_2  and  O_3 
REMARK    2  A    between atoms: C_2  and  C_4 
REMARK    3  A    between atoms: C_2  and  C_29 
REMARK    4  A    between atoms: N_11  and  C_13 
REMARK    5  A    between atoms: C_13  and  C_14 
REMARK    6  A    between atoms: C_16  and  S_17 
REMARK    7  A    between atoms: S_17  and  C_18 
REMARK    8  A    between atoms: C_29  and  N_30 
ROOT
HETATM    1  C   UNL     1     -42.823  55.558 -55.285  1.00  0.00    -0.022 A 
HETATM    2  C   UNL     1     -43.130  56.013 -53.983  1.00  0.00     0.022 A 
HETATM    3  C   UNL     1     -42.790  55.290 -52.825  1.00  0.00     0.002 A 
HETATM    4  C   UNL     1     -42.100  54.092 -52.974  1.00  0.00     0.076 A 
HETATM    5  O   UNL     1     -41.755  53.324 -51.899  1.00  0.00    -0.349 OA
HETATM    6  C   UNL     1     -40.763  53.964 -51.088  1.00  0.00     0.203 C 
HETATM    7  C   UNL     1     -41.408  54.808 -49.986  1.00  0.00     0.262 C 
HETATM    8  N   UNL     1     -42.069  56.070 -50.508  1.00  0.00    -0.059 N 
HETATM    9  H   UNL     1     -42.531  56.493 -49.694  1.00  0.00     0.280 HD
HETATM   10  C   UNL     1     -43.207  55.782 -51.467  1.00  0.00     0.276 C 
HETATM   11  C   UNL     1     -41.792  53.605 -54.239  1.00  0.00     0.038 A 
HETATM   12  C   UNL     1     -42.136  54.336 -55.382  1.00  0.00     0.013 A 
ENDROOT
BRANCH   8  13
HETATM   13  C   UNL     1     -41.090  57.119 -50.992  1.00  0.00     0.299 C 
BRANCH  13  14
HETATM   14  C   UNL     1     -41.576  58.509 -50.804  1.00  0.00     0.080 A 
HETATM   15  O   UNL     1     -42.814  58.794 -51.299  1.00  0.00    -0.306 OA
HETATM   16  C   UNL     1     -43.100  60.097 -50.985  1.00  0.00     0.120 A 
HETATM   17  C   UNL     1     -42.016  60.650 -50.333  1.00  0.00     0.047 A 
HETATM   18  C   UNL     1     -41.040  59.631 -50.208  1.00  0.00     0.038 A 
BRANCH  16  19
HETATM   19  S   UNL     1     -44.612  60.861 -51.397  1.00  0.00    -0.025 SA
BRANCH  19  20
HETATM   20  C   UNL     1     -45.237  61.023 -49.792  1.00  0.00     0.197 A 
HETATM   21  N   UNL     1     -45.188  62.182 -49.072  1.00  0.00    -0.322 N 
HETATM   22  C   UNL     1     -44.606  63.447 -49.439  1.00  0.00     0.159 C 
HETATM   23  C   UNL     1     -45.804  61.901 -47.886  1.00  0.00     0.235 A 
HETATM   24  N   UNL     1     -46.224  60.655 -47.891  1.00  0.00    -0.143 NA
HETATM   25  N   UNL     1     -45.859  60.100 -49.091  1.00  0.00    -0.123 NA
ENDBRANCH  19  20
ENDBRANCH  16  19
ENDBRANCH  13  14
ENDBRANCH   8  13
BRANCH   1  26
HETATM   26  C   UNL     1     -43.198  56.408 -56.517  1.00  0.00     0.105 C 
HETATM   27  C   UNL     1     -43.235  55.559 -57.802  1.00  0.00     0.053 C 
BRANCH  26  28
HETATM   28  O   UNL     1     -44.526  56.904 -56.290  1.00  0.00    -0.384 OA
HETATM   29  H   UNL     1     -44.468  57.717 -55.754  1.00  0.00     0.211 HD
ENDBRANCH  26  28
BRANCH  26  30
HETATM   30  C   UNL     1     -42.255  57.649 -56.733  1.00  0.00     0.276 C 
BRANCH  30  31
HETATM   31  N   UNL     1     -42.783  58.991 -56.205  1.00  0.00    -0.076 N 
HETATM   32  H   UNL     1     -43.778  58.888 -55.977  1.00  0.00     0.279 HD
HETATM   33  C   UNL     1     -42.094  59.455 -54.946  1.00  0.00     0.269 C 
HETATM   34  C   UNL     1     -42.715  60.051 -57.274  1.00  0.00     0.269 C 
ENDBRANCH  30  31
ENDBRANCH  26  30
ENDBRANCH   1  26
TORSDOF 8
ENDMDL
MODEL 8
REMARK VINA RESULT:      -6.9      2.585      7.932
REMARK  8 active torsions:
REMARK  status: ('A' for Active; 'I' for Inactive)
REMARK    1  A    between atoms: C_2  and  O_3 
REMARK    2  A    between atoms: C_2  and  C_4 
REMARK    3  A    between atoms: C_2  and  C_29 
REMARK    4  A    between atoms: N_11  and  C_13 
REMARK    5  A    between atoms: C_13  and  C_14 
REMARK    6  A    between atoms: C_16  and  S_17 
REMARK    7  A    between atoms: S_17  and  C_18 
REMARK    8  A    between atoms: C_29  and  N_30 
ROOT
HETATM    1  C   UNL     1     -42.588  55.287 -54.977  1.00  0.00    -0.022 A 
HETATM    2  C   UNL     1     -42.981  55.846 -53.740  1.00  0.00     0.022 A 
HETATM    3  C   UNL     1     -42.696  55.237 -52.504  1.00  0.00     0.002 A 
HETATM    4  C   UNL     1     -41.973  54.049 -52.506  1.00  0.00     0.076 A 
HETATM    5  O   UNL     1     -41.677  53.388 -51.349  1.00  0.00    -0.349 OA
HETATM    6  C   UNL     1     -40.748  54.121 -50.542  1.00  0.00     0.203 C 
HETATM    7  C   UNL     1     -41.475  55.042 -49.559  1.00  0.00     0.262 C 
HETATM    8  N   UNL     1     -42.130  56.236 -50.228  1.00  0.00    -0.059 N 
HETATM    9  H   UNL     1     -42.648  56.716 -49.483  1.00  0.00     0.280 HD
HETATM   10  C   UNL     1     -43.203  55.836 -51.221  1.00  0.00     0.276 C 
HETATM   11  C   UNL     1     -41.580  53.461 -53.703  1.00  0.00     0.038 A 
HETATM   12  C   UNL     1     -41.871  54.080 -54.924  1.00  0.00     0.013 A 
ENDROOT
BRANCH   8  13
HETATM   13  C   UNL     1     -41.146  57.263 -50.747  1.00  0.00     0.299 C 
BRANCH  13  14
HETATM   14  C   UNL     1     -41.658  58.655 -50.680  1.00  0.00     0.080 A 
HETATM   15  O   UNL     1     -42.918  58.865 -51.156  1.00  0.00    -0.306 OA
HETATM   16  C   UNL     1     -43.224  60.186 -50.962  1.00  0.00     0.120 A 
HETATM   17  C   UNL     1     -42.133  60.823 -50.407  1.00  0.00     0.047 A 
HETATM   18  C   UNL     1     -41.129  59.841 -50.217  1.00  0.00     0.038 A 
BRANCH  16  19
HETATM   19  S   UNL     1     -44.766  60.875 -51.393  1.00  0.00    -0.025 SA
BRANCH  19  20
HETATM   20  C   UNL     1     -45.361  61.137 -49.791  1.00  0.00     0.197 A 
HETATM   21  N   UNL     1     -45.403  62.361 -49.187  1.00  0.00    -0.322 N 
HETATM   22  C   UNL     1     -44.953  63.632 -49.694  1.00  0.00     0.159 C 
HETATM   23  C   UNL     1     -45.959  62.144 -47.959  1.00  0.00     0.235 A 
HETATM   24  N   UNL     1     -46.260  60.871 -47.829  1.00  0.00    -0.143 NA
HETATM   25  N   UNL     1     -45.876  60.235 -48.983  1.00  0.00    -0.123 NA
ENDBRANCH  19  20
ENDBRANCH  16  19
ENDBRANCH  13  14
ENDBRANCH   8  13
BRANCH   1  26
HETATM   26  C   UNL     1     -42.907  56.016 -56.298  1.00  0.00     0.105 C 
HETATM   27  C   UNL     1     -44.101  56.977 -56.142  1.00  0.00     0.053 C 
BRANCH  26  28
HETATM   28  O   UNL     1     -41.755  56.809 -56.623  1.00  0.00    -0.384 OA
HETATM   29  H   UNL     1     -41.389  57.179 -55.798  1.00  0.00     0.211 HD
ENDBRANCH  26  28
BRANCH  26  30
HETATM   30  C   UNL     1     -43.171  55.040 -57.504  1.00  0.00     0.276 C 
BRANCH  30  31
HETATM   31  N   UNL     1     -43.801  55.675 -58.752  1.00  0.00    -0.076 N 
HETATM   32  H   UNL     1     -44.498  56.367 -58.455  1.00  0.00     0.279 HD
HETATM   33  C   UNL     1     -42.808  56.404 -59.623  1.00  0.00     0.269 C 
HETATM   34  C   UNL     1     -44.559  54.646 -59.552  1.00  0.00     0.269 C 
ENDBRANCH  30  31
ENDBRANCH  26  30
ENDBRANCH   1  26
TORSDOF 8
ENDMDL
MODEL 9
REMARK VINA RESULT:      -6.8      3.195      7.466
REMARK  8 active torsions:
REMARK  status: ('A' for Active; 'I' for Inactive)
REMARK    1  A    between atoms: C_2  and  O_3 
REMARK    2  A    between atoms: C_2  and  C_4 
REMARK    3  A    between atoms: C_2  and  C_29 
REMARK    4  A    between atoms: N_11  and  C_13 
REMARK    5  A    between atoms: C_13  and  C_14 
REMARK    6  A    between atoms: C_16  and  S_17 
REMARK    7  A    between atoms: S_17  and  C_18 
REMARK    8  A    between atoms: C_29  and  N_30 
ROOT
HETATM    1  C   UNL     1     -42.986  55.934 -56.324  1.00  0.00    -0.022 A 
HETATM    2  C   UNL     1     -42.479  57.234 -56.549  1.00  0.00     0.022 A 
HETATM    3  C   UNL     1     -42.371  57.798 -57.833  1.00  0.00     0.002 A 
HETATM    4  C   UNL     1     -42.807  57.048 -58.921  1.00  0.00     0.076 A 
HETATM    5  O   UNL     1     -42.714  57.518 -60.199  1.00  0.00    -0.349 OA
HETATM    6  C   UNL     1     -43.595  58.625 -60.423  1.00  0.00     0.203 C 
HETATM    7  C   UNL     1     -42.899  59.956 -60.128  1.00  0.00     0.262 C 
HETATM    8  N   UNL     1     -42.664  60.195 -58.648  1.00  0.00    -0.059 N 
HETATM    9  H   UNL     1     -42.121  61.065 -58.595  1.00  0.00     0.280 HD
HETATM   10  C   UNL     1     -41.754  59.156 -58.023  1.00  0.00     0.276 C 
HETATM   11  C   UNL     1     -43.299  55.760 -58.742  1.00  0.00     0.038 A 
HETATM   12  C   UNL     1     -43.401  55.214 -57.457  1.00  0.00     0.013 A 
ENDROOT
BRANCH   8  13
HETATM   13  C   UNL     1     -43.930  60.474 -57.865  1.00  0.00     0.299 C 
BRANCH  13  14
HETATM   14  C   UNL     1     -43.678  61.116 -56.550  1.00  0.00     0.080 A 
HETATM   15  O   UNL     1     -43.823  60.326 -55.449  1.00  0.00    -0.306 OA
HETATM   16  C   UNL     1     -43.502  61.079 -54.350  1.00  0.00     0.120 A 
HETATM   17  C   UNL     1     -43.202  62.363 -54.756  1.00  0.00     0.047 A 
HETATM   18  C   UNL     1     -43.307  62.388 -56.170  1.00  0.00     0.038 A 
BRANCH  16  19
HETATM   19  S   UNL     1     -43.513  60.439 -52.728  1.00  0.00    -0.025 SA
BRANCH  19  20
HETATM   20  C   UNL     1     -41.883  59.861 -52.693  1.00  0.00     0.197 A 
HETATM   21  N   UNL     1     -41.182  59.634 -51.543  1.00  0.00    -0.322 N 
HETATM   22  C   UNL     1     -41.593  59.848 -50.180  1.00  0.00     0.159 C 
HETATM   23  C   UNL     1     -39.965  59.163 -51.945  1.00  0.00     0.235 A 
HETATM   24  N   UNL     1     -39.933  59.084 -53.257  1.00  0.00    -0.143 NA
HETATM   25  N   UNL     1     -41.141  59.532 -53.729  1.00  0.00    -0.123 NA
ENDBRANCH  19  20
ENDBRANCH  16  19
ENDBRANCH  13  14
ENDBRANCH   8  13
BRANCH   1  26
HETATM   26  C   UNL     1     -43.105  55.381 -54.890  1.00  0.00     0.105 C 
HETATM   27  C   UNL     1     -42.580  56.388 -53.848  1.00  0.00     0.053 C 
BRANCH  26  28
HETATM   28  O   UNL     1     -44.505  55.188 -54.635  1.00  0.00    -0.384 OA
HETATM   29  H   UNL     1     -44.752  54.288 -54.918  1.00  0.00     0.211 HD
ENDBRANCH  26  28
BRANCH  26  30
HETATM   30  C   UNL     1     -42.387  53.996 -54.691  1.00  0.00     0.276 C 
BRANCH  30  31
HETATM   31  N   UNL     1     -40.987  54.052 -54.064  1.00  0.00    -0.076 N 
HETATM   32  H   UNL     1     -40.899  54.923 -53.527  1.00  0.00     0.279 HD
HETATM   33  C   UNL     1     -40.712  52.921 -53.104  1.00  0.00     0.269 C 
HETATM   34  C   UNL     1     -39.924  54.118 -55.130  1.00  0.00     0.269 C 
ENDBRANCH  30  31
ENDBRANCH  26  30
ENDBRANCH   1  26
TORSDOF 8
ENDMDL
MODEL 10
REMARK VINA RESULT:      -6.8      1.951      2.415
REMARK  8 active torsions:
REMARK  status: ('A' for Active; 'I' for Inactive)
REMARK    1  A    between atoms: C_2  and  O_3 
REMARK    2  A    between atoms: C_2  and  C_4 
REMARK    3  A    between atoms: C_2  and  C_29 
REMARK    4  A    between atoms: N_11  and  C_13 
REMARK    5  A    between atoms: C_13  and  C_14 
REMARK    6  A    between atoms: C_16  and  S_17 
REMARK    7  A    between atoms: S_17  and  C_18 
REMARK    8  A    between atoms: C_29  and  N_30 
ROOT
HETATM    1  C   UNL     1     -42.942  57.092 -51.627  1.00  0.00    -0.022 A 
HETATM    2  C   UNL     1     -42.281  56.984 -52.871  1.00  0.00     0.022 A 
HETATM    3  C   UNL     1     -41.397  55.933 -53.175  1.00  0.00     0.002 A 
HETATM    4  C   UNL     1     -41.190  54.947 -52.215  1.00  0.00     0.076 A 
HETATM    5  O   UNL     1     -40.330  53.909 -52.428  1.00  0.00    -0.349 OA
HETATM    6  C   UNL     1     -40.812  53.022 -53.444  1.00  0.00     0.203 C 
HETATM    7  C   UNL     1     -40.296  53.430 -54.825  1.00  0.00     0.262 C 
HETATM    8  N   UNL     1     -40.941  54.696 -55.357  1.00  0.00    -0.059 N 
HETATM    9  H   UNL     1     -40.452  54.905 -56.235  1.00  0.00     0.280 HD
HETATM   10  C   UNL     1     -40.662  55.906 -54.486  1.00  0.00     0.276 C 
HETATM   11  C   UNL     1     -41.811  55.026 -50.974  1.00  0.00     0.038 A 
HETATM   12  C   UNL     1     -42.688  56.079 -50.687  1.00  0.00     0.013 A 
ENDROOT
BRANCH   8  13
HETATM   13  C   UNL     1     -42.394  54.525 -55.748  1.00  0.00     0.299 C 
BRANCH  13  14
HETATM   14  C   UNL     1     -42.912  55.636 -56.587  1.00  0.00     0.080 A 
HETATM   15  O   UNL     1     -43.023  55.390 -57.923  1.00  0.00    -0.306 OA
HETATM   16  C   UNL     1     -43.561  56.506 -58.509  1.00  0.00     0.120 A 
HETATM   17  C   UNL     1     -43.742  57.477 -57.546  1.00  0.00     0.047 A 
HETATM   18  C   UNL     1     -43.333  56.919 -56.309  1.00  0.00     0.038 A 
BRANCH  16  19
HETATM   19  S   UNL     1     -43.913  56.603 -60.214  1.00  0.00    -0.025 SA
BRANCH  19  20
HETATM   20  C   UNL     1     -43.238  58.169 -60.503  1.00  0.00     0.197 A 
HETATM   21  N   UNL     1     -43.984  59.308 -60.620  1.00  0.00    -0.322 N 
HETATM   22  C   UNL     1     -45.416  59.456 -60.573  1.00  0.00     0.159 C 
HETATM   23  C   UNL     1     -43.084  60.316 -60.812  1.00  0.00     0.235 A 
HETATM   24  N   UNL     1     -41.863  59.828 -60.790  1.00  0.00    -0.143 NA
HETATM   25  N   UNL     1     -41.962  58.472 -60.603  1.00  0.00    -0.123 NA
ENDBRANCH  19  20
ENDBRANCH  16  19
ENDBRANCH  13  14
ENDBRANCH   8  13
BRANCH   1  26
HETATM   26  C   UNL     1     -43.921  58.254 -51.362  1.00  0.00     0.105 C 
HETATM   27  C   UNL     1     -44.797  58.550 -52.595  1.00  0.00     0.053 C 
BRANCH  26  28
HETATM   28  O   UNL     1     -44.794  57.829 -50.305  1.00  0.00    -0.384 OA
HETATM   29  H   UNL     1     -44.773  58.497 -49.595  1.00  0.00     0.211 HD
ENDBRANCH  26  28
BRANCH  26  30
HETATM   30  C   UNL     1     -43.211  59.577 -50.892  1.00  0.00     0.276 C 
BRANCH  30  31
HETATM   31  N   UNL     1     -44.092  60.834 -50.859  1.00  0.00    -0.076 N 
HETATM   32  H   UNL     1     -44.977  60.630 -51.337  1.00  0.00     0.279 HD
HETATM   33  C   UNL     1     -44.445  61.284 -49.463  1.00  0.00     0.269 C 
HETATM   34  C   UNL     1     -43.455  61.957 -51.637  1.00  0.00     0.269 C 
ENDBRANCH  30  31
ENDBRANCH  26  30
ENDBRANCH   1  26
TORSDOF 8
ENDMDL
