MODEL 1
REMARK VINA RESULT:      -7.2      0.000      0.000
REMARK  5 active torsions:
REMARK  status: ('A' for Active; 'I' for Inactive)
REMARK    1  A    between atoms: C_4  and  C_5 
REMARK    2  A    between atoms: C_5  and  N_6 
REMARK    3  A    between atoms: N_6  and  C_9 
REMARK    4  A    between atoms: C_12  and  O_13 
REMARK    5  A    between atoms: O_13  and  C_14 
ROOT
HETATM    1  C   UNL     1     -40.653  53.796 -53.549  1.00  0.00     0.164 A 
HETATM    2  N   UNL     1     -40.626  53.879 -52.203  1.00  0.00    -0.236 NA
HETATM    3  C   UNL     1     -40.216  52.773 -51.533  1.00  0.00     0.142 A 
HETATM    4  C   UNL     1     -39.841  51.588 -52.151  1.00  0.00     0.062 A 
HETATM    5  C   UNL     1     -39.417  50.467 -51.374  1.00  0.00     0.101 C 
HETATM    6  N   UNL     1     -39.075  49.561 -50.737  1.00  0.00    -0.191 NA
HETATM    7  C   UNL     1     -39.893  51.532 -53.543  1.00  0.00     0.028 A 
HETATM    8  C   UNL     1     -40.312  52.654 -54.257  1.00  0.00     0.059 A 
ENDROOT
BRANCH   1   9
HETATM    9  O   UNL     1     -41.075  54.881 -54.291  1.00  0.00    -0.329 OA
BRANCH   9  10
HETATM   10  C   UNL     1     -42.488  55.118 -54.241  1.00  0.00     0.130 C 
HETATM   11  C   UNL     1     -42.679  56.643 -54.229  1.00  0.00     0.034 C 
HETATM   12  C   UNL     1     -42.220  57.296 -55.536  1.00  0.00     0.035 C 
HETATM   13  C   UNL     1     -42.871  56.679 -56.779  1.00  0.00     0.186 C 
HETATM   14  C   UNL     1     -42.713  55.155 -56.781  1.00  0.00     0.035 C 
HETATM   15  C   UNL     1     -43.172  54.504 -55.471  1.00  0.00     0.034 C 
BRANCH  13  16
HETATM   16  N   UNL     1     -44.340  57.001 -56.830  1.00  0.00    -0.067 N 
HETATM   17  H   UNL     1     -44.684  57.319 -55.915  1.00  0.00     0.278 HD
HETATM   18  H   UNL     1     -44.868  56.138 -57.023  1.00  0.00     0.278 HD
BRANCH  16  19
HETATM   19  C   UNL     1     -44.774  58.007 -57.852  1.00  0.00     0.280 C 
BRANCH  19  20
HETATM   20  C   UNL     1     -45.485  57.348 -58.977  1.00  0.00     0.027 A 
HETATM   21  S   UNL     1     -46.858  58.080 -59.707  1.00  0.00    -0.077 SA
HETATM   22  C   UNL     1     -46.996  56.742 -60.778  1.00  0.00     0.071 A 
HETATM   23  C   UNL     1     -48.076  56.691 -61.803  1.00  0.00     0.078 C 
HETATM   24  N   UNL     1     -46.086  55.807 -60.613  1.00  0.00    -0.258 NA
HETATM   25  C   UNL     1     -45.214  56.153 -59.607  1.00  0.00     0.133 A 
ENDBRANCH  19  20
ENDBRANCH  16  19
ENDBRANCH  13  16
ENDBRANCH   9  10
ENDBRANCH   1   9
TORSDOF 5
ENDMDL
MODEL 2
REMARK VINA RESULT:      -7.1      5.340      7.144
REMARK  5 active torsions:
REMARK  status: ('A' for Active; 'I' for Inactive)
REMARK    1  A    between atoms: C_4  and  C_5 
REMARK    2  A    between atoms: C_5  and  N_6 
REMARK    3  A    between atoms: N_6  and  C_9 
REMARK    4  A    between atoms: C_12  and  O_13 
REMARK    5  A    between atoms: O_13  and  C_14 
ROOT
HETATM    1  C   UNL     1     -40.703  54.340 -52.792  1.00  0.00     0.164 A 
HETATM    2  N   UNL     1     -40.268  53.451 -51.876  1.00  0.00    -0.236 NA
HETATM    3  C   UNL     1     -39.977  52.205 -52.328  1.00  0.00     0.142 A 
HETATM    4  C   UNL     1     -40.111  51.811 -53.652  1.00  0.00     0.062 A 
HETATM    5  C   UNL     1     -39.781  50.479 -54.050  1.00  0.00     0.101 C 
HETATM    6  N   UNL     1     -39.511  49.397 -54.365  1.00  0.00    -0.191 NA
HETATM    7  C   UNL     1     -40.577  52.752 -54.571  1.00  0.00     0.028 A 
HETATM    8  C   UNL     1     -40.884  54.039 -54.133  1.00  0.00     0.059 A 
ENDROOT
BRANCH   1   9
HETATM    9  O   UNL     1     -41.032  55.622 -52.397  1.00  0.00    -0.329 OA
BRANCH   9  10
HETATM   10  C   UNL     1     -41.794  55.690 -51.184  1.00  0.00     0.130 C 
HETATM   11  C   UNL     1     -41.520  57.070 -50.567  1.00  0.00     0.034 C 
HETATM   12  C   UNL     1     -42.061  58.212 -51.432  1.00  0.00     0.035 C 
HETATM   13  C   UNL     1     -43.547  58.058 -51.772  1.00  0.00     0.186 C 
HETATM   14  C   UNL     1     -43.834  56.671 -52.358  1.00  0.00     0.035 C 
HETATM   15  C   UNL     1     -43.291  55.530 -51.491  1.00  0.00     0.034 C 
BRANCH  13  16
HETATM   16  N   UNL     1     -44.398  58.236 -50.544  1.00  0.00    -0.067 N 
HETATM   17  H   UNL     1     -43.825  58.468 -49.723  1.00  0.00     0.278 HD
HETATM   18  H   UNL     1     -44.843  57.338 -50.309  1.00  0.00     0.278 HD
BRANCH  16  19
HETATM   19  C   UNL     1     -45.499  59.250 -50.630  1.00  0.00     0.280 C 
BRANCH  19  20
HETATM   20  C   UNL     1     -45.118  60.507 -49.938  1.00  0.00     0.027 A 
HETATM   21  S   UNL     1     -44.190  61.713 -50.738  1.00  0.00    -0.077 SA
HETATM   22  C   UNL     1     -44.228  62.678 -49.316  1.00  0.00     0.071 A 
HETATM   23  C   UNL     1     -43.558  64.008 -49.276  1.00  0.00     0.078 C 
HETATM   24  N   UNL     1     -44.884  62.149 -48.307  1.00  0.00    -0.258 NA
HETATM   25  C   UNL     1     -45.409  60.927 -48.658  1.00  0.00     0.133 A 
ENDBRANCH  19  20
ENDBRANCH  16  19
ENDBRANCH  13  16
ENDBRANCH   9  10
ENDBRANCH   1   9
TORSDOF 5
ENDMDL
MODEL 3
REMARK VINA RESULT:      -6.7      1.905      2.531
REMARK  5 active torsions:
REMARK  status: ('A' for Active; 'I' for Inactive)
REMARK    1  A    between atoms: C_4  and  C_5 
REMARK    2  A    between atoms: C_5  and  N_6 
REMARK    3  A    between atoms: N_6  and  C_9 
REMARK    4  A    between atoms: C_12  and  O_13 
REMARK    5  A    between atoms: O_13  and  C_14 
ROOT
HETATM    1  C   UNL     1     -40.590  54.151 -53.651  1.00  0.00     0.164 A 
HETATM    2  N   UNL     1     -40.618  54.178 -52.302  1.00  0.00    -0.236 NA
HETATM    3  C   UNL     1     -40.249  53.040 -51.664  1.00  0.00     0.142 A 
HETATM    4  C   UNL     1     -39.863  51.877 -52.316  1.00  0.00     0.062 A 
HETATM    5  C   UNL     1     -39.485  50.718 -51.570  1.00  0.00     0.101 C 
HETATM    6  N   UNL     1     -39.180  49.782 -50.959  1.00  0.00    -0.191 NA
HETATM    7  C   UNL     1     -39.859  51.879 -53.710  1.00  0.00     0.028 A 
HETATM    8  C   UNL     1     -40.235  53.036 -54.392  1.00  0.00     0.059 A 
ENDROOT
BRANCH   1   9
HETATM    9  O   UNL     1     -40.969  55.272 -54.363  1.00  0.00    -0.329 OA
BRANCH   9  10
HETATM   10  C   UNL     1     -42.356  55.614 -54.237  1.00  0.00     0.130 C 
HETATM   11  C   UNL     1     -42.475  57.108 -54.572  1.00  0.00     0.034 C 
HETATM   12  C   UNL     1     -42.132  57.406 -56.034  1.00  0.00     0.035 C 
HETATM   13  C   UNL     1     -42.942  56.564 -57.026  1.00  0.00     0.186 C 
HETATM   14  C   UNL     1     -42.854  55.073 -56.678  1.00  0.00     0.035 C 
HETATM   15  C   UNL     1     -43.197  54.779 -55.214  1.00  0.00     0.034 C 
BRANCH  13  16
HETATM   16  N   UNL     1     -44.391  56.967 -57.012  1.00  0.00    -0.067 N 
HETATM   17  H   UNL     1     -44.560  57.729 -56.343  1.00  0.00     0.278 HD
HETATM   18  H   UNL     1     -44.957  56.180 -56.662  1.00  0.00     0.278 HD
BRANCH  16  19
HETATM   19  C   UNL     1     -44.990  57.373 -58.324  1.00  0.00     0.280 C 
BRANCH  19  20
HETATM   20  C   UNL     1     -44.188  58.447 -58.963  1.00  0.00     0.027 A 
HETATM   21  S   UNL     1     -43.207  58.123 -60.337  1.00  0.00    -0.077 SA
HETATM   22  C   UNL     1     -42.709  59.768 -60.363  1.00  0.00     0.071 A 
HETATM   23  C   UNL     1     -41.760  60.264 -61.400  1.00  0.00     0.078 C 
HETATM   24  N   UNL     1     -43.231  60.518 -59.418  1.00  0.00    -0.258 NA
HETATM   25  C   UNL     1     -44.087  59.781 -58.632  1.00  0.00     0.133 A 
ENDBRANCH  19  20
ENDBRANCH  16  19
ENDBRANCH  13  16
ENDBRANCH   9  10
ENDBRANCH   1   9
TORSDOF 5
ENDMDL
MODEL 4
REMARK VINA RESULT:      -6.7     15.428     19.302
REMARK  5 active torsions:
REMARK  status: ('A' for Active; 'I' for Inactive)
REMARK    1  A    between atoms: C_4  and  C_5 
REMARK    2  A    between atoms: C_5  and  N_6 
REMARK    3  A    between atoms: N_6  and  C_9 
REMARK    4  A    between atoms: C_12  and  O_13 
REMARK    5  A    between atoms: O_13  and  C_14 
ROOT
HETATM    1  C   UNL     1     -36.054  41.827 -54.720  1.00  0.00     0.164 A 
HETATM    2  N   UNL     1     -37.317  41.550 -55.103  1.00  0.00    -0.236 NA
HETATM    3  C   UNL     1     -37.586  41.650 -56.429  1.00  0.00     0.142 A 
HETATM    4  C   UNL     1     -36.650  42.023 -57.383  1.00  0.00     0.062 A 
HETATM    5  C   UNL     1     -37.011  42.102 -58.763  1.00  0.00     0.101 C 
HETATM    6  N   UNL     1     -37.312  42.165 -59.881  1.00  0.00    -0.191 NA
HETATM    7  C   UNL     1     -35.357  42.316 -56.951  1.00  0.00     0.028 A 
HETATM    8  C   UNL     1     -35.053  42.222 -55.593  1.00  0.00     0.059 A 
ENDROOT
BRANCH   1   9
HETATM    9  O   UNL     1     -35.716  41.759 -53.382  1.00  0.00    -0.329 OA
BRANCH   9  10
HETATM   10  C   UNL     1     -34.565  40.952 -53.102  1.00  0.00     0.130 C 
HETATM   11  C   UNL     1     -34.145  41.269 -51.659  1.00  0.00     0.034 C 
HETATM   12  C   UNL     1     -35.193  40.821 -50.636  1.00  0.00     0.035 C 
HETATM   13  C   UNL     1     -35.577  39.344 -50.776  1.00  0.00     0.186 C 
HETATM   14  C   UNL     1     -35.966  39.013 -52.221  1.00  0.00     0.035 C 
HETATM   15  C   UNL     1     -34.916  39.463 -53.242  1.00  0.00     0.034 C 
BRANCH  13  16
HETATM   16  N   UNL     1     -34.431  38.453 -50.380  1.00  0.00    -0.067 N 
HETATM   17  H   UNL     1     -33.540  38.802 -50.755  1.00  0.00     0.278 HD
HETATM   18  H   UNL     1     -34.556  37.529 -50.819  1.00  0.00     0.278 HD
BRANCH  16  19
HETATM   19  C   UNL     1     -34.243  38.209 -48.914  1.00  0.00     0.280 C 
BRANCH  19  20
HETATM   20  C   UNL     1     -32.921  38.707 -48.458  1.00  0.00     0.027 A 
HETATM   21  S   UNL     1     -32.279  38.248 -46.931  1.00  0.00    -0.077 SA
HETATM   22  C   UNL     1     -30.884  39.206 -47.235  1.00  0.00     0.071 A 
HETATM   23  C   UNL     1     -29.781  39.289 -46.236  1.00  0.00     0.078 C 
HETATM   24  N   UNL     1     -30.884  39.830 -48.392  1.00  0.00    -0.258 NA
HETATM   25  C   UNL     1     -32.027  39.535 -49.101  1.00  0.00     0.133 A 
ENDBRANCH  19  20
ENDBRANCH  16  19
ENDBRANCH  13  16
ENDBRANCH   9  10
ENDBRANCH   1   9
TORSDOF 5
ENDMDL
MODEL 5
REMARK VINA RESULT:      -6.6      5.305      6.111
REMARK  5 active torsions:
REMARK  status: ('A' for Active; 'I' for Inactive)
REMARK    1  A    between atoms: C_4  and  C_5 
REMARK    2  A    between atoms: C_5  and  N_6 
REMARK    3  A    between atoms: N_6  and  C_9 
REMARK    4  A    between atoms: C_12  and  O_13 
REMARK    5  A    between atoms: O_13  and  C_14 
ROOT
HETATM    1  C   UNL     1     -40.735  54.633 -53.117  1.00  0.00     0.164 A 
HETATM    2  N   UNL     1     -40.558  53.768 -52.098  1.00  0.00    -0.236 NA
HETATM    3  C   UNL     1     -40.261  52.487 -52.433  1.00  0.00     0.142 A 
HETATM    4  C   UNL     1     -40.144  52.036 -53.740  1.00  0.00     0.062 A 
HETATM    5  C   UNL     1     -39.826  50.670 -54.011  1.00  0.00     0.101 C 
HETATM    6  N   UNL     1     -39.568  49.559 -54.223  1.00  0.00    -0.191 NA
HETATM    7  C   UNL     1     -40.348  52.954 -54.770  1.00  0.00     0.028 A 
HETATM    8  C   UNL     1     -40.655  54.277 -54.454  1.00  0.00     0.059 A 
ENDROOT
BRANCH   1   9
HETATM    9  O   UNL     1     -41.055  55.950 -52.846  1.00  0.00    -0.329 OA
BRANCH   9  10
HETATM   10  C   UNL     1     -41.768  56.145 -51.617  1.00  0.00     0.130 C 
HETATM   11  C   UNL     1     -40.922  57.102 -50.764  1.00  0.00     0.034 C 
HETATM   12  C   UNL     1     -40.823  58.499 -51.383  1.00  0.00     0.035 C 
HETATM   13  C   UNL     1     -42.189  59.118 -51.696  1.00  0.00     0.186 C 
HETATM   14  C   UNL     1     -43.050  58.155 -52.520  1.00  0.00     0.035 C 
HETATM   15  C   UNL     1     -43.149  56.758 -51.899  1.00  0.00     0.034 C 
BRANCH  13  16
HETATM   16  N   UNL     1     -42.930  59.448 -50.430  1.00  0.00    -0.067 N 
HETATM   17  H   UNL     1     -42.451  59.064 -49.606  1.00  0.00     0.278 HD
HETATM   18  H   UNL     1     -43.846  58.978 -50.443  1.00  0.00     0.278 HD
BRANCH  16  19
HETATM   19  C   UNL     1     -43.197  60.899 -50.164  1.00  0.00     0.280 C 
BRANCH  19  20
HETATM   20  C   UNL     1     -44.274  61.411 -51.047  1.00  0.00     0.027 A 
HETATM   21  S   UNL     1     -45.890  60.846 -50.893  1.00  0.00    -0.077 SA
HETATM   22  C   UNL     1     -46.368  61.872 -52.187  1.00  0.00     0.071 A 
HETATM   23  C   UNL     1     -47.784  61.913 -52.647  1.00  0.00     0.078 C 
HETATM   24  N   UNL     1     -45.399  62.591 -52.707  1.00  0.00    -0.258 NA
HETATM   25  C   UNL     1     -44.212  62.351 -52.053  1.00  0.00     0.133 A 
ENDBRANCH  19  20
ENDBRANCH  16  19
ENDBRANCH  13  16
ENDBRANCH   9  10
ENDBRANCH   1   9
TORSDOF 5
ENDMDL
MODEL 6
REMARK VINA RESULT:      -6.5      2.743      3.132
REMARK  5 active torsions:
REMARK  status: ('A' for Active; 'I' for Inactive)
REMARK    1  A    between atoms: C_4  and  C_5 
REMARK    2  A    between atoms: C_5  and  N_6 
REMARK    3  A    between atoms: N_6  and  C_9 
REMARK    4  A    between atoms: C_12  and  O_13 
REMARK    5  A    between atoms: O_13  and  C_14 
ROOT
HETATM    1  C   UNL     1     -42.243  56.448 -51.892  1.00  0.00     0.164 A 
HETATM    2  N   UNL     1     -41.166  56.903 -51.219  1.00  0.00    -0.236 NA
HETATM    3  C   UNL     1     -40.767  56.173 -50.147  1.00  0.00     0.142 A 
HETATM    4  C   UNL     1     -41.404  55.017 -49.716  1.00  0.00     0.062 A 
HETATM    5  C   UNL     1     -40.920  54.302 -48.578  1.00  0.00     0.101 C 
HETATM    6  N   UNL     1     -40.522  53.728 -47.653  1.00  0.00    -0.191 NA
HETATM    7  C   UNL     1     -42.522  54.583 -50.427  1.00  0.00     0.028 A 
HETATM    8  C   UNL     1     -42.955  55.315 -51.533  1.00  0.00     0.059 A 
ENDROOT
BRANCH   1   9
HETATM    9  O   UNL     1     -42.711  57.153 -52.984  1.00  0.00    -0.329 OA
BRANCH   9  10
HETATM   10  C   UNL     1     -41.726  57.398 -53.997  1.00  0.00     0.130 C 
HETATM   11  C   UNL     1     -41.388  56.037 -54.623  1.00  0.00     0.034 C 
HETATM   12  C   UNL     1     -42.577  55.431 -55.374  1.00  0.00     0.035 C 
HETATM   13  C   UNL     1     -43.170  56.376 -56.424  1.00  0.00     0.186 C 
HETATM   14  C   UNL     1     -43.481  57.747 -55.814  1.00  0.00     0.035 C 
HETATM   15  C   UNL     1     -42.289  58.351 -55.062  1.00  0.00     0.034 C 
BRANCH  13  16
HETATM   16  N   UNL     1     -42.214  56.573 -57.568  1.00  0.00    -0.067 N 
HETATM   17  H   UNL     1     -41.930  55.674 -57.977  1.00  0.00     0.278 HD
HETATM   18  H   UNL     1     -41.341  56.986 -57.211  1.00  0.00     0.278 HD
BRANCH  16  19
HETATM   19  C   UNL     1     -42.677  57.456 -58.688  1.00  0.00     0.280 C 
BRANCH  19  20
HETATM   20  C   UNL     1     -43.825  56.845 -59.404  1.00  0.00     0.027 A 
HETATM   21  S   UNL     1     -45.321  57.678 -59.554  1.00  0.00    -0.077 SA
HETATM   22  C   UNL     1     -45.972  56.345 -60.423  1.00  0.00     0.071 A 
HETATM   23  C   UNL     1     -47.374  56.371 -60.926  1.00  0.00     0.078 C 
HETATM   24  N   UNL     1     -45.141  55.341 -60.596  1.00  0.00    -0.258 NA
HETATM   25  C   UNL     1     -43.915  55.625 -60.039  1.00  0.00     0.133 A 
ENDBRANCH  19  20
ENDBRANCH  16  19
ENDBRANCH  13  16
ENDBRANCH   9  10
ENDBRANCH   1   9
TORSDOF 5
ENDMDL
MODEL 7
REMARK VINA RESULT:      -6.5     15.182     17.795
REMARK  5 active torsions:
REMARK  status: ('A' for Active; 'I' for Inactive)
REMARK    1  A    between atoms: C_4  and  C_5 
REMARK    2  A    between atoms: C_5  and  N_6 
REMARK    3  A    between atoms: N_6  and  C_9 
REMARK    4  A    between atoms: C_12  and  O_13 
REMARK    5  A    between atoms: O_13  and  C_14 
ROOT
HETATM    1  C   UNL     1     -32.071  38.968 -49.226  1.00  0.00     0.164 A 
HETATM    2  N   UNL     1     -31.056  39.649 -48.655  1.00  0.00    -0.236 NA
HETATM    3  C   UNL     1     -30.913  39.513 -47.312  1.00  0.00     0.142 A 
HETATM    4  C   UNL     1     -31.744  38.733 -46.520  1.00  0.00     0.062 A 
HETATM    5  C   UNL     1     -31.525  38.639 -45.112  1.00  0.00     0.101 C 
HETATM    6  N   UNL     1     -31.341  38.568 -43.969  1.00  0.00    -0.191 NA
HETATM    7  C   UNL     1     -32.791  38.054 -47.141  1.00  0.00     0.028 A 
HETATM    8  C   UNL     1     -32.962  38.177 -48.520  1.00  0.00     0.059 A 
ENDROOT
BRANCH   1   9
HETATM    9  O   UNL     1     -32.282  39.075 -50.587  1.00  0.00    -0.329 OA
BRANCH   9  10
HETATM   10  C   UNL     1     -32.242  40.417 -51.089  1.00  0.00     0.130 C 
HETATM   11  C   UNL     1     -32.143  40.314 -52.618  1.00  0.00     0.034 C 
HETATM   12  C   UNL     1     -33.400  39.702 -53.243  1.00  0.00     0.035 C 
HETATM   13  C   UNL     1     -34.689  40.423 -52.832  1.00  0.00     0.186 C 
HETATM   14  C   UNL     1     -34.779  40.558 -51.309  1.00  0.00     0.035 C 
HETATM   15  C   UNL     1     -33.519  41.171 -50.686  1.00  0.00     0.034 C 
BRANCH  13  16
HETATM   16  N   UNL     1     -34.746  41.801 -53.433  1.00  0.00    -0.067 N 
HETATM   17  H   UNL     1     -34.024  41.924 -54.154  1.00  0.00     0.278 HD
HETATM   18  H   UNL     1     -34.513  42.494 -52.708  1.00  0.00     0.278 HD
BRANCH  16  19
HETATM   19  C   UNL     1     -36.056  42.223 -54.025  1.00  0.00     0.280 C 
BRANCH  19  20
HETATM   20  C   UNL     1     -36.050  42.057 -55.500  1.00  0.00     0.027 A 
HETATM   21  S   UNL     1     -37.518  41.999 -56.392  1.00  0.00    -0.077 SA
HETATM   22  C   UNL     1     -36.622  41.800 -57.845  1.00  0.00     0.071 A 
HETATM   23  C   UNL     1     -37.314  41.672 -59.159  1.00  0.00     0.078 C 
HETATM   24  N   UNL     1     -35.317  41.778 -57.691  1.00  0.00    -0.258 NA
HETATM   25  C   UNL     1     -34.984  41.944 -56.366  1.00  0.00     0.133 A 
ENDBRANCH  19  20
ENDBRANCH  16  19
ENDBRANCH  13  16
ENDBRANCH   9  10
ENDBRANCH   1   9
TORSDOF 5
ENDMDL
MODEL 8
REMARK VINA RESULT:      -6.4      4.895      6.831
REMARK  5 active torsions:
REMARK  status: ('A' for Active; 'I' for Inactive)
REMARK    1  A    between atoms: C_4  and  C_5 
REMARK    2  A    between atoms: C_5  and  N_6 
REMARK    3  A    between atoms: N_6  and  C_9 
REMARK    4  A    between atoms: C_12  and  O_13 
REMARK    5  A    between atoms: O_13  and  C_14 
ROOT
HETATM    1  C   UNL     1     -41.092  54.318 -52.758  1.00  0.00     0.164 A 
HETATM    2  N   UNL     1     -41.302  53.982 -54.048  1.00  0.00    -0.236 NA
HETATM    3  C   UNL     1     -40.871  52.755 -54.434  1.00  0.00     0.142 A 
HETATM    4  C   UNL     1     -40.234  51.857 -53.589  1.00  0.00     0.062 A 
HETATM    5  C   UNL     1     -39.813  50.580 -54.072  1.00  0.00     0.101 C 
HETATM    6  N   UNL     1     -39.473  49.546 -54.471  1.00  0.00    -0.191 NA
HETATM    7  C   UNL     1     -40.021  52.241 -52.266  1.00  0.00     0.028 A 
HETATM    8  C   UNL     1     -40.452  53.498 -51.842  1.00  0.00     0.059 A 
ENDROOT
BRANCH   1   9
HETATM    9  O   UNL     1     -41.492  55.559 -52.303  1.00  0.00    -0.329 OA
BRANCH   9  10
HETATM   10  C   UNL     1     -41.607  56.556 -53.327  1.00  0.00     0.130 C 
HETATM   11  C   UNL     1     -43.105  56.861 -53.478  1.00  0.00     0.034 C 
HETATM   12  C   UNL     1     -43.694  57.518 -52.226  1.00  0.00     0.035 C 
HETATM   13  C   UNL     1     -42.929  58.771 -51.787  1.00  0.00     0.186 C 
HETATM   14  C   UNL     1     -41.429  58.482 -51.665  1.00  0.00     0.035 C 
HETATM   15  C   UNL     1     -40.842  57.825 -52.919  1.00  0.00     0.034 C 
BRANCH  13  16
HETATM   16  N   UNL     1     -43.116  59.887 -52.777  1.00  0.00    -0.067 N 
HETATM   17  H   UNL     1     -43.192  59.526 -53.737  1.00  0.00     0.278 HD
HETATM   18  H   UNL     1     -42.272  60.477 -52.785  1.00  0.00     0.278 HD
BRANCH  16  19
HETATM   19  C   UNL     1     -44.277  60.806 -52.545  1.00  0.00     0.280 C 
BRANCH  19  20
HETATM   20  C   UNL     1     -44.710  60.767 -51.126  1.00  0.00     0.027 A 
HETATM   21  S   UNL     1     -43.894  61.687 -49.925  1.00  0.00    -0.077 SA
HETATM   22  C   UNL     1     -44.965  61.070 -48.730  1.00  0.00     0.071 A 
HETATM   23  C   UNL     1     -44.840  61.482 -47.304  1.00  0.00     0.078 C 
HETATM   24  N   UNL     1     -45.873  60.233 -49.183  1.00  0.00    -0.258 NA
HETATM   25  C   UNL     1     -45.748  60.072 -50.544  1.00  0.00     0.133 A 
ENDBRANCH  19  20
ENDBRANCH  16  19
ENDBRANCH  13  16
ENDBRANCH   9  10
ENDBRANCH   1   9
TORSDOF 5
ENDMDL
MODEL 9
REMARK VINA RESULT:      -6.3      2.372      3.114
REMARK  5 active torsions:
REMARK  status: ('A' for Active; 'I' for Inactive)
REMARK    1  A    between atoms: C_4  and  C_5 
REMARK    2  A    between atoms: C_5  and  N_6 
REMARK    3  A    between atoms: N_6  and  C_9 
REMARK    4  A    between atoms: C_12  and  O_13 
REMARK    5  A    between atoms: O_13  and  C_14 
ROOT
HETATM    1  C   UNL     1     -40.741  54.128 -52.767  1.00  0.00     0.164 A 
HETATM    2  N   UNL     1     -40.371  53.434 -51.670  1.00  0.00    -0.236 NA
HETATM    3  C   UNL     1     -40.006  52.142 -51.864  1.00  0.00     0.142 A 
HETATM    4  C   UNL     1     -40.005  51.514 -53.101  1.00  0.00     0.062 A 
HETATM    5  C   UNL     1     -39.604  50.148 -53.222  1.00  0.00     0.101 C 
HETATM    6  N   UNL     1     -39.277  49.039 -53.312  1.00  0.00    -0.191 NA
HETATM    7  C   UNL     1     -40.406  52.256 -54.211  1.00  0.00     0.028 A 
HETATM    8  C   UNL     1     -40.787  53.587 -54.042  1.00  0.00     0.059 A 
ENDROOT
BRANCH   1   9
HETATM    9  O   UNL     1     -41.139  55.444 -52.639  1.00  0.00    -0.329 OA
BRANCH   9  10
HETATM   10  C   UNL     1     -41.087  56.199 -53.857  1.00  0.00     0.130 C 
HETATM   11  C   UNL     1     -42.483  56.109 -54.491  1.00  0.00     0.034 C 
HETATM   12  C   UNL     1     -43.553  56.806 -53.646  1.00  0.00     0.035 C 
HETATM   13  C   UNL     1     -43.204  58.260 -53.313  1.00  0.00     0.186 C 
HETATM   14  C   UNL     1     -41.799  58.362 -52.708  1.00  0.00     0.035 C 
HETATM   15  C   UNL     1     -40.730  57.663 -53.556  1.00  0.00     0.034 C 
BRANCH  13  16
HETATM   16  N   UNL     1     -43.250  59.118 -54.547  1.00  0.00    -0.067 N 
HETATM   17  H   UNL     1     -42.429  58.956 -55.145  1.00  0.00     0.278 HD
HETATM   18  H   UNL     1     -43.183  60.108 -54.272  1.00  0.00     0.278 HD
BRANCH  16  19
HETATM   19  C   UNL     1     -44.470  58.994 -55.408  1.00  0.00     0.280 C 
BRANCH  19  20
HETATM   20  C   UNL     1     -44.104  58.609 -56.795  1.00  0.00     0.027 A 
HETATM   21  S   UNL     1     -42.467  58.625 -57.316  1.00  0.00    -0.077 SA
HETATM   22  C   UNL     1     -42.963  58.105 -58.877  1.00  0.00     0.071 A 
HETATM   23  C   UNL     1     -41.967  57.879 -59.962  1.00  0.00     0.078 C 
HETATM   24  N   UNL     1     -44.259  57.928 -59.014  1.00  0.00    -0.258 NA
HETATM   25  C   UNL     1     -44.911  58.192 -57.831  1.00  0.00     0.133 A 
ENDBRANCH  19  20
ENDBRANCH  16  19
ENDBRANCH  13  16
ENDBRANCH   9  10
ENDBRANCH   1   9
TORSDOF 5
ENDMDL
MODEL 10
REMARK VINA RESULT:      -6.2      5.190      9.203
REMARK  5 active torsions:
REMARK  status: ('A' for Active; 'I' for Inactive)
REMARK    1  A    between atoms: C_4  and  C_5 
REMARK    2  A    between atoms: C_5  and  N_6 
REMARK    3  A    between atoms: N_6  and  C_9 
REMARK    4  A    between atoms: C_12  and  O_13 
REMARK    5  A    between atoms: O_13  and  C_14 
ROOT
HETATM    1  C   UNL     1     -43.877  59.955 -51.374  1.00  0.00     0.164 A 
HETATM    2  N   UNL     1     -45.045  59.866 -50.705  1.00  0.00    -0.236 NA
HETATM    3  C   UNL     1     -45.254  60.778 -49.722  1.00  0.00     0.142 A 
HETATM    4  C   UNL     1     -44.344  61.765 -49.376  1.00  0.00     0.062 A 
HETATM    5  C   UNL     1     -44.640  62.691 -48.329  1.00  0.00     0.101 C 
HETATM    6  N   UNL     1     -44.887  63.439 -47.478  1.00  0.00    -0.191 NA
HETATM    7  C   UNL     1     -43.140  61.821 -50.078  1.00  0.00     0.028 A 
HETATM    8  C   UNL     1     -42.898  60.895 -51.092  1.00  0.00     0.059 A 
ENDROOT
BRANCH   1   9
HETATM    9  O   UNL     1     -43.594  59.048 -52.376  1.00  0.00    -0.329 OA
BRANCH   9  10
HETATM   10  C   UNL     1     -43.885  57.685 -52.041  1.00  0.00     0.130 C 
HETATM   11  C   UNL     1     -43.915  56.903 -53.362  1.00  0.00     0.034 C 
HETATM   12  C   UNL     1     -42.543  56.853 -54.040  1.00  0.00     0.035 C 
HETATM   13  C   UNL     1     -41.437  56.321 -53.122  1.00  0.00     0.186 C 
HETATM   14  C   UNL     1     -41.422  57.076 -51.789  1.00  0.00     0.035 C 
HETATM   15  C   UNL     1     -42.796  57.125 -51.113  1.00  0.00     0.034 C 
BRANCH  13  16
HETATM   16  N   UNL     1     -41.637  54.858 -52.834  1.00  0.00    -0.067 N 
HETATM   17  H   UNL     1     -41.585  54.298 -53.694  1.00  0.00     0.278 HD
HETATM   18  H   UNL     1     -42.594  54.712 -52.483  1.00  0.00     0.278 HD
BRANCH  16  19
HETATM   19  C   UNL     1     -40.712  54.237 -51.831  1.00  0.00     0.280 C 
BRANCH  19  20
HETATM   20  C   UNL     1     -40.292  52.881 -52.266  1.00  0.00     0.027 A 
HETATM   21  S   UNL     1     -40.386  52.411 -53.916  1.00  0.00    -0.077 SA
HETATM   22  C   UNL     1     -39.770  50.859 -53.504  1.00  0.00     0.071 A 
HETATM   23  C   UNL     1     -39.561  49.817 -54.548  1.00  0.00     0.078 C 
HETATM   24  N   UNL     1     -39.508  50.691 -52.227  1.00  0.00    -0.258 NA
HETATM   25  C   UNL     1     -39.782  51.840 -51.521  1.00  0.00     0.133 A 
ENDBRANCH  19  20
ENDBRANCH  16  19
ENDBRANCH  13  16
ENDBRANCH   9  10
ENDBRANCH   1   9
TORSDOF 5
ENDMDL
