MODEL 1
REMARK VINA RESULT:      -8.6      0.000      0.000
REMARK  6 active torsions:
REMARK  status: ('A' for Active; 'I' for Inactive)
REMARK    1  A    between atoms: C_9  and  N_10 
REMARK       I    between atoms: N_10  and  C_11 
REMARK    2  A    between atoms: C_11  and  C_12 
REMARK    3  A    between atoms: C_12  and  N_13 
REMARK    4  A    between atoms: C_12  and  C_21 
REMARK       I    between atoms: N_13  and  C_14 
REMARK    5  A    between atoms: C_14  and  C_15 
REMARK    6  A    between atoms: C_21  and  C_22 
ROOT
HETATM    1  C   UNL     1     -42.626  54.410 -55.024  1.00  0.00     0.181 C 
ENDROOT
BRANCH   1   2
HETATM    2  C   UNL     1     -42.999  55.571 -54.070  1.00  0.00     0.245 C 
HETATM    3  N   UNL     1     -41.930  56.360 -53.689  1.00  0.00    -0.325 N 
HETATM    4  H   UNL     1     -41.045  56.168 -54.162  1.00  0.00     0.169 HD
HETATM    5  O   UNL     1     -44.173  55.735 -53.740  1.00  0.00    -0.271 OA
BRANCH   3   6
HETATM    6  C   UNL     1     -41.924  57.444 -52.788  1.00  0.00     0.037 A 
HETATM    7  C   UNL     1     -42.581  58.657 -53.026  1.00  0.00     0.063 A 
HETATM    8  C   UNL     1     -42.513  59.671 -52.054  1.00  0.00     0.087 A 
HETATM    9  N   UNL     1     -43.056  60.934 -52.059  1.00  0.00    -0.234 NA
HETATM   10  C   UNL     1     -41.808  59.444 -50.878  1.00  0.00     0.062 A 
HETATM   11  C   UNL     1     -42.698  61.482 -50.918  1.00  0.00     0.101 A 
HETATM   12  C   UNL     1     -43.028  62.847 -50.447  1.00  0.00     0.091 C 
HETATM   13  N   UNL     1     -41.948  60.610 -50.170  1.00  0.00    -0.343 N 
HETATM   14  H   UNL     1     -41.561  60.798 -49.257  1.00  0.00     0.167 HD
HETATM   15  C   UNL     1     -41.148  58.250 -50.602  1.00  0.00     0.034 A 
HETATM   16  C   UNL     1     -41.221  57.255 -51.588  1.00  0.00     0.032 A 
ENDBRANCH   3   6
ENDBRANCH   1   2
BRANCH   1  17
HETATM   17  N   UNL     1     -43.179  54.677 -56.359  1.00  0.00    -0.343 N 
HETATM   18  C   UNL     1     -42.931  55.812 -57.099  1.00  0.00     0.259 C 
HETATM   19  O   UNL     1     -42.214  56.708 -56.652  1.00  0.00    -0.267 OA
HETATM   20  H   UNL     1     -43.867  54.027 -56.720  1.00  0.00     0.163 HD
BRANCH  18  21
HETATM   21  C   UNL     1     -43.575  55.886 -58.401  1.00  0.00     0.072 A 
HETATM   22  S   UNL     1     -44.035  57.377 -59.116  1.00  0.00    -0.097 SA
HETATM   23  C   UNL     1     -44.668  56.600 -60.501  1.00  0.00     0.050 A 
HETATM   24  C   UNL     1     -44.536  55.233 -60.431  1.00  0.00     0.009 A 
HETATM   25  C   UNL     1     -43.906  54.822 -59.221  1.00  0.00     0.025 A 
ENDBRANCH  18  21
ENDBRANCH   1  17
BRANCH   1  26
HETATM   26  C   UNL     1     -41.121  54.070 -55.040  1.00  0.00     0.073 C 
BRANCH  26  27
HETATM   27  C   UNL     1     -40.604  53.082 -54.013  1.00  0.00    -0.056 A 
HETATM   28  C   UNL     1     -40.419  53.383 -52.659  1.00  0.00     0.007 A 
HETATM   29  C   UNL     1     -39.898  52.428 -51.780  1.00  0.00     0.001 A 
HETATM   30  C   UNL     1     -39.546  51.163 -52.242  1.00  0.00     0.000 A 
HETATM   31  C   UNL     1     -39.710  50.850 -53.587  1.00  0.00     0.001 A 
HETATM   32  C   UNL     1     -40.231  51.802 -54.465  1.00  0.00     0.007 A 
ENDBRANCH  26  27
ENDBRANCH   1  26
TORSDOF 6
ENDMDL
MODEL 2
REMARK VINA RESULT:      -8.4      1.872      2.419
REMARK  6 active torsions:
REMARK  status: ('A' for Active; 'I' for Inactive)
REMARK    1  A    between atoms: C_9  and  N_10 
REMARK       I    between atoms: N_10  and  C_11 
REMARK    2  A    between atoms: C_11  and  C_12 
REMARK    3  A    between atoms: C_12  and  N_13 
REMARK    4  A    between atoms: C_12  and  C_21 
REMARK       I    between atoms: N_13  and  C_14 
REMARK    5  A    between atoms: C_14  and  C_15 
REMARK    6  A    between atoms: C_21  and  C_22 
ROOT
HETATM    1  C   UNL     1     -42.115  55.069 -53.205  1.00  0.00     0.181 C 
ENDROOT
BRANCH   1   2
HETATM    2  C   UNL     1     -42.727  56.018 -52.147  1.00  0.00     0.245 C 
HETATM    3  N   UNL     1     -42.681  57.356 -52.488  1.00  0.00    -0.325 N 
HETATM    4  H   UNL     1     -42.361  57.563 -53.435  1.00  0.00     0.169 HD
HETATM    5  O   UNL     1     -43.222  55.550 -51.122  1.00  0.00    -0.271 OA
BRANCH   3   6
HETATM    6  C   UNL     1     -43.092  58.466 -51.722  1.00  0.00     0.037 A 
HETATM    7  C   UNL     1     -44.431  58.780 -51.462  1.00  0.00     0.063 A 
HETATM    8  C   UNL     1     -44.727  59.910 -50.679  1.00  0.00     0.087 A 
HETATM    9  N   UNL     1     -45.944  60.424 -50.299  1.00  0.00    -0.234 NA
HETATM   10  C   UNL     1     -43.688  60.682 -50.174  1.00  0.00     0.062 A 
HETATM   11  C   UNL     1     -45.673  61.490 -49.578  1.00  0.00     0.101 A 
HETATM   12  C   UNL     1     -46.650  62.403 -48.940  1.00  0.00     0.091 C 
HETATM   13  N   UNL     1     -44.317  61.677 -49.471  1.00  0.00    -0.343 N 
HETATM   14  H   UNL     1     -43.863  62.423 -48.966  1.00  0.00     0.167 HD
HETATM   15  C   UNL     1     -42.344  60.400 -50.405  1.00  0.00     0.034 A 
HETATM   16  C   UNL     1     -42.072  59.274 -51.194  1.00  0.00     0.032 A 
ENDBRANCH   3   6
ENDBRANCH   1   2
BRANCH   1  17
HETATM   17  N   UNL     1     -42.237  55.676 -54.537  1.00  0.00    -0.343 N 
HETATM   18  C   UNL     1     -42.876  55.095 -55.609  1.00  0.00     0.259 C 
HETATM   19  O   UNL     1     -43.385  53.979 -55.506  1.00  0.00    -0.267 OA
HETATM   20  H   UNL     1     -41.733  56.539 -54.707  1.00  0.00     0.163 HD
BRANCH  18  21
HETATM   21  C   UNL     1     -42.887  55.861 -56.847  1.00  0.00     0.072 A 
HETATM   22  S   UNL     1     -42.542  57.541 -56.891  1.00  0.00    -0.097 SA
HETATM   23  C   UNL     1     -42.768  57.616 -58.583  1.00  0.00     0.050 A 
HETATM   24  C   UNL     1     -43.100  56.391 -59.114  1.00  0.00     0.009 A 
HETATM   25  C   UNL     1     -43.168  55.380 -58.113  1.00  0.00     0.025 A 
ENDBRANCH  18  21
ENDBRANCH   1  17
BRANCH   1  26
HETATM   26  C   UNL     1     -40.682  54.601 -52.873  1.00  0.00     0.073 C 
BRANCH  26  27
HETATM   27  C   UNL     1     -40.351  53.134 -53.063  1.00  0.00    -0.056 A 
HETATM   28  C   UNL     1     -40.542  52.435 -54.261  1.00  0.00     0.007 A 
HETATM   29  C   UNL     1     -40.249  51.070 -54.345  1.00  0.00     0.001 A 
HETATM   30  C   UNL     1     -39.773  50.382 -53.233  1.00  0.00     0.000 A 
HETATM   31  C   UNL     1     -39.590  51.056 -52.031  1.00  0.00     0.001 A 
HETATM   32  C   UNL     1     -39.880  52.419 -51.946  1.00  0.00     0.007 A 
ENDBRANCH  26  27
ENDBRANCH   1  26
TORSDOF 6
ENDMDL
MODEL 3
REMARK VINA RESULT:      -8.3      2.400      6.710
REMARK  6 active torsions:
REMARK  status: ('A' for Active; 'I' for Inactive)
REMARK    1  A    between atoms: C_9  and  N_10 
REMARK       I    between atoms: N_10  and  C_11 
REMARK    2  A    between atoms: C_11  and  C_12 
REMARK    3  A    between atoms: C_12  and  N_13 
REMARK    4  A    between atoms: C_12  and  C_21 
REMARK       I    between atoms: N_13  and  C_14 
REMARK    5  A    between atoms: C_14  and  C_15 
REMARK    6  A    between atoms: C_21  and  C_22 
ROOT
HETATM    1  C   UNL     1     -42.006  55.778 -53.376  1.00  0.00     0.181 C 
ENDROOT
BRANCH   1   2
HETATM    2  C   UNL     1     -42.966  55.654 -54.584  1.00  0.00     0.245 C 
HETATM    3  N   UNL     1     -42.620  56.438 -55.668  1.00  0.00    -0.325 N 
HETATM    4  H   UNL     1     -41.721  56.917 -55.602  1.00  0.00     0.169 HD
HETATM    5  O   UNL     1     -43.922  54.882 -54.525  1.00  0.00    -0.271 OA
BRANCH   3   6
HETATM    6  C   UNL     1     -43.315  56.600 -56.884  1.00  0.00     0.037 A 
HETATM    7  C   UNL     1     -44.276  57.594 -57.105  1.00  0.00     0.063 A 
HETATM    8  C   UNL     1     -44.904  57.666 -58.361  1.00  0.00     0.087 A 
HETATM    9  N   UNL     1     -45.872  58.533 -58.811  1.00  0.00    -0.234 NA
HETATM   10  C   UNL     1     -44.554  56.761 -59.354  1.00  0.00     0.062 A 
HETATM   11  C   UNL     1     -46.121  58.177 -60.054  1.00  0.00     0.101 A 
HETATM   12  C   UNL     1     -47.098  58.798 -60.977  1.00  0.00     0.091 C 
HETATM   13  N   UNL     1     -45.337  57.112 -60.424  1.00  0.00    -0.343 N 
HETATM   14  H   UNL     1     -45.342  56.662 -61.326  1.00  0.00     0.167 HD
HETATM   15  C   UNL     1     -43.600  55.763 -59.175  1.00  0.00     0.034 A 
HETATM   16  C   UNL     1     -42.991  55.702 -57.914  1.00  0.00     0.032 A 
ENDBRANCH   3   6
ENDBRANCH   1   2
BRANCH   1  17
HETATM   17  N   UNL     1     -42.268  57.040 -52.670  1.00  0.00    -0.343 N 
HETATM   18  C   UNL     1     -41.598  58.221 -52.900  1.00  0.00     0.259 C 
HETATM   19  O   UNL     1     -40.694  58.278 -53.733  1.00  0.00    -0.267 OA
HETATM   20  H   UNL     1     -42.918  57.017 -51.893  1.00  0.00     0.163 HD
BRANCH  18  21
HETATM   21  C   UNL     1     -42.006  59.362 -52.093  1.00  0.00     0.072 A 
HETATM   22  S   UNL     1     -43.015  60.607 -52.706  1.00  0.00    -0.097 SA
HETATM   23  C   UNL     1     -42.981  61.462 -51.226  1.00  0.00     0.050 A 
HETATM   24  C   UNL     1     -42.220  60.820 -50.277  1.00  0.00     0.009 A 
HETATM   25  C   UNL     1     -41.658  59.610 -50.777  1.00  0.00     0.025 A 
ENDBRANCH  18  21
ENDBRANCH   1  17
BRANCH   1  26
HETATM   26  C   UNL     1     -42.004  54.546 -52.447  1.00  0.00     0.073 C 
BRANCH  26  27
HETATM   27  C   UNL     1     -41.114  53.376 -52.820  1.00  0.00    -0.056 A 
HETATM   28  C   UNL     1     -41.107  52.767 -54.080  1.00  0.00     0.007 A 
HETATM   29  C   UNL     1     -40.285  51.664 -54.335  1.00  0.00     0.001 A 
HETATM   30  C   UNL     1     -39.467  51.149 -53.333  1.00  0.00     0.000 A 
HETATM   31  C   UNL     1     -39.471  51.733 -52.071  1.00  0.00     0.001 A 
HETATM   32  C   UNL     1     -40.290  52.834 -51.816  1.00  0.00     0.007 A 
ENDBRANCH  26  27
ENDBRANCH   1  26
TORSDOF 6
ENDMDL
MODEL 4
REMARK VINA RESULT:      -8.1      2.107      2.408
REMARK  6 active torsions:
REMARK  status: ('A' for Active; 'I' for Inactive)
REMARK    1  A    between atoms: C_9  and  N_10 
REMARK       I    between atoms: N_10  and  C_11 
REMARK    2  A    between atoms: C_11  and  C_12 
REMARK    3  A    between atoms: C_12  and  N_13 
REMARK    4  A    between atoms: C_12  and  C_21 
REMARK       I    between atoms: N_13  and  C_14 
REMARK    5  A    between atoms: C_14  and  C_15 
REMARK    6  A    between atoms: C_21  and  C_22 
ROOT
HETATM    1  C   UNL     1     -42.564  54.856 -54.968  1.00  0.00     0.181 C 
ENDROOT
BRANCH   1   2
HETATM    2  C   UNL     1     -42.766  56.157 -54.154  1.00  0.00     0.245 C 
HETATM    3  N   UNL     1     -44.082  56.425 -53.827  1.00  0.00    -0.325 N 
HETATM    4  H   UNL     1     -44.754  55.690 -54.052  1.00  0.00     0.169 HD
HETATM    5  O   UNL     1     -41.789  56.834 -53.834  1.00  0.00    -0.271 OA
BRANCH   3   6
HETATM    6  C   UNL     1     -44.601  57.550 -53.156  1.00  0.00     0.037 A 
HETATM    7  C   UNL     1     -45.010  58.723 -53.802  1.00  0.00     0.063 A 
HETATM    8  C   UNL     1     -45.519  59.784 -53.032  1.00  0.00     0.087 A 
HETATM    9  N   UNL     1     -45.968  61.022 -53.428  1.00  0.00    -0.234 NA
HETATM   10  C   UNL     1     -45.616  59.643 -51.654  1.00  0.00     0.062 A 
HETATM   11  C   UNL     1     -46.334  61.638 -52.324  1.00  0.00     0.101 A 
HETATM   12  C   UNL     1     -46.883  63.010 -52.214  1.00  0.00     0.091 C 
HETATM   13  N   UNL     1     -46.145  60.834 -51.228  1.00  0.00    -0.343 N 
HETATM   14  H   UNL     1     -46.353  61.081 -50.273  1.00  0.00     0.167 HD
HETATM   15  C   UNL     1     -45.227  58.491 -50.975  1.00  0.00     0.034 A 
HETATM   16  C   UNL     1     -44.714  57.449 -51.760  1.00  0.00     0.032 A 
ENDBRANCH   3   6
ENDBRANCH   1   2
BRANCH   1  17
HETATM   17  N   UNL     1     -43.252  54.975 -56.260  1.00  0.00    -0.343 N 
HETATM   18  C   UNL     1     -42.991  55.946 -57.202  1.00  0.00     0.259 C 
HETATM   19  O   UNL     1     -42.142  56.811 -56.993  1.00  0.00    -0.267 OA
HETATM   20  H   UNL     1     -44.040  54.361 -56.430  1.00  0.00     0.163 HD
BRANCH  18  21
HETATM   21  C   UNL     1     -43.785  55.891 -58.421  1.00  0.00     0.072 A 
HETATM   22  S   UNL     1     -44.671  57.241 -59.002  1.00  0.00    -0.097 SA
HETATM   23  C   UNL     1     -45.259  56.367 -60.348  1.00  0.00     0.050 A 
HETATM   24  C   UNL     1     -44.794  55.072 -60.365  1.00  0.00     0.009 A 
HETATM   25  C   UNL     1     -43.945  54.798 -59.254  1.00  0.00     0.025 A 
ENDBRANCH  18  21
ENDBRANCH   1  17
BRANCH   1  26
HETATM   26  C   UNL     1     -41.089  54.420 -55.096  1.00  0.00     0.073 C 
BRANCH  26  27
HETATM   27  C   UNL     1     -40.558  53.407 -54.101  1.00  0.00    -0.056 A 
HETATM   28  C   UNL     1     -40.151  52.111 -54.443  1.00  0.00     0.007 A 
HETATM   29  C   UNL     1     -39.709  51.220 -53.460  1.00  0.00     0.001 A 
HETATM   30  C   UNL     1     -39.677  51.605 -52.123  1.00  0.00     0.000 A 
HETATM   31  C   UNL     1     -40.090  52.883 -51.763  1.00  0.00     0.001 A 
HETATM   32  C   UNL     1     -40.529  53.774 -52.743  1.00  0.00     0.007 A 
ENDBRANCH  26  27
ENDBRANCH   1  26
TORSDOF 6
ENDMDL
MODEL 5
REMARK VINA RESULT:      -8.0      2.846      7.276
REMARK  6 active torsions:
REMARK  status: ('A' for Active; 'I' for Inactive)
REMARK    1  A    between atoms: C_9  and  N_10 
REMARK       I    between atoms: N_10  and  C_11 
REMARK    2  A    between atoms: C_11  and  C_12 
REMARK    3  A    between atoms: C_12  and  N_13 
REMARK    4  A    between atoms: C_12  and  C_21 
REMARK       I    between atoms: N_13  and  C_14 
REMARK    5  A    between atoms: C_14  and  C_15 
REMARK    6  A    between atoms: C_21  and  C_22 
ROOT
HETATM    1  C   UNL     1     -42.104  55.582 -53.252  1.00  0.00     0.181 C 
ENDROOT
BRANCH   1   2
HETATM    2  C   UNL     1     -43.028  55.590 -54.494  1.00  0.00     0.245 C 
HETATM    3  N   UNL     1     -42.566  56.363 -55.542  1.00  0.00    -0.325 N 
HETATM    4  H   UNL     1     -41.625  56.745 -55.432  1.00  0.00     0.169 HD
HETATM    5  O   UNL     1     -44.059  54.918 -54.491  1.00  0.00    -0.271 OA
BRANCH   3   6
HETATM    6  C   UNL     1     -43.197  56.627 -56.775  1.00  0.00     0.037 A 
HETATM    7  C   UNL     1     -44.008  57.744 -57.010  1.00  0.00     0.063 A 
HETATM    8  C   UNL     1     -44.584  57.911 -58.282  1.00  0.00     0.087 A 
HETATM    9  N   UNL     1     -45.413  58.905 -58.748  1.00  0.00    -0.234 NA
HETATM   10  C   UNL     1     -44.330  56.976 -59.276  1.00  0.00     0.062 A 
HETATM   11  C   UNL     1     -45.671  58.596 -60.001  1.00  0.00     0.101 A 
HETATM   12  C   UNL     1     -46.528  59.351 -60.944  1.00  0.00     0.091 C 
HETATM   13  N   UNL     1     -45.027  57.438 -60.363  1.00  0.00    -0.343 N 
HETATM   14  H   UNL     1     -45.066  57.001 -61.271  1.00  0.00     0.167 HD
HETATM   15  C   UNL     1     -43.525  55.856 -59.083  1.00  0.00     0.034 A 
HETATM   16  C   UNL     1     -42.966  55.703 -57.807  1.00  0.00     0.032 A 
ENDBRANCH   3   6
ENDBRANCH   1   2
BRANCH   1  17
HETATM   17  N   UNL     1     -41.562  54.231 -53.053  1.00  0.00    -0.343 N 
HETATM   18  C   UNL     1     -40.694  53.598 -53.914  1.00  0.00     0.259 C 
HETATM   19  O   UNL     1     -40.324  54.151 -54.950  1.00  0.00    -0.267 OA
HETATM   20  H   UNL     1     -41.928  53.689 -52.279  1.00  0.00     0.163 HD
BRANCH  18  21
HETATM   21  C   UNL     1     -40.273  52.257 -53.536  1.00  0.00     0.072 A 
HETATM   22  S   UNL     1     -39.686  51.886 -51.967  1.00  0.00    -0.097 SA
HETATM   23  C   UNL     1     -39.440  50.243 -52.370  1.00  0.00     0.050 A 
HETATM   24  C   UNL     1     -39.796  49.972 -53.671  1.00  0.00     0.009 A 
HETATM   25  C   UNL     1     -40.276  51.133 -54.343  1.00  0.00     0.025 A 
ENDBRANCH  18  21
ENDBRANCH   1  17
BRANCH   1  26
HETATM   26  C   UNL     1     -41.020  56.681 -53.270  1.00  0.00     0.073 C 
BRANCH  26  27
HETATM   27  C   UNL     1     -41.201  57.873 -52.351  1.00  0.00    -0.056 A 
HETATM   28  C   UNL     1     -40.650  57.964 -51.067  1.00  0.00     0.007 A 
HETATM   29  C   UNL     1     -40.896  59.082 -50.263  1.00  0.00     0.001 A 
HETATM   30  C   UNL     1     -41.702  60.119 -50.725  1.00  0.00     0.000 A 
HETATM   31  C   UNL     1     -42.268  60.040 -51.993  1.00  0.00     0.001 A 
HETATM   32  C   UNL     1     -42.022  58.926 -52.797  1.00  0.00     0.007 A 
ENDBRANCH  26  27
ENDBRANCH   1  26
TORSDOF 6
ENDMDL
MODEL 6
REMARK VINA RESULT:      -8.0      2.181      6.028
REMARK  6 active torsions:
REMARK  status: ('A' for Active; 'I' for Inactive)
REMARK    1  A    between atoms: C_9  and  N_10 
REMARK       I    between atoms: N_10  and  C_11 
REMARK    2  A    between atoms: C_11  and  C_12 
REMARK    3  A    between atoms: C_12  and  N_13 
REMARK    4  A    between atoms: C_12  and  C_21 
REMARK       I    between atoms: N_13  and  C_14 
REMARK    5  A    between atoms: C_14  and  C_15 
REMARK    6  A    between atoms: C_21  and  C_22 
ROOT
HETATM    1  C   UNL     1     -42.999  57.274 -55.787  1.00  0.00     0.181 C 
ENDROOT
BRANCH   1   2
HETATM    2  C   UNL     1     -42.947  56.153 -54.721  1.00  0.00     0.245 C 
HETATM    3  N   UNL     1     -41.696  55.947 -54.173  1.00  0.00    -0.325 N 
HETATM    4  H   UNL     1     -40.976  56.621 -54.439  1.00  0.00     0.169 HD
HETATM    5  O   UNL     1     -43.978  55.555 -54.415  1.00  0.00    -0.271 OA
BRANCH   3   6
HETATM    6  C   UNL     1     -41.305  54.969 -53.235  1.00  0.00     0.037 A 
HETATM    7  C   UNL     1     -40.793  53.715 -53.585  1.00  0.00     0.063 A 
HETATM    8  C   UNL     1     -40.430  52.818 -52.565  1.00  0.00     0.087 A 
HETATM    9  N   UNL     1     -39.921  51.543 -52.654  1.00  0.00    -0.234 NA
HETATM   10  C   UNL     1     -40.576  53.197 -51.237  1.00  0.00     0.062 A 
HETATM   11  C   UNL     1     -39.757  51.137 -51.413  1.00  0.00     0.101 A 
HETATM   12  C   UNL     1     -39.239  49.821 -50.971  1.00  0.00     0.091 C 
HETATM   13  N   UNL     1     -40.134  52.113 -50.524  1.00  0.00    -0.343 N 
HETATM   14  H   UNL     1     -40.097  52.040 -49.519  1.00  0.00     0.167 HD
HETATM   15  C   UNL     1     -41.075  54.438 -50.848  1.00  0.00     0.034 A 
HETATM   16  C   UNL     1     -41.439  55.314 -51.880  1.00  0.00     0.032 A 
ENDBRANCH   3   6
ENDBRANCH   1   2
BRANCH   1  17
HETATM   17  N   UNL     1     -43.788  56.817 -56.940  1.00  0.00    -0.343 N 
HETATM   18  C   UNL     1     -43.371  56.881 -58.251  1.00  0.00     0.259 C 
HETATM   19  O   UNL     1     -42.275  57.361 -58.539  1.00  0.00    -0.267 OA
HETATM   20  H   UNL     1     -44.742  56.525 -56.768  1.00  0.00     0.163 HD
BRANCH  18  21
HETATM   21  C   UNL     1     -44.303  56.376 -59.249  1.00  0.00     0.072 A 
HETATM   22  S   UNL     1     -45.895  56.994 -59.417  1.00  0.00    -0.097 SA
HETATM   23  C   UNL     1     -46.253  55.922 -60.699  1.00  0.00     0.050 A 
HETATM   24  C   UNL     1     -45.187  55.106 -61.002  1.00  0.00     0.009 A 
HETATM   25  C   UNL     1     -44.064  55.368 -60.166  1.00  0.00     0.025 A 
ENDBRANCH  18  21
ENDBRANCH   1  17
BRANCH   1  26
HETATM   26  C   UNL     1     -43.453  58.642 -55.238  1.00  0.00     0.073 C 
BRANCH  26  27
HETATM   27  C   UNL     1     -43.178  58.949 -53.778  1.00  0.00    -0.056 A 
HETATM   28  C   UNL     1     -44.134  58.841 -52.761  1.00  0.00     0.007 A 
HETATM   29  C   UNL     1     -43.814  59.182 -51.443  1.00  0.00     0.001 A 
HETATM   30  C   UNL     1     -42.541  59.644 -51.123  1.00  0.00     0.000 A 
HETATM   31  C   UNL     1     -41.582  59.770 -52.123  1.00  0.00     0.001 A 
HETATM   32  C   UNL     1     -41.899  59.430 -53.439  1.00  0.00     0.007 A 
ENDBRANCH  26  27
ENDBRANCH   1  26
TORSDOF 6
ENDMDL
MODEL 7
REMARK VINA RESULT:      -8.0      2.814      6.643
REMARK  6 active torsions:
REMARK  status: ('A' for Active; 'I' for Inactive)
REMARK    1  A    between atoms: C_9  and  N_10 
REMARK       I    between atoms: N_10  and  C_11 
REMARK    2  A    between atoms: C_11  and  C_12 
REMARK    3  A    between atoms: C_12  and  N_13 
REMARK    4  A    between atoms: C_12  and  C_21 
REMARK       I    between atoms: N_13  and  C_14 
REMARK    5  A    between atoms: C_14  and  C_15 
REMARK    6  A    between atoms: C_21  and  C_22 
ROOT
HETATM    1  C   UNL     1     -41.621  55.033 -55.250  1.00  0.00     0.181 C 
ENDROOT
BRANCH   1   2
HETATM    2  C   UNL     1     -42.468  55.433 -56.483  1.00  0.00     0.245 C 
HETATM    3  N   UNL     1     -42.152  56.669 -57.013  1.00  0.00    -0.325 N 
HETATM    4  H   UNL     1     -41.330  57.126 -56.616  1.00  0.00     0.169 HD
HETATM    5  O   UNL     1     -43.317  54.655 -56.917  1.00  0.00    -0.271 OA
BRANCH   3   6
HETATM    6  C   UNL     1     -42.774  57.343 -58.084  1.00  0.00     0.037 A 
HETATM    7  C   UNL     1     -44.107  57.770 -58.066  1.00  0.00     0.063 A 
HETATM    8  C   UNL     1     -44.623  58.439 -59.189  1.00  0.00     0.087 A 
HETATM    9  N   UNL     1     -45.885  58.939 -59.413  1.00  0.00    -0.234 NA
HETATM   10  C   UNL     1     -43.802  58.671 -60.284  1.00  0.00     0.062 A 
HETATM   11  C   UNL     1     -45.852  59.467 -60.618  1.00  0.00     0.101 A 
HETATM   12  C   UNL     1     -46.970  60.130 -61.328  1.00  0.00     0.091 C 
HETATM   13  N   UNL     1     -44.605  59.333 -61.177  1.00  0.00    -0.343 N 
HETATM   14  H   UNL     1     -44.330  59.661 -62.090  1.00  0.00     0.167 HD
HETATM   15  C   UNL     1     -42.470  58.268 -60.339  1.00  0.00     0.034 A 
HETATM   16  C   UNL     1     -41.976  57.595 -59.212  1.00  0.00     0.032 A 
ENDBRANCH   3   6
ENDBRANCH   1   2
BRANCH   1  17
HETATM   17  N   UNL     1     -41.499  56.184 -54.346  1.00  0.00    -0.343 N 
HETATM   18  C   UNL     1     -42.477  56.604 -53.472  1.00  0.00     0.259 C 
HETATM   19  O   UNL     1     -43.559  56.019 -53.414  1.00  0.00    -0.267 OA
HETATM   20  H   UNL     1     -40.677  56.769 -54.440  1.00  0.00     0.163 HD
BRANCH  18  21
HETATM   21  C   UNL     1     -42.160  57.769 -52.660  1.00  0.00     0.072 A 
HETATM   22  S   UNL     1     -41.300  57.652 -51.180  1.00  0.00    -0.097 SA
HETATM   23  C   UNL     1     -41.374  59.340 -50.921  1.00  0.00     0.050 A 
HETATM   24  C   UNL     1     -42.038  59.989 -51.936  1.00  0.00     0.009 A 
HETATM   25  C   UNL     1     -42.490  59.084 -52.938  1.00  0.00     0.025 A 
ENDBRANCH  18  21
ENDBRANCH   1  17
BRANCH   1  26
HETATM   26  C   UNL     1     -42.107  53.749 -54.546  1.00  0.00     0.073 C 
BRANCH  26  27
HETATM   27  C   UNL     1     -41.093  52.943 -53.757  1.00  0.00    -0.056 A 
HETATM   28  C   UNL     1     -40.434  51.812 -54.252  1.00  0.00     0.007 A 
HETATM   29  C   UNL     1     -39.540  51.098 -53.447  1.00  0.00     0.001 A 
HETATM   30  C   UNL     1     -39.301  51.496 -52.135  1.00  0.00     0.000 A 
HETATM   31  C   UNL     1     -39.957  52.609 -51.622  1.00  0.00     0.001 A 
HETATM   32  C   UNL     1     -40.848  53.324 -52.424  1.00  0.00     0.007 A 
ENDBRANCH  26  27
ENDBRANCH   1  26
TORSDOF 6
ENDMDL
MODEL 8
REMARK VINA RESULT:      -7.7      2.355      5.531
REMARK  6 active torsions:
REMARK  status: ('A' for Active; 'I' for Inactive)
REMARK    1  A    between atoms: C_9  and  N_10 
REMARK       I    between atoms: N_10  and  C_11 
REMARK    2  A    between atoms: C_11  and  C_12 
REMARK    3  A    between atoms: C_12  and  N_13 
REMARK    4  A    between atoms: C_12  and  C_21 
REMARK       I    between atoms: N_13  and  C_14 
REMARK    5  A    between atoms: C_14  and  C_15 
REMARK    6  A    between atoms: C_21  and  C_22 
ROOT
HETATM    1  C   UNL     1     -42.091  54.979 -55.328  1.00  0.00     0.181 C 
ENDROOT
BRANCH   1   2
HETATM    2  C   UNL     1     -42.613  55.785 -54.114  1.00  0.00     0.245 C 
HETATM    3  N   UNL     1     -41.937  56.967 -53.882  1.00  0.00    -0.325 N 
HETATM    4  H   UNL     1     -41.255  57.236 -54.593  1.00  0.00     0.169 HD
HETATM    5  O   UNL     1     -43.572  55.362 -53.470  1.00  0.00    -0.271 OA
BRANCH   3   6
HETATM    6  C   UNL     1     -42.123  57.886 -52.829  1.00  0.00     0.037 A 
HETATM    7  C   UNL     1     -43.264  58.685 -52.686  1.00  0.00     0.063 A 
HETATM    8  C   UNL     1     -43.346  59.565 -51.592  1.00  0.00     0.087 A 
HETATM    9  N   UNL     1     -44.342  60.447 -51.245  1.00  0.00    -0.234 NA
HETATM   10  C   UNL     1     -42.304  59.614 -50.675  1.00  0.00     0.062 A 
HETATM   11  C   UNL     1     -43.932  61.033 -50.141  1.00  0.00     0.101 A 
HETATM   12  C   UNL     1     -44.649  62.075 -49.370  1.00  0.00     0.091 C 
HETATM   13  N   UNL     1     -42.706  60.551 -49.757  1.00  0.00    -0.343 N 
HETATM   14  H   UNL     1     -42.187  60.842 -48.942  1.00  0.00     0.167 HD
HETATM   15  C   UNL     1     -41.158  58.831 -50.778  1.00  0.00     0.034 A 
HETATM   16  C   UNL     1     -41.091  57.967 -51.880  1.00  0.00     0.032 A 
ENDBRANCH   3   6
ENDBRANCH   1   2
BRANCH   1  17
HETATM   17  N   UNL     1     -41.575  53.682 -54.870  1.00  0.00    -0.343 N 
HETATM   18  C   UNL     1     -40.672  53.514 -53.844  1.00  0.00     0.259 C 
HETATM   19  O   UNL     1     -40.219  54.488 -53.241  1.00  0.00    -0.267 OA
HETATM   20  H   UNL     1     -41.824  52.861 -55.410  1.00  0.00     0.163 HD
BRANCH  18  21
HETATM   21  C   UNL     1     -40.284  52.144 -53.543  1.00  0.00     0.072 A 
HETATM   22  S   UNL     1     -39.666  51.678 -52.013  1.00  0.00    -0.097 SA
HETATM   23  C   UNL     1     -39.484  50.050 -52.501  1.00  0.00     0.050 A 
HETATM   24  C   UNL     1     -39.884  49.855 -53.803  1.00  0.00     0.009 A 
HETATM   25  C   UNL     1     -40.346  51.062 -54.403  1.00  0.00     0.025 A 
ENDBRANCH  18  21
ENDBRANCH   1  17
BRANCH   1  26
HETATM   26  C   UNL     1     -43.105  54.862 -56.486  1.00  0.00     0.073 C 
BRANCH  26  27
HETATM   27  C   UNL     1     -42.973  55.827 -57.648  1.00  0.00    -0.056 A 
HETATM   28  C   UNL     1     -42.488  57.135 -57.529  1.00  0.00     0.007 A 
HETATM   29  C   UNL     1     -42.434  57.980 -58.643  1.00  0.00     0.001 A 
HETATM   30  C   UNL     1     -42.873  57.535 -59.887  1.00  0.00     0.000 A 
HETATM   31  C   UNL     1     -43.369  56.243 -60.020  1.00  0.00     0.001 A 
HETATM   32  C   UNL     1     -43.422  55.398 -58.910  1.00  0.00     0.007 A 
ENDBRANCH  26  27
ENDBRANCH   1  26
TORSDOF 6
ENDMDL
MODEL 9
REMARK VINA RESULT:      -7.7      2.322      3.167
REMARK  6 active torsions:
REMARK  status: ('A' for Active; 'I' for Inactive)
REMARK    1  A    between atoms: C_9  and  N_10 
REMARK       I    between atoms: N_10  and  C_11 
REMARK    2  A    between atoms: C_11  and  C_12 
REMARK    3  A    between atoms: C_12  and  N_13 
REMARK    4  A    between atoms: C_12  and  C_21 
REMARK       I    between atoms: N_13  and  C_14 
REMARK    5  A    between atoms: C_14  and  C_15 
REMARK    6  A    between atoms: C_21  and  C_22 
ROOT
HETATM    1  C   UNL     1     -42.646  57.128 -54.346  1.00  0.00     0.181 C 
ENDROOT
BRANCH   1   2
HETATM    2  C   UNL     1     -43.462  58.191 -53.571  1.00  0.00     0.245 C 
HETATM    3  N   UNL     1     -42.805  58.729 -52.481  1.00  0.00    -0.325 N 
HETATM    4  H   UNL     1     -41.826  58.460 -52.374  1.00  0.00     0.169 HD
HETATM    5  O   UNL     1     -44.585  58.503 -53.965  1.00  0.00    -0.271 OA
BRANCH   3   6
HETATM    6  C   UNL     1     -43.292  59.662 -51.543  1.00  0.00     0.037 A 
HETATM    7  C   UNL     1     -44.457  59.472 -50.790  1.00  0.00     0.063 A 
HETATM    8  C   UNL     1     -44.848  60.467 -49.877  1.00  0.00     0.087 A 
HETATM    9  N   UNL     1     -45.941  60.517 -49.043  1.00  0.00    -0.234 NA
HETATM   10  C   UNL     1     -44.069  61.608 -49.734  1.00  0.00     0.062 A 
HETATM   11  C   UNL     1     -45.847  61.660 -48.398  1.00  0.00     0.101 A 
HETATM   12  C   UNL     1     -46.790  62.188 -47.386  1.00  0.00     0.091 C 
HETATM   13  N   UNL     1     -44.722  62.348 -48.782  1.00  0.00    -0.343 N 
HETATM   14  H   UNL     1     -44.431  63.246 -48.427  1.00  0.00     0.167 HD
HETATM   15  C   UNL     1     -42.901  61.831 -50.460  1.00  0.00     0.034 A 
HETATM   16  C   UNL     1     -42.534  60.831 -51.370  1.00  0.00     0.032 A 
ENDBRANCH   3   6
ENDBRANCH   1   2
BRANCH   1  17
HETATM   17  N   UNL     1     -42.482  57.558 -55.742  1.00  0.00    -0.343 N 
HETATM   18  C   UNL     1     -42.770  56.780 -56.841  1.00  0.00     0.259 C 
HETATM   19  O   UNL     1     -43.181  55.627 -56.704  1.00  0.00    -0.267 OA
HETATM   20  H   UNL     1     -42.036  58.452 -55.908  1.00  0.00     0.163 HD
BRANCH  18  21
HETATM   21  C   UNL     1     -42.538  57.390 -58.142  1.00  0.00     0.072 A 
HETATM   22  S   UNL     1     -42.670  56.509 -59.608  1.00  0.00    -0.097 SA
HETATM   23  C   UNL     1     -42.262  57.876 -60.550  1.00  0.00     0.050 A 
HETATM   24  C   UNL     1     -42.029  58.987 -59.773  1.00  0.00     0.009 A 
HETATM   25  C   UNL     1     -42.188  58.707 -58.385  1.00  0.00     0.025 A 
ENDBRANCH  18  21
ENDBRANCH   1  17
BRANCH   1  26
HETATM   26  C   UNL     1     -41.317  56.739 -53.665  1.00  0.00     0.073 C 
BRANCH  26  27
HETATM   27  C   UNL     1     -40.905  55.280 -53.692  1.00  0.00    -0.056 A 
HETATM   28  C   UNL     1     -40.445  54.616 -54.836  1.00  0.00     0.007 A 
HETATM   29  C   UNL     1     -40.122  53.256 -54.790  1.00  0.00     0.001 A 
HETATM   30  C   UNL     1     -40.261  52.538 -53.605  1.00  0.00     0.000 A 
HETATM   31  C   UNL     1     -40.728  53.178 -52.462  1.00  0.00     0.001 A 
HETATM   32  C   UNL     1     -41.050  54.536 -52.507  1.00  0.00     0.007 A 
ENDBRANCH  26  27
ENDBRANCH   1  26
TORSDOF 6
ENDMDL
MODEL 10
REMARK VINA RESULT:      -7.6      2.471      7.781
REMARK  6 active torsions:
REMARK  status: ('A' for Active; 'I' for Inactive)
REMARK    1  A    between atoms: C_9  and  N_10 
REMARK       I    between atoms: N_10  and  C_11 
REMARK    2  A    between atoms: C_11  and  C_12 
REMARK    3  A    between atoms: C_12  and  N_13 
REMARK    4  A    between atoms: C_12  and  C_21 
REMARK       I    between atoms: N_13  and  C_14 
REMARK    5  A    between atoms: C_14  and  C_15 
REMARK    6  A    between atoms: C_21  and  C_22 
ROOT
HETATM    1  C   UNL     1     -43.287  57.394 -55.156  1.00  0.00     0.181 C 
ENDROOT
BRANCH   1   2
HETATM    2  C   UNL     1     -43.009  55.932 -54.729  1.00  0.00     0.245 C 
HETATM    3  N   UNL     1     -41.703  55.688 -54.353  1.00  0.00    -0.325 N 
HETATM    4  H   UNL     1     -41.098  56.508 -54.285  1.00  0.00     0.169 HD
HETATM    5  O   UNL     1     -43.929  55.115 -54.723  1.00  0.00    -0.271 OA
BRANCH   3   6
HETATM    6  C   UNL     1     -41.119  54.460 -53.978  1.00  0.00     0.037 A 
HETATM    7  C   UNL     1     -41.091  53.981 -52.663  1.00  0.00     0.063 A 
HETATM    8  C   UNL     1     -40.485  52.739 -52.404  1.00  0.00     0.087 A 
HETATM    9  N   UNL     1     -40.325  52.070 -51.213  1.00  0.00    -0.234 NA
HETATM   10  C   UNL     1     -39.940  52.011 -53.453  1.00  0.00     0.062 A 
HETATM   11  C   UNL     1     -39.694  50.954 -51.512  1.00  0.00     0.101 A 
HETATM   12  C   UNL     1     -39.278  49.890 -50.570  1.00  0.00     0.091 C 
HETATM   13  N   UNL     1     -39.449  50.877 -52.860  1.00  0.00    -0.343 N 
HETATM   14  H   UNL     1     -38.982  50.117 -53.332  1.00  0.00     0.167 HD
HETATM   15  C   UNL     1     -39.953  52.451 -54.775  1.00  0.00     0.034 A 
HETATM   16  C   UNL     1     -40.554  53.695 -55.011  1.00  0.00     0.032 A 
ENDBRANCH   3   6
ENDBRANCH   1   2
BRANCH   1  17
HETATM   17  N   UNL     1     -42.929  58.301 -54.056  1.00  0.00    -0.343 N 
HETATM   18  C   UNL     1     -43.671  58.475 -52.909  1.00  0.00     0.259 C 
HETATM   19  O   UNL     1     -44.727  57.863 -52.746  1.00  0.00    -0.267 OA
HETATM   20  H   UNL     1     -42.134  58.914 -54.193  1.00  0.00     0.163 HD
BRANCH  18  21
HETATM   21  C   UNL     1     -43.145  59.423 -51.938  1.00  0.00     0.072 A 
HETATM   22  S   UNL     1     -43.770  61.012 -51.773  1.00  0.00    -0.097 SA
HETATM   23  C   UNL     1     -42.665  61.395 -50.527  1.00  0.00     0.050 A 
HETATM   24  C   UNL     1     -41.833  60.339 -50.233  1.00  0.00     0.009 A 
HETATM   25  C   UNL     1     -42.110  59.203 -51.046  1.00  0.00     0.025 A 
ENDBRANCH  18  21
ENDBRANCH   1  17
BRANCH   1  26
HETATM   26  C   UNL     1     -42.649  57.786 -56.505  1.00  0.00     0.073 C 
BRANCH  26  27
HETATM   27  C   UNL     1     -43.256  57.215 -57.771  1.00  0.00    -0.056 A 
HETATM   28  C   UNL     1     -42.969  55.939 -58.273  1.00  0.00     0.007 A 
HETATM   29  C   UNL     1     -43.540  55.499 -59.471  1.00  0.00     0.001 A 
HETATM   30  C   UNL     1     -44.397  56.328 -60.190  1.00  0.00     0.000 A 
HETATM   31  C   UNL     1     -44.683  57.603 -59.714  1.00  0.00     0.001 A 
HETATM   32  C   UNL     1     -44.115  58.043 -58.518  1.00  0.00     0.007 A 
ENDBRANCH  26  27
ENDBRANCH   1  26
TORSDOF 6
ENDMDL
