MODEL 1
REMARK VINA RESULT:      -7.7      0.000      0.000
REMARK  7 active torsions:
REMARK  status: ('A' for Active; 'I' for Inactive)
REMARK    1  A    between atoms: C_2  and  N_3 
REMARK    2  A    between atoms: C_2  and  C_17 
REMARK       I    between atoms: N_3  and  C_4 
REMARK    3  A    between atoms: C_4  and  C_5 
REMARK    4  A    between atoms: C_7  and  N_8 
REMARK    5  A    between atoms: C_17  and  O_18 
REMARK    6  A    between atoms: C_17  and  C_19 
REMARK    7  A    between atoms: C_22  and  O_23 
ROOT
HETATM    1  N   UNL     1     -43.085  57.250 -55.043  1.00  0.00    -0.349 N 
HETATM    2  C   UNL     1     -42.322  58.253 -55.592  1.00  0.00     0.270 C 
HETATM    3  O   UNL     1     -41.518  58.919 -54.949  1.00  0.00    -0.266 OA
HETATM    4  H   UNL     1     -43.717  56.780 -55.687  1.00  0.00     0.163 HD
ENDROOT
BRANCH   1   5
HETATM    5  C   UNL     1     -42.972  56.741 -53.673  1.00  0.00     0.114 C 
HETATM    6  C   UNL     1     -43.643  57.702 -52.687  1.00  0.00     0.035 C 
BRANCH   5   7
HETATM    7  C   UNL     1     -43.461  55.274 -53.456  1.00  0.00     0.173 C 
BRANCH   7   8
HETATM    8  O   UNL     1     -44.457  54.850 -54.386  1.00  0.00    -0.389 OA
HETATM    9  H   UNL     1     -45.323  55.160 -54.046  1.00  0.00     0.210 HD
ENDBRANCH   7   8
BRANCH   7  10
HETATM   10  C   UNL     1     -42.329  54.265 -53.384  1.00  0.00    -0.028 A 
HETATM   11  C   UNL     1     -41.966  53.541 -54.529  1.00  0.00     0.012 A 
HETATM   12  C   UNL     1     -40.926  52.610 -54.482  1.00  0.00     0.037 A 
HETATM   13  C   UNL     1     -40.227  52.383 -53.297  1.00  0.00     0.068 A 
HETATM   14  C   UNL     1     -40.590  53.085 -52.148  1.00  0.00     0.037 A 
HETATM   15  C   UNL     1     -41.634  54.018 -52.193  1.00  0.00     0.012 A 
BRANCH  13  16
HETATM   16  O   UNL     1     -39.226  51.455 -53.391  1.00  0.00    -0.356 OA
HETATM   17  C   UNL     1     -39.562  50.214 -53.998  1.00  0.00     0.210 C 
ENDBRANCH  13  16
ENDBRANCH   7  10
ENDBRANCH   5   7
ENDBRANCH   1   5
BRANCH   2  18
HETATM   18  C   UNL     1     -42.538  58.476 -57.059  1.00  0.00     0.126 A 
HETATM   19  N   UNL     1     -43.357  57.587 -57.688  1.00  0.00    -0.224 NA
HETATM   20  C   UNL     1     -43.535  57.767 -59.027  1.00  0.00     0.151 A 
HETATM   21  C   UNL     1     -42.924  58.801 -59.740  1.00  0.00     0.052 A 
HETATM   22  C   UNL     1     -42.095  59.691 -59.060  1.00  0.00     0.006 A 
HETATM   23  C   UNL     1     -41.894  59.530 -57.694  1.00  0.00     0.037 A 
BRANCH  20  24
HETATM   24  N   UNL     1     -44.378  56.852 -59.728  1.00  0.00    -0.227 N 
HETATM   25  N   UNL     1     -43.890  55.928 -60.601  1.00  0.00    -0.179 NA
HETATM   26  C   UNL     1     -44.971  55.275 -61.031  1.00  0.00     0.141 A 
HETATM   27  C   UNL     1     -46.159  55.755 -60.458  1.00  0.00     0.040 A 
HETATM   28  C   UNL     1     -45.752  56.769 -59.625  1.00  0.00     0.122 A 
ENDBRANCH  20  24
ENDBRANCH   2  18
TORSDOF 7
ENDMDL
MODEL 2
REMARK VINA RESULT:      -7.5      3.636      8.102
REMARK  7 active torsions:
REMARK  status: ('A' for Active; 'I' for Inactive)
REMARK    1  A    between atoms: C_2  and  N_3 
REMARK    2  A    between atoms: C_2  and  C_17 
REMARK       I    between atoms: N_3  and  C_4 
REMARK    3  A    between atoms: C_4  and  C_5 
REMARK    4  A    between atoms: C_7  and  N_8 
REMARK    5  A    between atoms: C_17  and  O_18 
REMARK    6  A    between atoms: C_17  and  C_19 
REMARK    7  A    between atoms: C_22  and  O_23 
ROOT
HETATM    1  N   UNL     1     -42.123  56.116 -53.769  1.00  0.00    -0.349 N 
HETATM    2  C   UNL     1     -41.386  56.366 -52.636  1.00  0.00     0.270 C 
HETATM    3  O   UNL     1     -41.110  57.495 -52.244  1.00  0.00    -0.266 OA
HETATM    4  H   UNL     1     -42.274  55.134 -53.984  1.00  0.00     0.163 HD
ENDROOT
BRANCH   1   5
HETATM    5  C   UNL     1     -42.790  57.127 -54.596  1.00  0.00     0.114 C 
HETATM    6  C   UNL     1     -42.377  56.977 -56.063  1.00  0.00     0.035 C 
BRANCH   5   7
HETATM    7  C   UNL     1     -44.343  57.201 -54.449  1.00  0.00     0.173 C 
BRANCH   7   8
HETATM    8  O   UNL     1     -44.984  55.926 -54.411  1.00  0.00    -0.389 OA
HETATM    9  H   UNL     1     -44.760  55.463 -55.246  1.00  0.00     0.210 HD
ENDBRANCH   7   8
BRANCH   7  10
HETATM   10  C   UNL     1     -44.799  58.066 -53.288  1.00  0.00    -0.028 A 
HETATM   11  C   UNL     1     -44.785  57.548 -51.985  1.00  0.00     0.012 A 
HETATM   12  C   UNL     1     -45.199  58.330 -50.904  1.00  0.00     0.037 A 
HETATM   13  C   UNL     1     -45.634  59.641 -51.099  1.00  0.00     0.068 A 
HETATM   14  C   UNL     1     -45.667  60.161 -52.393  1.00  0.00     0.037 A 
HETATM   15  C   UNL     1     -45.254  59.377 -53.477  1.00  0.00     0.012 A 
BRANCH  13  16
HETATM   16  O   UNL     1     -46.000  60.299 -49.957  1.00  0.00    -0.356 OA
HETATM   17  C   UNL     1     -45.799  61.706 -49.939  1.00  0.00     0.210 C 
ENDBRANCH  13  16
ENDBRANCH   7  10
ENDBRANCH   5   7
ENDBRANCH   1   5
BRANCH   2  18
HETATM   18  C   UNL     1     -40.940  55.142 -51.894  1.00  0.00     0.126 A 
HETATM   19  N   UNL     1     -40.707  54.032 -52.650  1.00  0.00    -0.224 NA
HETATM   20  C   UNL     1     -40.330  52.908 -51.978  1.00  0.00     0.151 A 
HETATM   21  C   UNL     1     -40.179  52.869 -50.591  1.00  0.00     0.052 A 
HETATM   22  C   UNL     1     -40.425  54.025 -49.853  1.00  0.00     0.006 A 
HETATM   23  C   UNL     1     -40.814  55.186 -50.512  1.00  0.00     0.037 A 
BRANCH  20  24
HETATM   24  N   UNL     1     -40.084  51.719 -52.731  1.00  0.00    -0.227 N 
HETATM   25  N   UNL     1     -39.616  50.575 -52.161  1.00  0.00    -0.179 NA
HETATM   26  C   UNL     1     -39.530  49.711 -53.174  1.00  0.00     0.141 A 
HETATM   27  C   UNL     1     -39.930  50.268 -54.398  1.00  0.00     0.040 A 
HETATM   28  C   UNL     1     -40.281  51.560 -54.088  1.00  0.00     0.122 A 
ENDBRANCH  20  24
ENDBRANCH   2  18
TORSDOF 7
ENDMDL
MODEL 3
REMARK VINA RESULT:      -7.4      4.028      7.671
REMARK  7 active torsions:
REMARK  status: ('A' for Active; 'I' for Inactive)
REMARK    1  A    between atoms: C_2  and  N_3 
REMARK    2  A    between atoms: C_2  and  C_17 
REMARK       I    between atoms: N_3  and  C_4 
REMARK    3  A    between atoms: C_4  and  C_5 
REMARK    4  A    between atoms: C_7  and  N_8 
REMARK    5  A    between atoms: C_17  and  O_18 
REMARK    6  A    between atoms: C_17  and  C_19 
REMARK    7  A    between atoms: C_22  and  O_23 
ROOT
HETATM    1  N   UNL     1     -41.289  57.514 -51.046  1.00  0.00    -0.349 N 
HETATM    2  C   UNL     1     -42.139  56.466 -50.782  1.00  0.00     0.270 C 
HETATM    3  O   UNL     1     -43.359  56.543 -50.885  1.00  0.00    -0.266 OA
HETATM    4  H   UNL     1     -40.300  57.317 -50.915  1.00  0.00     0.163 HD
ENDROOT
BRANCH   1   5
HETATM    5  C   UNL     1     -41.679  58.813 -51.602  1.00  0.00     0.114 C 
HETATM    6  C   UNL     1     -41.318  59.942 -50.630  1.00  0.00     0.035 C 
BRANCH   5   7
HETATM    7  C   UNL     1     -41.155  59.115 -53.041  1.00  0.00     0.173 C 
BRANCH   7   8
HETATM    8  O   UNL     1     -39.734  59.211 -53.134  1.00  0.00    -0.389 OA
HETATM    9  H   UNL     1     -39.529  60.012 -53.660  1.00  0.00     0.210 HD
ENDBRANCH   7   8
BRANCH   7  10
HETATM   10  C   UNL     1     -41.699  58.166 -54.094  1.00  0.00    -0.028 A 
HETATM   11  C   UNL     1     -41.134  56.892 -54.242  1.00  0.00     0.012 A 
HETATM   12  C   UNL     1     -41.624  56.004 -55.204  1.00  0.00     0.037 A 
HETATM   13  C   UNL     1     -42.684  56.368 -56.034  1.00  0.00     0.068 A 
HETATM   14  C   UNL     1     -43.242  57.639 -55.906  1.00  0.00     0.037 A 
HETATM   15  C   UNL     1     -42.752  58.530 -54.943  1.00  0.00     0.012 A 
BRANCH  13  16
HETATM   16  O   UNL     1     -43.073  55.403 -56.923  1.00  0.00    -0.356 OA
HETATM   17  C   UNL     1     -43.096  55.773 -58.295  1.00  0.00     0.210 C 
ENDBRANCH  13  16
ENDBRANCH   7  10
ENDBRANCH   5   7
ENDBRANCH   1   5
BRANCH   2  18
HETATM   18  C   UNL     1     -41.461  55.198 -50.359  1.00  0.00     0.126 A 
HETATM   19  N   UNL     1     -41.132  54.330 -51.357  1.00  0.00    -0.224 NA
HETATM   20  C   UNL     1     -40.542  53.162 -50.975  1.00  0.00     0.151 A 
HETATM   21  C   UNL     1     -40.275  52.848 -49.641  1.00  0.00     0.052 A 
HETATM   22  C   UNL     1     -40.626  53.762 -48.650  1.00  0.00     0.006 A 
HETATM   23  C   UNL     1     -41.231  54.960 -49.010  1.00  0.00     0.037 A 
BRANCH  20  24
HETATM   24  N   UNL     1     -40.188  52.220 -51.989  1.00  0.00    -0.227 N 
HETATM   25  N   UNL     1     -39.709  50.979 -51.699  1.00  0.00    -0.179 NA
HETATM   26  C   UNL     1     -39.510  50.414 -52.891  1.00  0.00     0.141 A 
HETATM   27  C   UNL     1     -39.848  51.262 -53.957  1.00  0.00     0.040 A 
HETATM   28  C   UNL     1     -40.280  52.417 -53.352  1.00  0.00     0.122 A 
ENDBRANCH  20  24
ENDBRANCH   2  18
TORSDOF 7
ENDMDL
MODEL 4
REMARK VINA RESULT:      -7.4      1.890      2.847
REMARK  7 active torsions:
REMARK  status: ('A' for Active; 'I' for Inactive)
REMARK    1  A    between atoms: C_2  and  N_3 
REMARK    2  A    between atoms: C_2  and  C_17 
REMARK       I    between atoms: N_3  and  C_4 
REMARK    3  A    between atoms: C_4  and  C_5 
REMARK    4  A    between atoms: C_7  and  N_8 
REMARK    5  A    between atoms: C_17  and  O_18 
REMARK    6  A    between atoms: C_17  and  C_19 
REMARK    7  A    between atoms: C_22  and  O_23 
ROOT
HETATM    1  N   UNL     1     -43.689  56.270 -56.408  1.00  0.00    -0.349 N 
HETATM    2  C   UNL     1     -43.228  56.680 -57.637  1.00  0.00     0.270 C 
HETATM    3  O   UNL     1     -42.182  57.300 -57.793  1.00  0.00    -0.266 OA
HETATM    4  H   UNL     1     -44.574  55.770 -56.419  1.00  0.00     0.163 HD
ENDROOT
BRANCH   1   5
HETATM    5  C   UNL     1     -42.964  56.388 -55.139  1.00  0.00     0.114 C 
HETATM    6  C   UNL     1     -43.002  57.833 -54.632  1.00  0.00     0.035 C 
BRANCH   5   7
HETATM    7  C   UNL     1     -43.390  55.383 -54.023  1.00  0.00     0.173 C 
BRANCH   7   8
HETATM    8  O   UNL     1     -44.634  54.728 -54.275  1.00  0.00    -0.389 OA
HETATM    9  H   UNL     1     -44.593  54.369 -55.186  1.00  0.00     0.210 HD
ENDBRANCH   7   8
BRANCH   7  10
HETATM   10  C   UNL     1     -42.312  54.373 -53.675  1.00  0.00    -0.028 A 
HETATM   11  C   UNL     1     -41.950  53.391 -54.607  1.00  0.00     0.012 A 
HETATM   12  C   UNL     1     -40.958  52.454 -54.305  1.00  0.00     0.037 A 
HETATM   13  C   UNL     1     -40.308  52.479 -53.071  1.00  0.00     0.068 A 
HETATM   14  C   UNL     1     -40.672  53.441 -52.130  1.00  0.00     0.037 A 
HETATM   15  C   UNL     1     -41.667  54.380 -52.431  1.00  0.00     0.012 A 
BRANCH  13  16
HETATM   16  O   UNL     1     -39.352  51.515 -52.908  1.00  0.00    -0.356 OA
HETATM   17  C   UNL     1     -39.504  50.329 -53.678  1.00  0.00     0.210 C 
ENDBRANCH  13  16
ENDBRANCH   7  10
ENDBRANCH   5   7
ENDBRANCH   1   5
BRANCH   2  18
HETATM   18  C   UNL     1     -44.105  56.305 -58.794  1.00  0.00     0.126 A 
HETATM   19  N   UNL     1     -44.984  57.257 -59.216  1.00  0.00    -0.224 NA
HETATM   20  C   UNL     1     -45.803  56.912 -60.248  1.00  0.00     0.151 A 
HETATM   21  C   UNL     1     -45.764  55.658 -60.861  1.00  0.00     0.052 A 
HETATM   22  C   UNL     1     -44.849  54.712 -60.401  1.00  0.00     0.006 A 
HETATM   23  C   UNL     1     -44.003  55.036 -59.348  1.00  0.00     0.037 A 
BRANCH  20  24
HETATM   24  N   UNL     1     -46.747  57.877 -60.716  1.00  0.00    -0.227 N 
HETATM   25  N   UNL     1     -47.813  57.541 -61.493  1.00  0.00    -0.179 NA
HETATM   26  C   UNL     1     -48.444  58.698 -61.708  1.00  0.00     0.141 A 
HETATM   27  C   UNL     1     -47.810  59.785 -61.087  1.00  0.00     0.040 A 
HETATM   28  C   UNL     1     -46.721  59.233 -60.457  1.00  0.00     0.122 A 
ENDBRANCH  20  24
ENDBRANCH   2  18
TORSDOF 7
ENDMDL
MODEL 5
REMARK VINA RESULT:      -7.3      5.056      8.568
REMARK  7 active torsions:
REMARK  status: ('A' for Active; 'I' for Inactive)
REMARK    1  A    between atoms: C_2  and  N_3 
REMARK    2  A    between atoms: C_2  and  C_17 
REMARK       I    between atoms: N_3  and  C_4 
REMARK    3  A    between atoms: C_4  and  C_5 
REMARK    4  A    between atoms: C_7  and  N_8 
REMARK    5  A    between atoms: C_17  and  O_18 
REMARK    6  A    between atoms: C_17  and  C_19 
REMARK    7  A    between atoms: C_22  and  O_23 
ROOT
HETATM    1  N   UNL     1     -40.863  57.308 -51.930  1.00  0.00    -0.349 N 
HETATM    2  C   UNL     1     -41.439  56.069 -51.779  1.00  0.00     0.270 C 
HETATM    3  O   UNL     1     -42.253  55.805 -50.900  1.00  0.00    -0.266 OA
HETATM    4  H   UNL     1     -40.199  57.391 -52.696  1.00  0.00     0.163 HD
ENDROOT
BRANCH   1   5
HETATM    5  C   UNL     1     -41.213  58.513 -51.172  1.00  0.00     0.114 C 
HETATM    6  C   UNL     1     -39.948  59.227 -50.685  1.00  0.00     0.035 C 
BRANCH   5   7
HETATM    7  C   UNL     1     -42.183  59.504 -51.890  1.00  0.00     0.173 C 
BRANCH   7   8
HETATM    8  O   UNL     1     -42.656  59.040 -53.154  1.00  0.00    -0.389 OA
HETATM    9  H   UNL     1     -43.055  59.808 -53.616  1.00  0.00     0.210 HD
ENDBRANCH   7   8
BRANCH   7  10
HETATM   10  C   UNL     1     -43.339  59.958 -51.017  1.00  0.00    -0.028 A 
HETATM   11  C   UNL     1     -43.180  61.061 -50.167  1.00  0.00     0.012 A 
HETATM   12  C   UNL     1     -44.235  61.494 -49.358  1.00  0.00     0.037 A 
HETATM   13  C   UNL     1     -45.465  60.838 -49.382  1.00  0.00     0.068 A 
HETATM   14  C   UNL     1     -45.629  59.729 -50.212  1.00  0.00     0.037 A 
HETATM   15  C   UNL     1     -44.573  59.294 -51.022  1.00  0.00     0.012 A 
BRANCH  13  16
HETATM   16  O   UNL     1     -46.414  61.369 -48.552  1.00  0.00    -0.356 OA
HETATM   17  C   UNL     1     -46.052  61.521 -47.185  1.00  0.00     0.210 C 
ENDBRANCH  13  16
ENDBRANCH   7  10
ENDBRANCH   5   7
ENDBRANCH   1   5
BRANCH   2  18
HETATM   18  C   UNL     1     -41.003  55.047 -52.785  1.00  0.00     0.126 A 
HETATM   19  N   UNL     1     -40.711  53.808 -52.295  1.00  0.00    -0.224 NA
HETATM   20  C   UNL     1     -40.286  52.883 -53.201  1.00  0.00     0.151 A 
HETATM   21  C   UNL     1     -40.150  53.161 -54.562  1.00  0.00     0.052 A 
HETATM   22  C   UNL     1     -40.459  54.439 -55.024  1.00  0.00     0.006 A 
HETATM   23  C   UNL     1     -40.893  55.404 -54.123  1.00  0.00     0.037 A 
BRANCH  20  24
HETATM   24  N   UNL     1     -39.961  51.574 -52.729  1.00  0.00    -0.227 N 
HETATM   25  N   UNL     1     -39.722  51.308 -51.415  1.00  0.00    -0.179 NA
HETATM   26  C   UNL     1     -39.467  49.998 -51.384  1.00  0.00     0.141 A 
HETATM   27  C   UNL     1     -39.535  49.402 -52.652  1.00  0.00     0.040 A 
HETATM   28  C   UNL     1     -39.852  50.434 -53.500  1.00  0.00     0.122 A 
ENDBRANCH  20  24
ENDBRANCH   2  18
TORSDOF 7
ENDMDL
MODEL 6
REMARK VINA RESULT:      -7.3      1.611      2.096
REMARK  7 active torsions:
REMARK  status: ('A' for Active; 'I' for Inactive)
REMARK    1  A    between atoms: C_2  and  N_3 
REMARK    2  A    between atoms: C_2  and  C_17 
REMARK       I    between atoms: N_3  and  C_4 
REMARK    3  A    between atoms: C_4  and  C_5 
REMARK    4  A    between atoms: C_7  and  N_8 
REMARK    5  A    between atoms: C_17  and  O_18 
REMARK    6  A    between atoms: C_17  and  C_19 
REMARK    7  A    between atoms: C_22  and  O_23 
ROOT
HETATM    1  N   UNL     1     -41.984  57.517 -53.126  1.00  0.00    -0.349 N 
HETATM    2  C   UNL     1     -41.355  58.521 -53.823  1.00  0.00     0.270 C 
HETATM    3  O   UNL     1     -40.295  59.027 -53.470  1.00  0.00    -0.266 OA
HETATM    4  H   UNL     1     -42.861  57.191 -53.525  1.00  0.00     0.163 HD
ENDROOT
BRANCH   1   5
HETATM    5  C   UNL     1     -41.443  56.819 -51.955  1.00  0.00     0.114 C 
HETATM    6  C   UNL     1     -41.406  57.756 -50.743  1.00  0.00     0.035 C 
BRANCH   5   7
HETATM    7  C   UNL     1     -42.129  55.462 -51.602  1.00  0.00     0.173 C 
BRANCH   7   8
HETATM    8  O   UNL     1     -43.496  55.379 -52.008  1.00  0.00    -0.389 OA
HETATM    9  H   UNL     1     -43.526  54.825 -52.816  1.00  0.00     0.210 HD
ENDBRANCH   7   8
BRANCH   7  10
HETATM   10  C   UNL     1     -41.353  54.250 -52.083  1.00  0.00    -0.028 A 
HETATM   11  C   UNL     1     -41.519  53.791 -53.397  1.00  0.00     0.012 A 
HETATM   12  C   UNL     1     -40.810  52.678 -53.857  1.00  0.00     0.037 A 
HETATM   13  C   UNL     1     -39.923  52.003 -53.019  1.00  0.00     0.068 A 
HETATM   14  C   UNL     1     -39.763  52.440 -51.705  1.00  0.00     0.037 A 
HETATM   15  C   UNL     1     -40.473  53.555 -51.242  1.00  0.00     0.012 A 
BRANCH  13  16
HETATM   16  O   UNL     1     -39.287  50.938 -53.597  1.00  0.00    -0.356 OA
HETATM   17  C   UNL     1     -40.094  50.050 -54.358  1.00  0.00     0.210 C 
ENDBRANCH  13  16
ENDBRANCH   7  10
ENDBRANCH   5   7
ENDBRANCH   1   5
BRANCH   2  18
HETATM   18  C   UNL     1     -42.062  58.958 -55.071  1.00  0.00     0.126 A 
HETATM   19  N   UNL     1     -42.480  57.964 -55.905  1.00  0.00    -0.224 NA
HETATM   20  C   UNL     1     -43.097  58.356 -57.054  1.00  0.00     0.151 A 
HETATM   21  C   UNL     1     -43.306  59.697 -57.384  1.00  0.00     0.052 A 
HETATM   22  C   UNL     1     -42.866  60.684 -56.504  1.00  0.00     0.006 A 
HETATM   23  C   UNL     1     -42.231  60.313 -55.325  1.00  0.00     0.037 A 
BRANCH  20  24
HETATM   24  N   UNL     1     -43.543  57.347 -57.962  1.00  0.00    -0.227 N 
HETATM   25  N   UNL     1     -44.533  57.566 -58.871  1.00  0.00    -0.179 NA
HETATM   26  C   UNL     1     -44.648  56.406 -59.521  1.00  0.00     0.141 A 
HETATM   27  C   UNL     1     -43.753  55.431 -59.054  1.00  0.00     0.040 A 
HETATM   28  C   UNL     1     -43.055  56.059 -58.051  1.00  0.00     0.122 A 
ENDBRANCH  20  24
ENDBRANCH   2  18
TORSDOF 7
ENDMDL
MODEL 7
REMARK VINA RESULT:      -7.3      3.922      6.458
REMARK  7 active torsions:
REMARK  status: ('A' for Active; 'I' for Inactive)
REMARK    1  A    between atoms: C_2  and  N_3 
REMARK    2  A    between atoms: C_2  and  C_17 
REMARK       I    between atoms: N_3  and  C_4 
REMARK    3  A    between atoms: C_4  and  C_5 
REMARK    4  A    between atoms: C_7  and  N_8 
REMARK    5  A    between atoms: C_17  and  O_18 
REMARK    6  A    between atoms: C_17  and  C_19 
REMARK    7  A    between atoms: C_22  and  O_23 
ROOT
HETATM    1  N   UNL     1     -42.253  55.919 -53.640  1.00  0.00    -0.349 N 
HETATM    2  C   UNL     1     -42.637  56.041 -52.326  1.00  0.00     0.270 C 
HETATM    3  O   UNL     1     -43.189  55.144 -51.697  1.00  0.00    -0.266 OA
HETATM    4  H   UNL     1     -41.811  56.740 -54.044  1.00  0.00     0.163 HD
ENDROOT
BRANCH   1   5
HETATM    5  C   UNL     1     -42.319  54.692 -54.440  1.00  0.00     0.114 C 
HETATM    6  C   UNL     1     -43.243  54.887 -55.646  1.00  0.00     0.035 C 
BRANCH   5   7
HETATM    7  C   UNL     1     -40.943  54.093 -54.872  1.00  0.00     0.173 C 
BRANCH   7   8
HETATM    8  O   UNL     1     -39.923  55.071 -55.076  1.00  0.00    -0.389 OA
HETATM    9  H   UNL     1     -40.147  55.558 -55.897  1.00  0.00     0.210 HD
ENDBRANCH   7   8
BRANCH   7  10
HETATM   10  C   UNL     1     -40.451  52.988 -53.955  1.00  0.00    -0.028 A 
HETATM   11  C   UNL     1     -40.255  53.248 -52.591  1.00  0.00     0.012 A 
HETATM   12  C   UNL     1     -39.805  52.242 -51.732  1.00  0.00     0.037 A 
HETATM   13  C   UNL     1     -39.542  50.960 -52.214  1.00  0.00     0.068 A 
HETATM   14  C   UNL     1     -39.718  50.694 -53.572  1.00  0.00     0.037 A 
HETATM   15  C   UNL     1     -40.168  51.702 -54.434  1.00  0.00     0.012 A 
BRANCH  13  16
HETATM   16  O   UNL     1     -39.118  50.068 -51.267  1.00  0.00    -0.356 OA
HETATM   17  C   UNL     1     -40.034  49.762 -50.224  1.00  0.00     0.210 C 
ENDBRANCH  13  16
ENDBRANCH   7  10
ENDBRANCH   5   7
ENDBRANCH   1   5
BRANCH   2  18
HETATM   18  C   UNL     1     -42.324  57.367 -51.701  1.00  0.00     0.126 A 
HETATM   19  N   UNL     1     -43.358  58.252 -51.618  1.00  0.00    -0.224 NA
HETATM   20  C   UNL     1     -43.072  59.470 -51.077  1.00  0.00     0.151 A 
HETATM   21  C   UNL     1     -41.799  59.817 -50.622  1.00  0.00     0.052 A 
HETATM   22  C   UNL     1     -40.769  58.884 -50.722  1.00  0.00     0.006 A 
HETATM   23  C   UNL     1     -41.031  57.635 -51.272  1.00  0.00     0.037 A 
BRANCH  20  24
HETATM   24  N   UNL     1     -44.124  60.431 -50.979  1.00  0.00    -0.227 N 
HETATM   25  N   UNL     1     -43.925  61.759 -51.206  1.00  0.00    -0.179 NA
HETATM   26  C   UNL     1     -45.128  62.309 -51.027  1.00  0.00     0.141 A 
HETATM   27  C   UNL     1     -46.110  61.366 -50.686  1.00  0.00     0.040 A 
HETATM   28  C   UNL     1     -45.441  60.167 -50.660  1.00  0.00     0.122 A 
ENDBRANCH  20  24
ENDBRANCH   2  18
TORSDOF 7
ENDMDL
MODEL 8
REMARK VINA RESULT:      -7.2      2.475      3.778
REMARK  7 active torsions:
REMARK  status: ('A' for Active; 'I' for Inactive)
REMARK    1  A    between atoms: C_2  and  N_3 
REMARK    2  A    between atoms: C_2  and  C_17 
REMARK       I    between atoms: N_3  and  C_4 
REMARK    3  A    between atoms: C_4  and  C_5 
REMARK    4  A    between atoms: C_7  and  N_8 
REMARK    5  A    between atoms: C_17  and  O_18 
REMARK    6  A    between atoms: C_17  and  C_19 
REMARK    7  A    between atoms: C_22  and  O_23 
ROOT
HETATM    1  N   UNL     1     -42.735  55.799 -52.626  1.00  0.00    -0.349 N 
HETATM    2  C   UNL     1     -42.314  56.934 -53.276  1.00  0.00     0.270 C 
HETATM    3  O   UNL     1     -41.871  57.920 -52.696  1.00  0.00    -0.266 OA
HETATM    4  H   UNL     1     -43.087  55.057 -53.226  1.00  0.00     0.163 HD
ENDROOT
BRANCH   1   5
HETATM    5  C   UNL     1     -42.606  55.537 -51.189  1.00  0.00     0.114 C 
HETATM    6  C   UNL     1     -43.662  54.526 -50.731  1.00  0.00     0.035 C 
BRANCH   5   7
HETATM    7  C   UNL     1     -41.180  55.127 -50.704  1.00  0.00     0.173 C 
BRANCH   7   8
HETATM    8  O   UNL     1     -41.027  55.126 -49.284  1.00  0.00    -0.389 OA
HETATM    9  H   UNL     1     -40.698  54.238 -49.028  1.00  0.00     0.210 HD
ENDBRANCH   7   8
BRANCH   7  10
HETATM   10  C   UNL     1     -40.694  53.816 -51.297  1.00  0.00    -0.028 A 
HETATM   11  C   UNL     1     -40.558  53.687 -52.686  1.00  0.00     0.012 A 
HETATM   12  C   UNL     1     -40.110  52.489 -53.249  1.00  0.00     0.037 A 
HETATM   13  C   UNL     1     -39.788  51.399 -52.440  1.00  0.00     0.068 A 
HETATM   14  C   UNL     1     -39.935  51.512 -51.058  1.00  0.00     0.037 A 
HETATM   15  C   UNL     1     -40.385  52.711 -50.492  1.00  0.00     0.012 A 
BRANCH  13  16
HETATM   16  O   UNL     1     -39.353  50.293 -53.117  1.00  0.00    -0.356 OA
HETATM   17  C   UNL     1     -40.044  49.965 -54.315  1.00  0.00     0.210 C 
ENDBRANCH  13  16
ENDBRANCH   7  10
ENDBRANCH   5   7
ENDBRANCH   1   5
BRANCH   2  18
HETATM   18  C   UNL     1     -42.429  56.882 -54.770  1.00  0.00     0.126 A 
HETATM   19  N   UNL     1     -42.169  58.044 -55.434  1.00  0.00    -0.224 NA
HETATM   20  C   UNL     1     -42.300  58.010 -56.790  1.00  0.00     0.151 A 
HETATM   21  C   UNL     1     -42.677  56.860 -57.487  1.00  0.00     0.052 A 
HETATM   22  C   UNL     1     -42.932  55.692 -56.772  1.00  0.00     0.006 A 
HETATM   23  C   UNL     1     -42.808  55.697 -55.388  1.00  0.00     0.037 A 
BRANCH  20  24
HETATM   24  N   UNL     1     -42.046  59.208 -57.525  1.00  0.00    -0.227 N 
HETATM   25  N   UNL     1     -41.643  60.362 -56.926  1.00  0.00    -0.179 NA
HETATM   26  C   UNL     1     -41.509  61.229 -57.932  1.00  0.00     0.141 A 
HETATM   27  C   UNL     1     -41.817  60.664 -59.179  1.00  0.00     0.040 A 
HETATM   28  C   UNL     1     -42.161  59.365 -58.892  1.00  0.00     0.122 A 
ENDBRANCH  20  24
ENDBRANCH   2  18
TORSDOF 7
ENDMDL
MODEL 9
REMARK VINA RESULT:      -6.9      4.694      7.964
REMARK  7 active torsions:
REMARK  status: ('A' for Active; 'I' for Inactive)
REMARK    1  A    between atoms: C_2  and  N_3 
REMARK    2  A    between atoms: C_2  and  C_17 
REMARK       I    between atoms: N_3  and  C_4 
REMARK    3  A    between atoms: C_4  and  C_5 
REMARK    4  A    between atoms: C_7  and  N_8 
REMARK    5  A    between atoms: C_17  and  O_18 
REMARK    6  A    between atoms: C_17  and  C_19 
REMARK    7  A    between atoms: C_22  and  O_23 
ROOT
HETATM    1  N   UNL     1     -44.529  58.098 -52.628  1.00  0.00    -0.349 N 
HETATM    2  C   UNL     1     -45.147  58.254 -51.410  1.00  0.00     0.270 C 
HETATM    3  O   UNL     1     -45.291  57.341 -50.604  1.00  0.00    -0.266 OA
HETATM    4  H   UNL     1     -44.481  58.935 -53.204  1.00  0.00     0.163 HD
ENDROOT
BRANCH   1   5
HETATM    5  C   UNL     1     -43.846  56.886 -53.093  1.00  0.00     0.114 C 
HETATM    6  C   UNL     1     -44.368  56.474 -54.473  1.00  0.00     0.035 C 
BRANCH   5   7
HETATM    7  C   UNL     1     -42.286  56.939 -53.069  1.00  0.00     0.173 C 
BRANCH   7   8
HETATM    8  O   UNL     1     -41.743  57.519 -51.882  1.00  0.00    -0.389 OA
HETATM    9  H   UNL     1     -42.368  58.213 -51.585  1.00  0.00     0.210 HD
ENDBRANCH   7   8
BRANCH   7  10
HETATM   10  C   UNL     1     -41.632  55.601 -53.361  1.00  0.00    -0.028 A 
HETATM   11  C   UNL     1     -40.852  55.443 -54.515  1.00  0.00     0.012 A 
HETATM   12  C   UNL     1     -40.240  54.219 -54.798  1.00  0.00     0.037 A 
HETATM   13  C   UNL     1     -40.392  53.132 -53.938  1.00  0.00     0.068 A 
HETATM   14  C   UNL     1     -41.179  53.273 -52.796  1.00  0.00     0.037 A 
HETATM   15  C   UNL     1     -41.794  54.499 -52.511  1.00  0.00     0.012 A 
BRANCH  13  16
HETATM   16  O   UNL     1     -39.732  51.998 -54.326  1.00  0.00    -0.356 OA
HETATM   17  C   UNL     1     -39.591  50.976 -53.349  1.00  0.00     0.210 C 
ENDBRANCH  13  16
ENDBRANCH   7  10
ENDBRANCH   5   7
ENDBRANCH   1   5
BRANCH   2  18
HETATM   18  C   UNL     1     -45.635  59.643 -51.127  1.00  0.00     0.126 A 
HETATM   19  N   UNL     1     -45.544  60.060 -49.832  1.00  0.00    -0.224 NA
HETATM   20  C   UNL     1     -46.013  61.310 -49.563  1.00  0.00     0.151 A 
HETATM   21  C   UNL     1     -46.561  62.142 -50.542  1.00  0.00     0.052 A 
HETATM   22  C   UNL     1     -46.636  61.679 -51.854  1.00  0.00     0.006 A 
HETATM   23  C   UNL     1     -46.167  60.407 -52.158  1.00  0.00     0.037 A 
BRANCH  20  24
HETATM   24  N   UNL     1     -45.945  61.784 -48.217  1.00  0.00    -0.227 N 
HETATM   25  N   UNL     1     -46.781  61.336 -47.240  1.00  0.00    -0.179 NA
HETATM   26  C   UNL     1     -46.399  62.001 -46.147  1.00  0.00     0.141 A 
HETATM   27  C   UNL     1     -45.330  62.876 -46.391  1.00  0.00     0.040 A 
HETATM   28  C   UNL     1     -45.056  62.720 -47.728  1.00  0.00     0.122 A 
ENDBRANCH  20  24
ENDBRANCH   2  18
TORSDOF 7
ENDMDL
MODEL 10
REMARK VINA RESULT:      -6.9     16.136     20.269
REMARK  7 active torsions:
REMARK  status: ('A' for Active; 'I' for Inactive)
REMARK    1  A    between atoms: C_2  and  N_3 
REMARK    2  A    between atoms: C_2  and  C_17 
REMARK       I    between atoms: N_3  and  C_4 
REMARK    3  A    between atoms: C_4  and  C_5 
REMARK    4  A    between atoms: C_7  and  N_8 
REMARK    5  A    between atoms: C_17  and  O_18 
REMARK    6  A    between atoms: C_17  and  C_19 
REMARK    7  A    between atoms: C_22  and  O_23 
ROOT
HETATM    1  N   UNL     1     -33.918  40.164 -52.193  1.00  0.00    -0.349 N 
HETATM    2  C   UNL     1     -32.749  40.302 -51.482  1.00  0.00     0.270 C 
HETATM    3  O   UNL     1     -31.755  40.871 -51.919  1.00  0.00    -0.266 OA
HETATM    4  H   UNL     1     -34.664  39.666 -51.715  1.00  0.00     0.163 HD
ENDROOT
BRANCH   1   5
HETATM    5  C   UNL     1     -34.201  40.770 -53.498  1.00  0.00     0.114 C 
HETATM    6  C   UNL     1     -34.109  39.718 -54.608  1.00  0.00     0.035 C 
BRANCH   5   7
HETATM    7  C   UNL     1     -35.534  41.578 -53.591  1.00  0.00     0.173 C 
BRANCH   7   8
HETATM    8  O   UNL     1     -35.425  42.932 -53.151  1.00  0.00    -0.389 OA
HETATM    9  H   UNL     1     -36.120  43.445 -53.614  1.00  0.00     0.210 HD
ENDBRANCH   7   8
BRANCH   7  10
HETATM   10  C   UNL     1     -36.187  41.510 -54.960  1.00  0.00    -0.028 A 
HETATM   11  C   UNL     1     -35.585  42.149 -56.053  1.00  0.00     0.012 A 
HETATM   12  C   UNL     1     -36.171  42.094 -57.320  1.00  0.00     0.037 A 
HETATM   13  C   UNL     1     -37.365  41.402 -57.523  1.00  0.00     0.068 A 
HETATM   14  C   UNL     1     -37.980  40.777 -56.440  1.00  0.00     0.037 A 
HETATM   15  C   UNL     1     -37.395  40.831 -55.169  1.00  0.00     0.012 A 
BRANCH  13  16
HETATM   16  O   UNL     1     -37.824  41.418 -58.812  1.00  0.00    -0.356 OA
HETATM   17  C   UNL     1     -37.248  42.384 -59.682  1.00  0.00     0.210 C 
ENDBRANCH  13  16
ENDBRANCH   7  10
ENDBRANCH   5   7
ENDBRANCH   1   5
BRANCH   2  18
HETATM   18  C   UNL     1     -32.777  39.704 -50.107  1.00  0.00     0.126 A 
HETATM   19  N   UNL     1     -31.675  39.921 -49.335  1.00  0.00    -0.224 NA
HETATM   20  C   UNL     1     -31.681  39.356 -48.095  1.00  0.00     0.151 A 
HETATM   21  C   UNL     1     -32.748  38.593 -47.616  1.00  0.00     0.052 A 
HETATM   22  C   UNL     1     -33.857  38.395 -48.435  1.00  0.00     0.006 A 
HETATM   23  C   UNL     1     -33.877  38.958 -49.705  1.00  0.00     0.037 A 
BRANCH  20  24
HETATM   24  N   UNL     1     -30.542  39.551 -47.256  1.00  0.00    -0.227 N 
HETATM   25  N   UNL     1     -29.277  39.648 -47.750  1.00  0.00    -0.179 NA
HETATM   26  C   UNL     1     -28.513  39.830 -46.671  1.00  0.00     0.141 A 
HETATM   27  C   UNL     1     -29.253  39.852 -45.480  1.00  0.00     0.040 A 
HETATM   28  C   UNL     1     -30.555  39.669 -45.880  1.00  0.00     0.122 A 
ENDBRANCH  20  24
ENDBRANCH   2  18
TORSDOF 7
ENDMDL
