MODEL 1
REMARK VINA RESULT:      -7.1      0.000      0.000
REMARK  5 active torsions:
REMARK  status: ('A' for Active; 'I' for Inactive)
REMARK    1  A    between atoms: C_2  and  O_3 
REMARK    2  A    between atoms: O_3  and  C_4 
REMARK    3  A    between atoms: C_8  and  N_9 
REMARK       I    between atoms: N_9  and  C_10 
REMARK       I    between atoms: C_10  and  N_11 
REMARK    4  A    between atoms: N_11  and  C_12 
REMARK    5  A    between atoms: C_12  and  C_13 
ROOT
HETATM    1  N   UNL     1     -42.712  55.493 -51.654  1.00  0.00    -0.309 N 
HETATM    2  C   UNL     1     -43.866  55.447 -50.929  1.00  0.00     0.321 C 
HETATM    3  N   UNL     1     -44.677  56.543 -51.070  1.00  0.00    -0.337 N 
HETATM    4  O   UNL     1     -44.239  54.560 -50.172  1.00  0.00    -0.247 OA
HETATM    5  H   UNL     1     -42.375  56.445 -51.777  1.00  0.00     0.170 HD
HETATM    6  H   UNL     1     -45.521  56.476 -50.516  1.00  0.00     0.164 HD
ENDROOT
BRANCH   1   7
HETATM    7  C   UNL     1     -41.756  54.491 -51.929  1.00  0.00     0.042 A 
HETATM    8  C   UNL     1     -40.808  53.953 -51.044  1.00  0.00    -0.033 A 
HETATM    9  C   UNL     1     -39.945  52.935 -51.514  1.00  0.00     0.045 A 
HETATM   10  C   UNL     1     -40.642  54.355 -49.606  1.00  0.00     0.050 C 
HETATM   11  C   UNL     1     -40.046  52.408 -52.803  1.00  0.00     0.069 A 
HETATM   12  C   UNL     1     -41.001  52.927 -53.665  1.00  0.00     0.039 A 
HETATM   13  C   UNL     1     -41.844  53.952 -53.227  1.00  0.00     0.033 A 
BRANCH  11  14
HETATM   14  O   UNL     1     -39.169  51.401 -53.092  1.00  0.00    -0.351 OA
BRANCH  14  15
HETATM   15  C   UNL     1     -39.719  50.087 -53.194  1.00  0.00     0.171 C 
HETATM   16  C   UNL     1     -39.801  49.725 -54.666  1.00  0.00     0.034 C 
ENDBRANCH  14  15
ENDBRANCH  11  14
ENDBRANCH   1   7
BRANCH   3  17
HETATM   17  C   UNL     1     -44.539  57.641 -52.009  1.00  0.00     0.183 C 
BRANCH  17  18
HETATM   18  C   UNL     1     -43.700  58.767 -51.445  1.00  0.00     0.053 A 
HETATM   19  N   UNL     1     -42.347  58.642 -51.554  1.00  0.00    -0.264 NA
HETATM   20  C   UNL     1     -41.582  59.611 -51.003  1.00  0.00     0.118 A 
HETATM   21  C   UNL     1     -42.094  60.716 -50.353  1.00  0.00     0.043 A 
HETATM   22  C   UNL     1     -43.474  60.823 -50.263  1.00  0.00     0.037 A 
HETATM   23 CL   UNL     1     -44.173  62.180 -49.467  1.00  0.00    -0.084 Cl
HETATM   24  C   UNL     1     -44.298  59.844 -50.803  1.00  0.00     0.052 A 
ENDBRANCH  17  18
ENDBRANCH   3  17
TORSDOF 5
ENDMDL
MODEL 2
REMARK VINA RESULT:      -7.1      1.408      2.303
REMARK  5 active torsions:
REMARK  status: ('A' for Active; 'I' for Inactive)
REMARK    1  A    between atoms: C_2  and  O_3 
REMARK    2  A    between atoms: O_3  and  C_4 
REMARK    3  A    between atoms: C_8  and  N_9 
REMARK       I    between atoms: N_9  and  C_10 
REMARK       I    between atoms: C_10  and  N_11 
REMARK    4  A    between atoms: N_11  and  C_12 
REMARK    5  A    between atoms: C_12  and  C_13 
ROOT
HETATM    1  N   UNL     1     -42.645  55.217 -52.142  1.00  0.00    -0.309 N 
HETATM    2  C   UNL     1     -43.669  55.208 -51.241  1.00  0.00     0.321 C 
HETATM    3  N   UNL     1     -44.390  56.370 -51.177  1.00  0.00    -0.337 N 
HETATM    4  O   UNL     1     -43.994  54.297 -50.489  1.00  0.00    -0.247 OA
HETATM    5  H   UNL     1     -42.248  56.147 -52.259  1.00  0.00     0.170 HD
HETATM    6  H   UNL     1     -45.138  56.327 -50.498  1.00  0.00     0.164 HD
ENDROOT
BRANCH   1   7
HETATM    7  C   UNL     1     -41.837  54.168 -52.632  1.00  0.00     0.042 A 
HETATM    8  C   UNL     1     -41.850  53.616 -53.923  1.00  0.00    -0.033 A 
HETATM    9  C   UNL     1     -40.942  52.573 -54.222  1.00  0.00     0.045 A 
HETATM   10  C   UNL     1     -42.746  54.060 -55.044  1.00  0.00     0.050 C 
HETATM   11  C   UNL     1     -39.996  52.121 -53.298  1.00  0.00     0.069 A 
HETATM   12  C   UNL     1     -39.973  52.688 -52.033  1.00  0.00     0.039 A 
HETATM   13  C   UNL     1     -40.881  53.700 -51.710  1.00  0.00     0.033 A 
BRANCH  11  14
HETATM   14  O   UNL     1     -39.162  51.138 -53.753  1.00  0.00    -0.351 OA
BRANCH  14  15
HETATM   15  C   UNL     1     -39.663  49.803 -53.696  1.00  0.00     0.171 C 
HETATM   16  C   UNL     1     -39.619  49.345 -52.249  1.00  0.00     0.034 C 
ENDBRANCH  14  15
ENDBRANCH  11  14
ENDBRANCH   1   7
BRANCH   3  17
HETATM   17  C   UNL     1     -44.305  57.523 -52.056  1.00  0.00     0.183 C 
BRANCH  17  18
HETATM   18  C   UNL     1     -43.547  58.666 -51.420  1.00  0.00     0.053 A 
HETATM   19  N   UNL     1     -44.266  59.776 -51.091  1.00  0.00    -0.264 NA
HETATM   20  C   UNL     1     -43.593  60.830 -50.576  1.00  0.00     0.118 A 
HETATM   21  C   UNL     1     -42.230  60.836 -50.356  1.00  0.00     0.043 A 
HETATM   22  C   UNL     1     -41.522  59.690 -50.691  1.00  0.00     0.037 A 
HETATM   23 CL   UNL     1     -39.822  59.636 -50.436  1.00  0.00    -0.084 Cl
HETATM   24  C   UNL     1     -42.172  58.590 -51.235  1.00  0.00     0.052 A 
ENDBRANCH  17  18
ENDBRANCH   3  17
TORSDOF 5
ENDMDL
MODEL 3
REMARK VINA RESULT:      -7.1     16.306     18.771
REMARK  5 active torsions:
REMARK  status: ('A' for Active; 'I' for Inactive)
REMARK    1  A    between atoms: C_2  and  O_3 
REMARK    2  A    between atoms: O_3  and  C_4 
REMARK    3  A    between atoms: C_8  and  N_9 
REMARK       I    between atoms: N_9  and  C_10 
REMARK       I    between atoms: C_10  and  N_11 
REMARK    4  A    between atoms: N_11  and  C_12 
REMARK    5  A    between atoms: C_12  and  C_13 
ROOT
HETATM    1  N   UNL     1     -36.537  40.920 -58.639  1.00  0.00    -0.309 N 
HETATM    2  C   UNL     1     -37.090  41.495 -59.745  1.00  0.00     0.321 C 
HETATM    3  N   UNL     1     -37.235  40.657 -60.819  1.00  0.00    -0.337 N 
HETATM    4  O   UNL     1     -37.449  42.658 -59.883  1.00  0.00    -0.247 OA
HETATM    5  H   UNL     1     -35.885  40.178 -58.880  1.00  0.00     0.170 HD
HETATM    6  H   UNL     1     -37.645  41.117 -61.620  1.00  0.00     0.164 HD
ENDROOT
BRANCH   1   7
HETATM    7  C   UNL     1     -36.429  41.390 -57.312  1.00  0.00     0.042 A 
HETATM    8  C   UNL     1     -37.420  41.366 -56.317  1.00  0.00    -0.033 A 
HETATM    9  C   UNL     1     -37.103  41.873 -55.035  1.00  0.00     0.045 A 
HETATM   10  C   UNL     1     -38.806  40.816 -56.491  1.00  0.00     0.050 C 
HETATM   11  C   UNL     1     -35.826  42.337 -54.712  1.00  0.00     0.069 A 
HETATM   12  C   UNL     1     -34.845  42.335 -55.692  1.00  0.00     0.039 A 
HETATM   13  C   UNL     1     -35.147  41.864 -56.972  1.00  0.00     0.033 A 
BRANCH  11  14
HETATM   14  O   UNL     1     -35.668  42.755 -53.420  1.00  0.00    -0.351 OA
BRANCH  14  15
HETATM   15  C   UNL     1     -35.578  41.733 -52.427  1.00  0.00     0.171 C 
HETATM   16  C   UNL     1     -34.563  42.174 -51.388  1.00  0.00     0.034 C 
ENDBRANCH  14  15
ENDBRANCH  11  14
ENDBRANCH   1   7
BRANCH   3  17
HETATM   17  C   UNL     1     -37.034  39.220 -60.862  1.00  0.00     0.183 C 
BRANCH  17  18
HETATM   18  C   UNL     1     -38.279  38.486 -61.311  1.00  0.00     0.053 A 
HETATM   19  N   UNL     1     -38.410  38.256 -62.648  1.00  0.00    -0.264 NA
HETATM   20  C   UNL     1     -39.544  37.654 -63.071  1.00  0.00     0.118 A 
HETATM   21  C   UNL     1     -40.561  37.254 -62.228  1.00  0.00     0.043 A 
HETATM   22  C   UNL     1     -40.399  37.492 -60.871  1.00  0.00     0.037 A 
HETATM   23 CL   UNL     1     -41.630  37.012 -59.770  1.00  0.00    -0.084 Cl
HETATM   24  C   UNL     1     -39.255  38.120 -60.394  1.00  0.00     0.052 A 
ENDBRANCH  17  18
ENDBRANCH   3  17
TORSDOF 5
ENDMDL
MODEL 4
REMARK VINA RESULT:      -7.0     16.016     17.927
REMARK  5 active torsions:
REMARK  status: ('A' for Active; 'I' for Inactive)
REMARK    1  A    between atoms: C_2  and  O_3 
REMARK    2  A    between atoms: O_3  and  C_4 
REMARK    3  A    between atoms: C_8  and  N_9 
REMARK       I    between atoms: N_9  and  C_10 
REMARK       I    between atoms: C_10  and  N_11 
REMARK    4  A    between atoms: N_11  and  C_12 
REMARK    5  A    between atoms: C_12  and  C_13 
ROOT
HETATM    1  N   UNL     1     -35.003  40.825 -53.404  1.00  0.00    -0.309 N 
HETATM    2  C   UNL     1     -35.735  41.968 -53.537  1.00  0.00     0.321 C 
HETATM    3  N   UNL     1     -36.801  41.873 -54.391  1.00  0.00    -0.337 N 
HETATM    4  O   UNL     1     -35.535  43.050 -52.999  1.00  0.00    -0.247 OA
HETATM    5  H   UNL     1     -35.011  40.266 -54.254  1.00  0.00     0.170 HD
HETATM    6  H   UNL     1     -37.318  42.740 -54.467  1.00  0.00     0.164 HD
ENDROOT
BRANCH   1   7
HETATM    7  C   UNL     1     -33.992  40.478 -52.482  1.00  0.00     0.042 A 
HETATM    8  C   UNL     1     -32.661  40.134 -52.768  1.00  0.00    -0.033 A 
HETATM    9  C   UNL     1     -31.793  39.835 -51.690  1.00  0.00     0.045 A 
HETATM   10  C   UNL     1     -32.059  40.077 -54.142  1.00  0.00     0.050 C 
HETATM   11  C   UNL     1     -32.200  39.932 -50.358  1.00  0.00     0.069 A 
HETATM   12  C   UNL     1     -33.509  40.296 -50.082  1.00  0.00     0.039 A 
HETATM   13  C   UNL     1     -34.388  40.568 -51.134  1.00  0.00     0.033 A 
BRANCH  11  14
HETATM   14  O   UNL     1     -31.233  39.652 -49.433  1.00  0.00    -0.351 OA
BRANCH  14  15
HETATM   15  C   UNL     1     -31.672  39.478 -48.086  1.00  0.00     0.171 C 
HETATM   16  C   UNL     1     -30.463  39.608 -47.176  1.00  0.00     0.034 C 
ENDBRANCH  14  15
ENDBRANCH  11  14
ENDBRANCH   1   7
BRANCH   3  17
HETATM   17  C   UNL     1     -37.335  40.680 -55.023  1.00  0.00     0.183 C 
BRANCH  17  18
HETATM   18  C   UNL     1     -37.397  40.816 -56.529  1.00  0.00     0.053 A 
HETATM   19  N   UNL     1     -36.839  41.935 -57.071  1.00  0.00    -0.264 NA
HETATM   20  C   UNL     1     -36.938  42.100 -58.409  1.00  0.00     0.118 A 
HETATM   21  C   UNL     1     -37.558  41.197 -59.249  1.00  0.00     0.043 A 
HETATM   22  C   UNL     1     -38.110  40.061 -58.674  1.00  0.00     0.037 A 
HETATM   23 CL   UNL     1     -38.893  38.897 -59.669  1.00  0.00    -0.084 Cl
HETATM   24  C   UNL     1     -38.043  39.859 -57.301  1.00  0.00     0.052 A 
ENDBRANCH  17  18
ENDBRANCH   3  17
TORSDOF 5
ENDMDL
MODEL 5
REMARK VINA RESULT:      -6.9      5.107      6.056
REMARK  5 active torsions:
REMARK  status: ('A' for Active; 'I' for Inactive)
REMARK    1  A    between atoms: C_2  and  O_3 
REMARK    2  A    between atoms: O_3  and  C_4 
REMARK    3  A    between atoms: C_8  and  N_9 
REMARK       I    between atoms: N_9  and  C_10 
REMARK       I    between atoms: C_10  and  N_11 
REMARK    4  A    between atoms: N_11  and  C_12 
REMARK    5  A    between atoms: C_12  and  C_13 
ROOT
HETATM    1  N   UNL     1     -41.781  55.936 -54.713  1.00  0.00    -0.309 N 
HETATM    2  C   UNL     1     -43.058  56.414 -54.686  1.00  0.00     0.321 C 
HETATM    3  N   UNL     1     -43.333  57.375 -55.623  1.00  0.00    -0.337 N 
HETATM    4  O   UNL     1     -43.960  56.094 -53.922  1.00  0.00    -0.247 OA
HETATM    5  H   UNL     1     -41.117  56.640 -55.027  1.00  0.00     0.170 HD
HETATM    6  H   UNL     1     -44.287  57.707 -55.572  1.00  0.00     0.164 HD
ENDROOT
BRANCH   1   7
HETATM    7  C   UNL     1     -41.198  54.824 -54.067  1.00  0.00     0.042 A 
HETATM    8  C   UNL     1     -41.011  54.642 -52.687  1.00  0.00    -0.033 A 
HETATM    9  C   UNL     1     -40.419  53.438 -52.238  1.00  0.00     0.045 A 
HETATM   10  C   UNL     1     -41.415  55.623 -51.625  1.00  0.00     0.050 C 
HETATM   11  C   UNL     1     -40.074  52.406 -53.113  1.00  0.00     0.069 A 
HETATM   12  C   UNL     1     -40.283  52.582 -54.472  1.00  0.00     0.039 A 
HETATM   13  C   UNL     1     -40.842  53.776 -54.938  1.00  0.00     0.033 A 
BRANCH  11  14
HETATM   14  O   UNL     1     -39.551  51.291 -52.519  1.00  0.00    -0.351 OA
BRANCH  14  15
HETATM   15  C   UNL     1     -39.741  51.172 -51.110  1.00  0.00     0.171 C 
HETATM   16  C   UNL     1     -39.731  49.695 -50.756  1.00  0.00     0.034 C 
ENDBRANCH  14  15
ENDBRANCH  11  14
ENDBRANCH   1   7
BRANCH   3  17
HETATM   17  C   UNL     1     -42.497  57.810 -56.727  1.00  0.00     0.183 C 
BRANCH  17  18
HETATM   18  C   UNL     1     -43.011  57.310 -58.059  1.00  0.00     0.053 A 
HETATM   19  N   UNL     1     -43.028  58.204 -59.088  1.00  0.00    -0.264 NA
HETATM   20  C   UNL     1     -43.540  57.791 -60.269  1.00  0.00     0.118 A 
HETATM   21  C   UNL     1     -44.030  56.519 -60.490  1.00  0.00     0.043 A 
HETATM   22  C   UNL     1     -43.993  55.626 -59.429  1.00  0.00     0.037 A 
HETATM   23 CL   UNL     1     -44.586  54.025 -59.643  1.00  0.00    -0.084 Cl
HETATM   24  C   UNL     1     -43.488  56.013 -58.194  1.00  0.00     0.052 A 
ENDBRANCH  17  18
ENDBRANCH   3  17
TORSDOF 5
ENDMDL
MODEL 6
REMARK VINA RESULT:      -6.9     16.026     17.849
REMARK  5 active torsions:
REMARK  status: ('A' for Active; 'I' for Inactive)
REMARK    1  A    between atoms: C_2  and  O_3 
REMARK    2  A    between atoms: O_3  and  C_4 
REMARK    3  A    between atoms: C_8  and  N_9 
REMARK       I    between atoms: N_9  and  C_10 
REMARK       I    between atoms: C_10  and  N_11 
REMARK    4  A    between atoms: N_11  and  C_12 
REMARK    5  A    between atoms: C_12  and  C_13 
ROOT
HETATM    1  N   UNL     1     -35.063  40.832 -53.271  1.00  0.00    -0.309 N 
HETATM    2  C   UNL     1     -35.811  41.943 -53.527  1.00  0.00     0.321 C 
HETATM    3  N   UNL     1     -36.763  41.784 -54.498  1.00  0.00    -0.337 N 
HETATM    4  O   UNL     1     -35.714  43.046 -53.004  1.00  0.00    -0.247 OA
HETATM    5  H   UNL     1     -34.949  40.249 -54.097  1.00  0.00     0.170 HD
HETATM    6  H   UNL     1     -37.296  42.628 -54.663  1.00  0.00     0.164 HD
ENDROOT
BRANCH   1   7
HETATM    7  C   UNL     1     -34.158  40.550 -52.224  1.00  0.00     0.042 A 
HETATM    8  C   UNL     1     -34.466  40.299 -50.877  1.00  0.00    -0.033 A 
HETATM    9  C   UNL     1     -33.406  40.018 -49.982  1.00  0.00     0.045 A 
HETATM   10  C   UNL     1     -35.850  40.279 -50.296  1.00  0.00     0.050 C 
HETATM   11  C   UNL     1     -32.079  39.922 -50.406  1.00  0.00     0.069 A 
HETATM   12  C   UNL     1     -31.784  40.147 -51.742  1.00  0.00     0.039 A 
HETATM   13  C   UNL     1     -32.814  40.454 -52.636  1.00  0.00     0.033 A 
BRANCH  11  14
HETATM   14  O   UNL     1     -31.178  39.602 -49.429  1.00  0.00    -0.351 OA
BRANCH  14  15
HETATM   15  C   UNL     1     -31.716  39.289 -48.145  1.00  0.00     0.171 C 
HETATM   16  C   UNL     1     -30.769  39.835 -47.091  1.00  0.00     0.034 C 
ENDBRANCH  14  15
ENDBRANCH  11  14
ENDBRANCH   1   7
BRANCH   3  17
HETATM   17  C   UNL     1     -37.177  40.554 -55.150  1.00  0.00     0.183 C 
BRANCH  17  18
HETATM   18  C   UNL     1     -37.316  40.725 -56.647  1.00  0.00     0.053 A 
HETATM   19  N   UNL     1     -36.813  41.871 -57.186  1.00  0.00    -0.264 NA
HETATM   20  C   UNL     1     -36.981  42.066 -58.514  1.00  0.00     0.118 A 
HETATM   21  C   UNL     1     -37.619  41.168 -59.345  1.00  0.00     0.043 A 
HETATM   22  C   UNL     1     -38.114  40.005 -58.773  1.00  0.00     0.037 A 
HETATM   23 CL   UNL     1     -38.916  38.845 -59.759  1.00  0.00    -0.084 Cl
HETATM   24  C   UNL     1     -37.975  39.771 -57.411  1.00  0.00     0.052 A 
ENDBRANCH  17  18
ENDBRANCH   3  17
TORSDOF 5
ENDMDL
MODEL 7
REMARK VINA RESULT:      -6.9      2.222      2.597
REMARK  5 active torsions:
REMARK  status: ('A' for Active; 'I' for Inactive)
REMARK    1  A    between atoms: C_2  and  O_3 
REMARK    2  A    between atoms: O_3  and  C_4 
REMARK    3  A    between atoms: C_8  and  N_9 
REMARK       I    between atoms: N_9  and  C_10 
REMARK       I    between atoms: C_10  and  N_11 
REMARK    4  A    between atoms: N_11  and  C_12 
REMARK    5  A    between atoms: C_12  and  C_13 
ROOT
HETATM    1  N   UNL     1     -41.613  56.504 -53.757  1.00  0.00    -0.309 N 
HETATM    2  C   UNL     1     -42.696  56.933 -54.467  1.00  0.00     0.321 C 
HETATM    3  N   UNL     1     -42.698  58.271 -54.761  1.00  0.00    -0.337 N 
HETATM    4  O   UNL     1     -43.652  56.268 -54.847  1.00  0.00    -0.247 OA
HETATM    5  H   UNL     1     -41.249  57.228 -53.142  1.00  0.00     0.170 HD
HETATM    6  H   UNL     1     -43.516  58.553 -55.285  1.00  0.00     0.164 HD
ENDROOT
BRANCH   1   7
HETATM    7  C   UNL     1     -41.163  55.199 -53.461  1.00  0.00     0.042 A 
HETATM    8  C   UNL     1     -41.222  54.538 -52.223  1.00  0.00    -0.033 A 
HETATM    9  C   UNL     1     -40.728  53.215 -52.139  1.00  0.00     0.045 A 
HETATM   10  C   UNL     1     -41.796  55.116 -50.962  1.00  0.00     0.050 C 
HETATM   11  C   UNL     1     -40.244  52.528 -53.254  1.00  0.00     0.069 A 
HETATM   12  C   UNL     1     -40.211  53.178 -54.479  1.00  0.00     0.039 A 
HETATM   13  C   UNL     1     -40.669  54.494 -54.576  1.00  0.00     0.033 A 
BRANCH  11  14
HETATM   14  O   UNL     1     -39.844  51.242 -53.017  1.00  0.00    -0.351 OA
BRANCH  14  15
HETATM   15  C   UNL     1     -39.236  50.988 -51.751  1.00  0.00     0.171 C 
HETATM   16  C   UNL     1     -39.759  49.659 -51.236  1.00  0.00     0.034 C 
ENDBRANCH  14  15
ENDBRANCH  11  14
ENDBRANCH   1   7
BRANCH   3  17
HETATM   17  C   UNL     1     -41.627  59.230 -54.561  1.00  0.00     0.183 C 
BRANCH  17  18
HETATM   18  C   UNL     1     -41.355  59.478 -53.093  1.00  0.00     0.053 A 
HETATM   19  N   UNL     1     -40.154  59.054 -52.609  1.00  0.00    -0.264 NA
HETATM   20  C   UNL     1     -39.919  59.216 -51.287  1.00  0.00     0.118 A 
HETATM   21  C   UNL     1     -40.818  59.792 -50.413  1.00  0.00     0.043 A 
HETATM   22  C   UNL     1     -42.030  60.223 -50.933  1.00  0.00     0.037 A 
HETATM   23 CL   UNL     1     -43.191  60.954 -49.894  1.00  0.00    -0.084 Cl
HETATM   24  C   UNL     1     -42.318  60.065 -52.283  1.00  0.00     0.052 A 
ENDBRANCH  17  18
ENDBRANCH   3  17
TORSDOF 5
ENDMDL
MODEL 8
REMARK VINA RESULT:      -6.9      2.278      2.808
REMARK  5 active torsions:
REMARK  status: ('A' for Active; 'I' for Inactive)
REMARK    1  A    between atoms: C_2  and  O_3 
REMARK    2  A    between atoms: O_3  and  C_4 
REMARK    3  A    between atoms: C_8  and  N_9 
REMARK       I    between atoms: N_9  and  C_10 
REMARK       I    between atoms: C_10  and  N_11 
REMARK    4  A    between atoms: N_11  and  C_12 
REMARK    5  A    between atoms: C_12  and  C_13 
ROOT
HETATM    1  N   UNL     1     -42.304  55.573 -51.161  1.00  0.00    -0.309 N 
HETATM    2  C   UNL     1     -43.605  55.597 -50.751  1.00  0.00     0.321 C 
HETATM    3  N   UNL     1     -44.200  56.830 -50.799  1.00  0.00    -0.337 N 
HETATM    4  O   UNL     1     -44.277  54.660 -50.338  1.00  0.00    -0.247 OA
HETATM    5  H   UNL     1     -41.827  56.450 -50.968  1.00  0.00     0.170 HD
HETATM    6  H   UNL     1     -45.162  56.811 -50.486  1.00  0.00     0.164 HD
ENDROOT
BRANCH   1   7
HETATM    7  C   UNL     1     -41.448  54.487 -51.448  1.00  0.00     0.042 A 
HETATM    8  C   UNL     1     -40.668  53.755 -50.538  1.00  0.00    -0.033 A 
HETATM    9  C   UNL     1     -39.885  52.683 -51.029  1.00  0.00     0.045 A 
HETATM   10  C   UNL     1     -40.609  53.999 -49.058  1.00  0.00     0.050 C 
HETATM   11  C   UNL     1     -39.912  52.294 -52.370  1.00  0.00     0.069 A 
HETATM   12  C   UNL     1     -40.703  53.006 -53.258  1.00  0.00     0.039 A 
HETATM   13  C   UNL     1     -41.462  54.085 -52.798  1.00  0.00     0.033 A 
BRANCH  11  14
HETATM   14  O   UNL     1     -39.132  51.214 -52.678  1.00  0.00    -0.351 OA
BRANCH  14  15
HETATM   15  C   UNL     1     -39.818  50.025 -53.070  1.00  0.00     0.171 C 
HETATM   16  C   UNL     1     -39.602  49.827 -54.560  1.00  0.00     0.034 C 
ENDBRANCH  14  15
ENDBRANCH  11  14
ENDBRANCH   1   7
BRANCH   3  17
HETATM   17  C   UNL     1     -43.677  58.051 -51.385  1.00  0.00     0.183 C 
BRANCH  17  18
HETATM   18  C   UNL     1     -43.534  57.943 -52.887  1.00  0.00     0.053 A 
HETATM   19  N   UNL     1     -42.275  57.758 -53.375  1.00  0.00    -0.264 NA
HETATM   20  C   UNL     1     -42.122  57.718 -54.718  1.00  0.00     0.118 A 
HETATM   21  C   UNL     1     -43.166  57.843 -55.612  1.00  0.00     0.043 A 
HETATM   22  C   UNL     1     -44.439  58.023 -55.090  1.00  0.00     0.037 A 
HETATM   23 CL   UNL     1     -45.781  58.181 -56.155  1.00  0.00    -0.084 Cl
HETATM   24  C   UNL     1     -44.639  58.083 -53.717  1.00  0.00     0.052 A 
ENDBRANCH  17  18
ENDBRANCH   3  17
TORSDOF 5
ENDMDL
MODEL 9
REMARK VINA RESULT:      -6.8      4.522      5.598
REMARK  5 active torsions:
REMARK  status: ('A' for Active; 'I' for Inactive)
REMARK    1  A    between atoms: C_2  and  O_3 
REMARK    2  A    between atoms: O_3  and  C_4 
REMARK    3  A    between atoms: C_8  and  N_9 
REMARK       I    between atoms: N_9  and  C_10 
REMARK       I    between atoms: C_10  and  N_11 
REMARK    4  A    between atoms: N_11  and  C_12 
REMARK    5  A    between atoms: C_12  and  C_13 
ROOT
HETATM    1  N   UNL     1     -41.658  56.449 -54.065  1.00  0.00    -0.309 N 
HETATM    2  C   UNL     1     -41.222  57.738 -53.975  1.00  0.00     0.321 C 
HETATM    3  N   UNL     1     -41.971  58.649 -54.671  1.00  0.00    -0.337 N 
HETATM    4  O   UNL     1     -40.246  58.156 -53.364  1.00  0.00    -0.247 OA
HETATM    5  H   UNL     1     -42.109  56.260 -54.958  1.00  0.00     0.170 HD
HETATM    6  H   UNL     1     -41.617  59.593 -54.583  1.00  0.00     0.164 HD
ENDROOT
BRANCH   1   7
HETATM    7  C   UNL     1     -41.287  55.297 -53.339  1.00  0.00     0.042 A 
HETATM    8  C   UNL     1     -40.649  54.147 -53.833  1.00  0.00    -0.033 A 
HETATM    9  C   UNL     1     -40.345  53.101 -52.930  1.00  0.00     0.045 A 
HETATM   10  C   UNL     1     -40.233  53.936 -55.260  1.00  0.00     0.050 C 
HETATM   11  C   UNL     1     -40.601  53.201 -51.561  1.00  0.00     0.069 A 
HETATM   12  C   UNL     1     -41.209  54.349 -51.075  1.00  0.00     0.039 A 
HETATM   13  C   UNL     1     -41.542  55.382 -51.956  1.00  0.00     0.033 A 
BRANCH  11  14
HETATM   14  O   UNL     1     -40.211  52.124 -50.815  1.00  0.00    -0.351 OA
BRANCH  14  15
HETATM   15  C   UNL     1     -39.510  51.091 -51.508  1.00  0.00     0.171 C 
HETATM   16  C   UNL     1     -39.729  49.789 -50.758  1.00  0.00     0.034 C 
ENDBRANCH  14  15
ENDBRANCH  11  14
ENDBRANCH   1   7
BRANCH   3  17
HETATM   17  C   UNL     1     -43.244  58.436 -55.337  1.00  0.00     0.183 C 
BRANCH  17  18
HETATM   18  C   UNL     1     -43.075  57.754 -56.677  1.00  0.00     0.053 A 
HETATM   19  N   UNL     1     -43.311  56.412 -56.720  1.00  0.00    -0.264 NA
HETATM   20  C   UNL     1     -43.108  55.778 -57.897  1.00  0.00     0.118 A 
HETATM   21  C   UNL     1     -42.690  56.413 -59.048  1.00  0.00     0.043 A 
HETATM   22  C   UNL     1     -42.464  57.780 -58.980  1.00  0.00     0.037 A 
HETATM   23 CL   UNL     1     -41.944  58.629 -60.383  1.00  0.00    -0.084 Cl
HETATM   24  C   UNL     1     -42.647  58.470 -57.788  1.00  0.00     0.052 A 
ENDBRANCH  17  18
ENDBRANCH   3  17
TORSDOF 5
ENDMDL
MODEL 10
REMARK VINA RESULT:      -6.8      2.347      3.052
REMARK  5 active torsions:
REMARK  status: ('A' for Active; 'I' for Inactive)
REMARK    1  A    between atoms: C_2  and  O_3 
REMARK    2  A    between atoms: O_3  and  C_4 
REMARK    3  A    between atoms: C_8  and  N_9 
REMARK       I    between atoms: N_9  and  C_10 
REMARK       I    between atoms: C_10  and  N_11 
REMARK    4  A    between atoms: N_11  and  C_12 
REMARK    5  A    between atoms: C_12  and  C_13 
ROOT
HETATM    1  N   UNL     1     -41.539  57.563 -53.847  1.00  0.00    -0.309 N 
HETATM    2  C   UNL     1     -40.918  58.740 -53.548  1.00  0.00     0.321 C 
HETATM    3  N   UNL     1     -41.691  59.858 -53.720  1.00  0.00    -0.337 N 
HETATM    4  O   UNL     1     -39.766  58.901 -53.167  1.00  0.00    -0.247 OA
HETATM    5  H   UNL     1     -42.234  57.674 -54.582  1.00  0.00     0.170 HD
HETATM    6  H   UNL     1     -41.197  60.711 -53.492  1.00  0.00     0.164 HD
ENDROOT
BRANCH   1   7
HETATM    7  C   UNL     1     -41.153  56.228 -53.600  1.00  0.00     0.042 A 
HETATM    8  C   UNL     1     -41.233  55.530 -52.384  1.00  0.00    -0.033 A 
HETATM    9  C   UNL     1     -40.807  54.181 -52.350  1.00  0.00     0.045 A 
HETATM   10  C   UNL     1     -41.763  56.093 -51.098  1.00  0.00     0.050 C 
HETATM   11  C   UNL     1     -40.372  53.507 -53.494  1.00  0.00     0.069 A 
HETATM   12  C   UNL     1     -40.318  54.196 -54.696  1.00  0.00     0.039 A 
HETATM   13  C   UNL     1     -40.708  55.537 -54.744  1.00  0.00     0.033 A 
BRANCH  11  14
HETATM   14  O   UNL     1     -40.035  52.196 -53.304  1.00  0.00    -0.351 OA
BRANCH  14  15
HETATM   15  C   UNL     1     -40.440  51.282 -54.322  1.00  0.00     0.171 C 
HETATM   16  C   UNL     1     -39.539  50.062 -54.245  1.00  0.00     0.034 C 
ENDBRANCH  14  15
ENDBRANCH  11  14
ENDBRANCH   1   7
BRANCH   3  17
HETATM   17  C   UNL     1     -43.112  59.925 -54.010  1.00  0.00     0.183 C 
BRANCH  17  18
HETATM   18  C   UNL     1     -43.954  59.664 -52.781  1.00  0.00     0.053 A 
HETATM   19  N   UNL     1     -44.230  58.362 -52.488  1.00  0.00    -0.264 NA
HETATM   20  C   UNL     1     -45.030  58.114 -51.426  1.00  0.00     0.118 A 
HETATM   21  C   UNL     1     -45.568  59.101 -50.625  1.00  0.00     0.043 A 
HETATM   22  C   UNL     1     -45.265  60.418 -50.939  1.00  0.00     0.037 A 
HETATM   23 CL   UNL     1     -45.902  61.692 -49.975  1.00  0.00    -0.084 Cl
HETATM   24  C   UNL     1     -44.458  60.718 -52.029  1.00  0.00     0.052 A 
ENDBRANCH  17  18
ENDBRANCH   3  17
TORSDOF 5
ENDMDL
