MODEL 1
REMARK VINA RESULT:      -8.3      0.000      0.000
REMARK  5 active torsions:
REMARK  status: ('A' for Active; 'I' for Inactive)
REMARK    1  A    between atoms: C_9  and  C_10 
REMARK       I    between atoms: C_10  and  N_11 
REMARK    2  A    between atoms: N_11  and  C_12 
REMARK    3  A    between atoms: C_12  and  C_13 
REMARK    4  A    between atoms: C_16  and  N_17 
REMARK       I    between atoms: N_17  and  C_18 
REMARK    5  A    between atoms: C_18  and  C_19 
ROOT
HETATM    1  C   UNL     1     -41.833  57.138 -51.740  1.00  0.00     0.273 C 
HETATM    2  N   UNL     1     -40.974  57.419 -52.779  1.00  0.00    -0.351 N 
HETATM    3  O   UNL     1     -42.855  57.785 -51.523  1.00  0.00    -0.266 OA
HETATM    4  H   UNL     1     -40.224  56.750 -52.927  1.00  0.00     0.163 HD
ENDROOT
BRANCH   2   5
HETATM    5  C   UNL     1     -41.312  58.389 -53.784  1.00  0.00     0.161 C 
BRANCH   5   6
HETATM    6  C   UNL     1     -42.023  57.754 -54.947  1.00  0.00    -0.040 A 
HETATM    7  C   UNL     1     -42.793  58.530 -55.821  1.00  0.00     0.011 A 
HETATM    8  C   UNL     1     -43.451  57.944 -56.908  1.00  0.00     0.030 A 
HETATM    9  C   UNL     1     -43.355  56.571 -57.139  1.00  0.00     0.034 A 
HETATM   10  C   UNL     1     -42.604  55.790 -56.252  1.00  0.00     0.030 A 
HETATM   11  C   UNL     1     -41.949  56.374 -55.163  1.00  0.00     0.011 A 
BRANCH   9  12
HETATM   12  N   UNL     1     -43.966  55.906 -58.223  1.00  0.00    -0.327 N 
HETATM   13  C   UNL     1     -43.439  55.679 -59.485  1.00  0.00     0.225 C 
HETATM   14  O   UNL     1     -42.334  56.037 -59.881  1.00  0.00    -0.273 OA
HETATM   15  H   UNL     1     -44.890  55.535 -58.044  1.00  0.00     0.169 HD
BRANCH  13  16
HETATM   16  C   UNL     1     -44.403  54.899 -60.387  1.00  0.00     0.070 C 
HETATM   17  C   UNL     1     -44.891  53.630 -59.691  1.00  0.00     0.019 C 
HETATM   18  C   UNL     1     -45.593  55.764 -60.798  1.00  0.00     0.019 C 
ENDBRANCH  13  16
ENDBRANCH   9  12
ENDBRANCH   5   6
ENDBRANCH   2   5
BRANCH   1  19
HETATM   19  C   UNL     1     -41.418  55.981 -50.933  1.00  0.00     0.157 A 
HETATM   20  C   UNL     1     -40.983  54.708 -51.410  1.00  0.00     0.029 A 
HETATM   21  C   UNL     1     -40.799  54.105 -52.671  1.00  0.00     0.023 A 
HETATM   22  C   UNL     1     -40.695  53.972 -50.267  1.00  0.00     0.063 A 
HETATM   23  C   UNL     1     -40.331  52.782 -52.745  1.00  0.00    -0.061 A 
HETATM   24  C   UNL     1     -40.124  52.121 -54.077  1.00  0.00     0.048 C 
HETATM   25  C   UNL     1     -40.053  52.076 -51.567  1.00  0.00     0.009 A 
HETATM   26  C   UNL     1     -40.230  52.655 -50.306  1.00  0.00     0.032 A 
HETATM   27  N   UNL     1     -40.965  54.810 -49.223  1.00  0.00    -0.277 N 
HETATM   28  H   UNL     1     -40.867  54.607 -48.234  1.00  0.00     0.189 HD
HETATM   29  N   UNL     1     -41.397  56.031 -49.583  1.00  0.00    -0.168 NA
ENDBRANCH   1  19
TORSDOF 5
ENDMDL
MODEL 2
REMARK VINA RESULT:      -8.0      1.526      2.102
REMARK  5 active torsions:
REMARK  status: ('A' for Active; 'I' for Inactive)
REMARK    1  A    between atoms: C_9  and  C_10 
REMARK       I    between atoms: C_10  and  N_11 
REMARK    2  A    between atoms: N_11  and  C_12 
REMARK    3  A    between atoms: C_12  and  C_13 
REMARK    4  A    between atoms: C_16  and  N_17 
REMARK       I    between atoms: N_17  and  C_18 
REMARK    5  A    between atoms: C_18  and  C_19 
ROOT
HETATM    1  C   UNL     1     -42.900  55.708 -50.550  1.00  0.00     0.273 C 
HETATM    2  N   UNL     1     -42.297  56.908 -50.853  1.00  0.00    -0.351 N 
HETATM    3  O   UNL     1     -44.118  55.543 -50.587  1.00  0.00    -0.266 OA
HETATM    4  H   UNL     1     -41.282  56.895 -50.898  1.00  0.00     0.163 HD
ENDROOT
BRANCH   2   5
HETATM    5  C   UNL     1     -43.049  58.004 -51.400  1.00  0.00     0.161 C 
BRANCH   5   6
HETATM    6  C   UNL     1     -43.207  57.876 -52.889  1.00  0.00    -0.040 A 
HETATM    7  C   UNL     1     -44.474  57.702 -53.459  1.00  0.00     0.011 A 
HETATM    8  C   UNL     1     -44.625  57.590 -54.846  1.00  0.00     0.030 A 
HETATM    9  C   UNL     1     -43.514  57.645 -55.688  1.00  0.00     0.034 A 
HETATM   10  C   UNL     1     -42.244  57.795 -55.117  1.00  0.00     0.030 A 
HETATM   11  C   UNL     1     -42.090  57.904 -53.731  1.00  0.00     0.011 A 
BRANCH   9  12
HETATM   12  N   UNL     1     -43.582  57.564 -57.095  1.00  0.00    -0.327 N 
HETATM   13  C   UNL     1     -43.366  56.450 -57.892  1.00  0.00     0.225 C 
HETATM   14  O   UNL     1     -43.064  55.328 -57.498  1.00  0.00    -0.273 OA
HETATM   15  H   UNL     1     -43.838  58.419 -57.570  1.00  0.00     0.169 HD
BRANCH  13  16
HETATM   16  C   UNL     1     -43.552  56.757 -59.383  1.00  0.00     0.070 C 
HETATM   17  C   UNL     1     -42.237  57.210 -60.013  1.00  0.00     0.019 C 
HETATM   18  C   UNL     1     -44.102  55.542 -60.130  1.00  0.00     0.019 C 
ENDBRANCH  13  16
ENDBRANCH   9  12
ENDBRANCH   5   6
ENDBRANCH   2   5
BRANCH   1  19
HETATM   19  C   UNL     1     -41.947  54.644 -50.201  1.00  0.00     0.157 A 
HETATM   20  C   UNL     1     -41.270  53.763 -51.097  1.00  0.00     0.029 A 
HETATM   21  C   UNL     1     -41.237  53.563 -52.492  1.00  0.00     0.023 A 
HETATM   22  C   UNL     1     -40.478  52.959 -50.286  1.00  0.00     0.063 A 
HETATM   23  C   UNL     1     -40.410  52.562 -53.029  1.00  0.00    -0.061 A 
HETATM   24  C   UNL     1     -40.356  52.333 -54.512  1.00  0.00     0.048 C 
HETATM   25  C   UNL     1     -39.628  51.773 -52.174  1.00  0.00     0.009 A 
HETATM   26  C   UNL     1     -39.647  51.955 -50.787  1.00  0.00     0.032 A 
HETATM   27  N   UNL     1     -40.720  53.386 -49.011  1.00  0.00    -0.277 N 
HETATM   28  H   UNL     1     -40.311  53.025 -48.156  1.00  0.00     0.189 HD
HETATM   29  N   UNL     1     -41.594  54.404 -48.918  1.00  0.00    -0.168 NA
ENDBRANCH   1  19
TORSDOF 5
ENDMDL
MODEL 3
REMARK VINA RESULT:      -7.9      2.852      8.899
REMARK  5 active torsions:
REMARK  status: ('A' for Active; 'I' for Inactive)
REMARK    1  A    between atoms: C_9  and  C_10 
REMARK       I    between atoms: C_10  and  N_11 
REMARK    2  A    between atoms: N_11  and  C_12 
REMARK    3  A    between atoms: C_12  and  C_13 
REMARK    4  A    between atoms: C_16  and  N_17 
REMARK       I    between atoms: N_17  and  C_18 
REMARK    5  A    between atoms: C_18  and  C_19 
ROOT
HETATM    1  C   UNL     1     -43.459  56.755 -57.956  1.00  0.00     0.273 C 
HETATM    2  N   UNL     1     -43.953  56.660 -56.674  1.00  0.00    -0.351 N 
HETATM    3  O   UNL     1     -42.359  57.237 -58.215  1.00  0.00    -0.266 OA
HETATM    4  H   UNL     1     -44.821  56.143 -56.571  1.00  0.00     0.163 HD
ENDROOT
BRANCH   2   5
HETATM    5  C   UNL     1     -43.133  56.967 -55.535  1.00  0.00     0.161 C 
BRANCH   5   6
HETATM    6  C   UNL     1     -42.373  55.759 -55.060  1.00  0.00    -0.040 A 
HETATM    7  C   UNL     1     -40.975  55.735 -55.104  1.00  0.00     0.011 A 
HETATM    8  C   UNL     1     -40.264  54.615 -54.656  1.00  0.00     0.030 A 
HETATM    9  C   UNL     1     -40.938  53.498 -54.161  1.00  0.00     0.034 A 
HETATM   10  C   UNL     1     -42.338  53.513 -54.139  1.00  0.00     0.030 A 
HETATM   11  C   UNL     1     -43.050  54.629 -54.589  1.00  0.00     0.011 A 
BRANCH   9  12
HETATM   12  N   UNL     1     -40.299  52.341 -53.670  1.00  0.00    -0.327 N 
HETATM   13  C   UNL     1     -40.010  52.027 -52.350  1.00  0.00     0.225 C 
HETATM   14  O   UNL     1     -40.259  52.724 -51.372  1.00  0.00    -0.273 OA
HETATM   15  H   UNL     1     -40.042  51.654 -54.366  1.00  0.00     0.169 HD
BRANCH  13  16
HETATM   16  C   UNL     1     -39.323  50.663 -52.213  1.00  0.00     0.070 C 
HETATM   17  C   UNL     1     -39.673  50.010 -50.877  1.00  0.00     0.019 C 
HETATM   18  C   UNL     1     -39.705  49.736 -53.367  1.00  0.00     0.019 C 
ENDBRANCH  13  16
ENDBRANCH   9  12
ENDBRANCH   5   6
ENDBRANCH   2   5
BRANCH   1  19
HETATM   19  C   UNL     1     -44.366  56.206 -58.975  1.00  0.00     0.157 A 
HETATM   20  C   UNL     1     -45.474  56.864 -59.589  1.00  0.00     0.029 A 
HETATM   21  C   UNL     1     -46.085  58.130 -59.490  1.00  0.00     0.023 A 
HETATM   22  C   UNL     1     -45.995  55.937 -60.484  1.00  0.00     0.063 A 
HETATM   23  C   UNL     1     -47.199  58.427 -60.294  1.00  0.00    -0.061 A 
HETATM   24  C   UNL     1     -47.863  59.771 -60.207  1.00  0.00     0.048 C 
HETATM   25  C   UNL     1     -47.693  57.463 -61.182  1.00  0.00     0.009 A 
HETATM   26  C   UNL     1     -47.102  56.199 -61.296  1.00  0.00     0.032 A 
HETATM   27  N   UNL     1     -45.205  54.830 -60.357  1.00  0.00    -0.277 N 
HETATM   28  H   UNL     1     -45.291  53.955 -60.860  1.00  0.00     0.189 HD
HETATM   29  N   UNL     1     -44.209  54.955 -59.461  1.00  0.00    -0.168 NA
ENDBRANCH   1  19
TORSDOF 5
ENDMDL
MODEL 4
REMARK VINA RESULT:      -7.8     14.819     16.572
REMARK  5 active torsions:
REMARK  status: ('A' for Active; 'I' for Inactive)
REMARK    1  A    between atoms: C_9  and  C_10 
REMARK       I    between atoms: C_10  and  N_11 
REMARK    2  A    between atoms: N_11  and  C_12 
REMARK    3  A    between atoms: C_12  and  C_13 
REMARK    4  A    between atoms: C_16  and  N_17 
REMARK       I    between atoms: N_17  and  C_18 
REMARK    5  A    between atoms: C_18  and  C_19 
ROOT
HETATM    1  C   UNL     1     -36.538  41.879 -53.515  1.00  0.00     0.273 C 
HETATM    2  N   UNL     1     -37.162  41.556 -54.699  1.00  0.00    -0.351 N 
HETATM    3  O   UNL     1     -35.798  42.853 -53.392  1.00  0.00    -0.266 OA
HETATM    4  H   UNL     1     -37.836  40.797 -54.652  1.00  0.00     0.163 HD
ENDROOT
BRANCH   2   5
HETATM    5  C   UNL     1     -37.121  42.442 -55.830  1.00  0.00     0.161 C 
BRANCH   5   6
HETATM    6  C   UNL     1     -37.326  41.699 -57.120  1.00  0.00    -0.040 A 
HETATM    7  C   UNL     1     -37.890  40.417 -57.123  1.00  0.00     0.011 A 
HETATM    8  C   UNL     1     -38.090  39.726 -58.324  1.00  0.00     0.030 A 
HETATM    9  C   UNL     1     -37.726  40.300 -59.543  1.00  0.00     0.034 A 
HETATM   10  C   UNL     1     -37.141  41.572 -59.538  1.00  0.00     0.030 A 
HETATM   11  C   UNL     1     -36.937  42.264 -58.340  1.00  0.00     0.011 A 
BRANCH   9  12
HETATM   12  N   UNL     1     -37.914  39.683 -60.796  1.00  0.00    -0.327 N 
HETATM   13  C   UNL     1     -36.969  39.023 -61.568  1.00  0.00     0.225 C 
HETATM   14  O   UNL     1     -35.785  38.874 -61.286  1.00  0.00    -0.273 OA
HETATM   15  H   UNL     1     -38.858  39.711 -61.160  1.00  0.00     0.169 HD
BRANCH  13  16
HETATM   16  C   UNL     1     -37.565  38.465 -62.866  1.00  0.00     0.070 C 
HETATM   17  C   UNL     1     -36.626  37.439 -63.497  1.00  0.00     0.019 C 
HETATM   18  C   UNL     1     -38.937  37.840 -62.618  1.00  0.00     0.019 C 
ENDBRANCH  13  16
ENDBRANCH   9  12
ENDBRANCH   5   6
ENDBRANCH   2   5
BRANCH   1  19
HETATM   19  C   UNL     1     -36.860  40.959 -52.413  1.00  0.00     0.157 A 
HETATM   20  C   UNL     1     -35.960  40.427 -51.442  1.00  0.00     0.029 A 
HETATM   21  C   UNL     1     -34.581  40.534 -51.169  1.00  0.00     0.023 A 
HETATM   22  C   UNL     1     -36.745  39.629 -50.619  1.00  0.00     0.063 A 
HETATM   23  C   UNL     1     -34.034  39.838 -50.078  1.00  0.00    -0.061 A 
HETATM   24  C   UNL     1     -32.569  39.941 -49.767  1.00  0.00     0.048 C 
HETATM   25  C   UNL     1     -34.862  39.044 -49.274  1.00  0.00     0.009 A 
HETATM   26  C   UNL     1     -36.233  38.923 -49.527  1.00  0.00     0.032 A 
HETATM   27  N   UNL     1     -38.011  39.727 -51.125  1.00  0.00    -0.277 N 
HETATM   28  H   UNL     1     -38.847  39.275 -50.773  1.00  0.00     0.189 HD
HETATM   29  N   UNL     1     -38.122  40.523 -52.202  1.00  0.00    -0.168 NA
ENDBRANCH   1  19
TORSDOF 5
ENDMDL
MODEL 5
REMARK VINA RESULT:      -7.8      2.983      7.505
REMARK  5 active torsions:
REMARK  status: ('A' for Active; 'I' for Inactive)
REMARK    1  A    between atoms: C_9  and  C_10 
REMARK       I    between atoms: C_10  and  N_11 
REMARK    2  A    between atoms: N_11  and  C_12 
REMARK    3  A    between atoms: C_12  and  C_13 
REMARK    4  A    between atoms: C_16  and  N_17 
REMARK       I    between atoms: N_17  and  C_18 
REMARK    5  A    between atoms: C_18  and  C_19 
ROOT
HETATM    1  C   UNL     1     -42.006  59.230 -55.289  1.00  0.00     0.273 C 
HETATM    2  N   UNL     1     -43.019  58.342 -55.004  1.00  0.00    -0.351 N 
HETATM    3  O   UNL     1     -41.212  59.634 -54.442  1.00  0.00    -0.266 OA
HETATM    4  H   UNL     1     -43.540  57.993 -55.804  1.00  0.00     0.163 HD
ENDROOT
BRANCH   2   5
HETATM    5  C   UNL     1     -43.107  57.697 -53.723  1.00  0.00     0.161 C 
BRANCH   5   6
HETATM    6  C   UNL     1     -42.507  56.318 -53.757  1.00  0.00    -0.040 A 
HETATM    7  C   UNL     1     -43.327  55.184 -53.725  1.00  0.00     0.011 A 
HETATM    8  C   UNL     1     -42.772  53.899 -53.765  1.00  0.00     0.030 A 
HETATM    9  C   UNL     1     -41.389  53.725 -53.831  1.00  0.00     0.034 A 
HETATM   10  C   UNL     1     -40.568  54.859 -53.839  1.00  0.00     0.030 A 
HETATM   11  C   UNL     1     -41.120  56.144 -53.797  1.00  0.00     0.011 A 
BRANCH   9  12
HETATM   12  N   UNL     1     -40.752  52.469 -53.897  1.00  0.00    -0.327 N 
HETATM   13  C   UNL     1     -39.976  51.859 -52.923  1.00  0.00     0.225 C 
HETATM   14  O   UNL     1     -39.701  52.325 -51.822  1.00  0.00    -0.273 OA
HETATM   15  H   UNL     1     -40.899  51.948 -54.752  1.00  0.00     0.169 HD
BRANCH  13  16
HETATM   16  C   UNL     1     -39.470  50.479 -53.362  1.00  0.00     0.070 C 
HETATM   17  C   UNL     1     -39.583  49.470 -52.220  1.00  0.00     0.019 C 
HETATM   18  C   UNL     1     -40.236  49.976 -54.585  1.00  0.00     0.019 C 
ENDBRANCH  13  16
ENDBRANCH   9  12
ENDBRANCH   5   6
ENDBRANCH   2   5
BRANCH   1  19
HETATM   19  C   UNL     1     -41.955  59.627 -56.704  1.00  0.00     0.157 A 
HETATM   20  C   UNL     1     -42.215  58.805 -57.842  1.00  0.00     0.029 A 
HETATM   21  C   UNL     1     -42.570  57.459 -58.061  1.00  0.00     0.023 A 
HETATM   22  C   UNL     1     -42.051  59.642 -58.939  1.00  0.00     0.063 A 
HETATM   23  C   UNL     1     -42.752  56.995 -59.375  1.00  0.00    -0.061 A 
HETATM   24  C   UNL     1     -43.134  55.566 -59.632  1.00  0.00     0.048 C 
HETATM   25  C   UNL     1     -42.576  57.873 -60.453  1.00  0.00     0.009 A 
HETATM   26  C   UNL     1     -42.222  59.213 -60.257  1.00  0.00     0.032 A 
HETATM   27  N   UNL     1     -41.717  60.859 -58.416  1.00  0.00    -0.277 N 
HETATM   28  H   UNL     1     -41.524  61.713 -58.927  1.00  0.00     0.189 HD
HETATM   29  N   UNL     1     -41.655  60.893 -57.073  1.00  0.00    -0.168 NA
ENDBRANCH   1  19
TORSDOF 5
ENDMDL
MODEL 6
REMARK VINA RESULT:      -7.6      4.122      7.209
REMARK  5 active torsions:
REMARK  status: ('A' for Active; 'I' for Inactive)
REMARK    1  A    between atoms: C_9  and  C_10 
REMARK       I    between atoms: C_10  and  N_11 
REMARK    2  A    between atoms: N_11  and  C_12 
REMARK    3  A    between atoms: C_12  and  C_13 
REMARK    4  A    between atoms: C_16  and  N_17 
REMARK       I    between atoms: N_17  and  C_18 
REMARK    5  A    between atoms: C_18  and  C_19 
ROOT
HETATM    1  C   UNL     1     -40.954  55.180 -52.935  1.00  0.00     0.273 C 
HETATM    2  N   UNL     1     -41.657  56.214 -52.360  1.00  0.00    -0.351 N 
HETATM    3  O   UNL     1     -40.602  55.184 -54.113  1.00  0.00    -0.266 OA
HETATM    4  H   UNL     1     -41.795  56.151 -51.355  1.00  0.00     0.163 HD
ENDROOT
BRANCH   2   5
HETATM    5  C   UNL     1     -41.877  57.448 -53.062  1.00  0.00     0.161 C 
BRANCH   5   6
HETATM    6  C   UNL     1     -42.551  58.468 -52.187  1.00  0.00    -0.040 A 
HETATM    7  C   UNL     1     -41.793  59.341 -51.397  1.00  0.00     0.011 A 
HETATM    8  C   UNL     1     -42.417  60.298 -50.587  1.00  0.00     0.030 A 
HETATM    9  C   UNL     1     -43.808  60.396 -50.547  1.00  0.00     0.034 A 
HETATM   10  C   UNL     1     -44.567  59.507 -51.319  1.00  0.00     0.030 A 
HETATM   11  C   UNL     1     -43.946  58.549 -52.127  1.00  0.00     0.011 A 
BRANCH   9  12
HETATM   12  N   UNL     1     -44.513  61.344 -49.778  1.00  0.00    -0.327 N 
HETATM   13  C   UNL     1     -45.486  61.104 -48.819  1.00  0.00     0.225 C 
HETATM   14  O   UNL     1     -45.910  60.004 -48.481  1.00  0.00    -0.273 OA
HETATM   15  H   UNL     1     -44.260  62.310 -49.936  1.00  0.00     0.169 HD
BRANCH  13  16
HETATM   16  C   UNL     1     -46.007  62.398 -48.182  1.00  0.00     0.070 C 
HETATM   17  C   UNL     1     -46.738  62.105 -46.873  1.00  0.00     0.019 C 
HETATM   18  C   UNL     1     -44.868  63.388 -47.938  1.00  0.00     0.019 C 
ENDBRANCH  13  16
ENDBRANCH   9  12
ENDBRANCH   5   6
ENDBRANCH   2   5
BRANCH   1  19
HETATM   19  C   UNL     1     -40.650  54.086 -52.000  1.00  0.00     0.157 A 
HETATM   20  C   UNL     1     -40.310  52.739 -52.328  1.00  0.00     0.029 A 
HETATM   21  C   UNL     1     -40.150  51.992 -53.513  1.00  0.00     0.023 A 
HETATM   22  C   UNL     1     -40.105  52.109 -51.107  1.00  0.00     0.063 A 
HETATM   23  C   UNL     1     -39.789  50.637 -53.434  1.00  0.00    -0.061 A 
HETATM   24  C   UNL     1     -39.610  49.823 -54.683  1.00  0.00     0.048 C 
HETATM   25  C   UNL     1     -39.593  50.041 -52.181  1.00  0.00     0.009 A 
HETATM   26  C   UNL     1     -39.747  50.764 -50.993  1.00  0.00     0.032 A 
HETATM   27  N   UNL     1     -40.326  53.073 -50.164  1.00  0.00    -0.277 N 
HETATM   28  H   UNL     1     -40.265  52.970 -49.157  1.00  0.00     0.189 HD
HETATM   29  N   UNL     1     -40.652  54.279 -50.662  1.00  0.00    -0.168 NA
ENDBRANCH   1  19
TORSDOF 5
ENDMDL
MODEL 7
REMARK VINA RESULT:      -7.5      3.570      5.084
REMARK  5 active torsions:
REMARK  status: ('A' for Active; 'I' for Inactive)
REMARK    1  A    between atoms: C_9  and  C_10 
REMARK       I    between atoms: C_10  and  N_11 
REMARK    2  A    between atoms: N_11  and  C_12 
REMARK    3  A    between atoms: C_12  and  C_13 
REMARK    4  A    between atoms: C_16  and  N_17 
REMARK       I    between atoms: N_17  and  C_18 
REMARK    5  A    between atoms: C_18  and  C_19 
ROOT
HETATM    1  C   UNL     1     -42.752  54.497 -55.344  1.00  0.00     0.273 C 
HETATM    2  N   UNL     1     -42.388  55.634 -56.031  1.00  0.00    -0.351 N 
HETATM    3  O   UNL     1     -43.602  53.710 -55.755  1.00  0.00    -0.266 OA
HETATM    4  H   UNL     1     -41.598  56.147 -55.651  1.00  0.00     0.163 HD
ENDROOT
BRANCH   2   5
HETATM    5  C   UNL     1     -42.863  55.885 -57.363  1.00  0.00     0.161 C 
BRANCH   5   6
HETATM    6  C   UNL     1     -42.670  57.323 -57.757  1.00  0.00    -0.040 A 
HETATM    7  C   UNL     1     -42.312  57.661 -59.067  1.00  0.00     0.011 A 
HETATM    8  C   UNL     1     -42.138  59.000 -59.438  1.00  0.00     0.030 A 
HETATM    9  C   UNL     1     -42.314  60.024 -58.507  1.00  0.00     0.034 A 
HETATM   10  C   UNL     1     -42.650  59.684 -57.190  1.00  0.00     0.030 A 
HETATM   11  C   UNL     1     -42.821  58.347 -56.816  1.00  0.00     0.011 A 
BRANCH   9  12
HETATM   12  N   UNL     1     -42.182  61.396 -58.803  1.00  0.00    -0.327 N 
HETATM   13  C   UNL     1     -41.037  62.174 -58.729  1.00  0.00     0.225 C 
HETATM   14  O   UNL     1     -39.926  61.791 -58.375  1.00  0.00    -0.273 OA
HETATM   15  H   UNL     1     -43.023  61.856 -59.128  1.00  0.00     0.169 HD
BRANCH  13  16
HETATM   16  C   UNL     1     -41.290  63.625 -59.154  1.00  0.00     0.070 C 
HETATM   17  C   UNL     1     -40.972  64.589 -58.013  1.00  0.00     0.019 C 
HETATM   18  C   UNL     1     -40.470  63.987 -60.392  1.00  0.00     0.019 C 
ENDBRANCH  13  16
ENDBRANCH   9  12
ENDBRANCH   5   6
ENDBRANCH   2   5
BRANCH   1  19
HETATM   19  C   UNL     1     -42.010  54.309 -54.088  1.00  0.00     0.157 A 
HETATM   20  C   UNL     1     -41.173  53.208 -53.737  1.00  0.00     0.029 A 
HETATM   21  C   UNL     1     -40.766  52.006 -54.350  1.00  0.00     0.023 A 
HETATM   22  C   UNL     1     -40.698  53.505 -52.465  1.00  0.00     0.063 A 
HETATM   23  C   UNL     1     -39.894  51.140 -53.669  1.00  0.00    -0.061 A 
HETATM   24  C   UNL     1     -39.445  49.856 -54.305  1.00  0.00     0.048 C 
HETATM   25  C   UNL     1     -39.439  51.478 -52.387  1.00  0.00     0.009 A 
HETATM   26  C   UNL     1     -39.832  52.666 -51.760  1.00  0.00     0.032 A 
HETATM   27  N   UNL     1     -41.255  54.711 -52.146  1.00  0.00    -0.277 N 
HETATM   28  H   UNL     1     -41.128  55.236 -51.289  1.00  0.00     0.189 HD
HETATM   29  N   UNL     1     -42.048  55.231 -53.100  1.00  0.00    -0.168 NA
ENDBRANCH   1  19
TORSDOF 5
ENDMDL
MODEL 8
REMARK VINA RESULT:      -7.4      4.129      7.424
REMARK  5 active torsions:
REMARK  status: ('A' for Active; 'I' for Inactive)
REMARK    1  A    between atoms: C_9  and  C_10 
REMARK       I    between atoms: C_10  and  N_11 
REMARK    2  A    between atoms: N_11  and  C_12 
REMARK    3  A    between atoms: C_12  and  C_13 
REMARK    4  A    between atoms: C_16  and  N_17 
REMARK       I    between atoms: N_17  and  C_18 
REMARK    5  A    between atoms: C_18  and  C_19 
ROOT
HETATM    1  C   UNL     1     -42.994  59.157 -52.248  1.00  0.00     0.273 C 
HETATM    2  N   UNL     1     -43.414  58.064 -52.973  1.00  0.00    -0.351 N 
HETATM    3  O   UNL     1     -41.958  59.768 -52.499  1.00  0.00    -0.266 OA
HETATM    4  H   UNL     1     -44.339  57.710 -52.745  1.00  0.00     0.163 HD
ENDROOT
BRANCH   2   5
HETATM    5  C   UNL     1     -42.747  57.672 -54.183  1.00  0.00     0.161 C 
BRANCH   5   6
HETATM    6  C   UNL     1     -42.188  56.280 -54.079  1.00  0.00    -0.040 A 
HETATM    7  C   UNL     1     -42.779  55.337 -53.230  1.00  0.00     0.011 A 
HETATM    8  C   UNL     1     -42.266  54.038 -53.135  1.00  0.00     0.030 A 
HETATM    9  C   UNL     1     -41.150  53.659 -53.884  1.00  0.00     0.034 A 
HETATM   10  C   UNL     1     -40.545  54.609 -54.716  1.00  0.00     0.030 A 
HETATM   11  C   UNL     1     -41.054  55.909 -54.809  1.00  0.00     0.011 A 
BRANCH   9  12
HETATM   12  N   UNL     1     -40.586  52.367 -53.865  1.00  0.00    -0.327 N 
HETATM   13  C   UNL     1     -39.825  51.788 -52.861  1.00  0.00     0.225 C 
HETATM   14  O   UNL     1     -39.501  52.319 -51.804  1.00  0.00    -0.273 OA
HETATM   15  H   UNL     1     -40.779  51.794 -54.676  1.00  0.00     0.169 HD
BRANCH  13  16
HETATM   16  C   UNL     1     -39.407  50.353 -53.202  1.00  0.00     0.070 C 
HETATM   17  C   UNL     1     -39.685  49.412 -52.030  1.00  0.00     0.019 C 
HETATM   18  C   UNL     1     -40.123  49.854 -54.457  1.00  0.00     0.019 C 
ENDBRANCH  13  16
ENDBRANCH   9  12
ENDBRANCH   5   6
ENDBRANCH   2   5
BRANCH   1  19
HETATM   19  C   UNL     1     -43.915  59.529 -51.163  1.00  0.00     0.157 A 
HETATM   20  C   UNL     1     -43.964  60.770 -50.460  1.00  0.00     0.029 A 
HETATM   21  C   UNL     1     -43.252  61.986 -50.496  1.00  0.00     0.023 A 
HETATM   22  C   UNL     1     -45.005  60.631 -49.550  1.00  0.00     0.063 A 
HETATM   23  C   UNL     1     -43.607  63.024 -49.619  1.00  0.00    -0.061 A 
HETATM   24  C   UNL     1     -42.864  64.329 -49.642  1.00  0.00     0.048 C 
HETATM   25  C   UNL     1     -44.663  62.841 -48.716  1.00  0.00     0.009 A 
HETATM   26  C   UNL     1     -45.383  61.642 -48.663  1.00  0.00     0.032 A 
HETATM   27  N   UNL     1     -45.493  59.371 -49.753  1.00  0.00    -0.277 N 
HETATM   28  H   UNL     1     -46.261  58.926 -49.263  1.00  0.00     0.189 HD
HETATM   29  N   UNL     1     -44.867  58.677 -50.720  1.00  0.00    -0.168 NA
ENDBRANCH   1  19
TORSDOF 5
ENDMDL
MODEL 9
REMARK VINA RESULT:      -7.3     15.206     18.993
REMARK  5 active torsions:
REMARK  status: ('A' for Active; 'I' for Inactive)
REMARK    1  A    between atoms: C_9  and  C_10 
REMARK       I    between atoms: C_10  and  N_11 
REMARK    2  A    between atoms: N_11  and  C_12 
REMARK    3  A    between atoms: C_12  and  C_13 
REMARK    4  A    between atoms: C_16  and  N_17 
REMARK       I    between atoms: N_17  and  C_18 
REMARK    5  A    between atoms: C_18  and  C_19 
ROOT
HETATM    1  C   UNL     1     -37.663  39.992 -59.711  1.00  0.00     0.273 C 
HETATM    2  N   UNL     1     -36.863  41.105 -59.570  1.00  0.00    -0.351 N 
HETATM    3  O   UNL     1     -38.612  39.753 -58.968  1.00  0.00    -0.266 OA
HETATM    4  H   UNL     1     -36.181  41.256 -60.308  1.00  0.00     0.163 HD
ENDROOT
BRANCH   2   5
HETATM    5  C   UNL     1     -37.195  42.149 -58.642  1.00  0.00     0.161 C 
BRANCH   5   6
HETATM    6  C   UNL     1     -36.446  41.995 -57.347  1.00  0.00    -0.040 A 
HETATM    7  C   UNL     1     -35.110  41.579 -57.342  1.00  0.00     0.011 A 
HETATM    8  C   UNL     1     -34.408  41.442 -56.138  1.00  0.00     0.030 A 
HETATM    9  C   UNL     1     -35.030  41.712 -54.919  1.00  0.00     0.034 A 
HETATM   10  C   UNL     1     -36.374  42.106 -54.922  1.00  0.00     0.030 A 
HETATM   11  C   UNL     1     -37.078  42.241 -56.123  1.00  0.00     0.011 A 
BRANCH   9  12
HETATM   12  N   UNL     1     -34.389  41.622 -53.666  1.00  0.00    -0.327 N 
HETATM   13  C   UNL     1     -34.517  40.618 -52.718  1.00  0.00     0.225 C 
HETATM   14  O   UNL     1     -35.233  39.626 -52.810  1.00  0.00    -0.273 OA
HETATM   15  H   UNL     1     -33.746  42.372 -53.448  1.00  0.00     0.169 HD
BRANCH  13  16
HETATM   16  C   UNL     1     -33.639  40.866 -51.486  1.00  0.00     0.070 C 
HETATM   17  C   UNL     1     -34.065  39.969 -50.325  1.00  0.00     0.019 C 
HETATM   18  C   UNL     1     -32.162  40.641 -51.808  1.00  0.00     0.019 C 
ENDBRANCH  13  16
ENDBRANCH   9  12
ENDBRANCH   5   6
ENDBRANCH   2   5
BRANCH   1  19
HETATM   19  C   UNL     1     -37.283  39.137 -60.846  1.00  0.00     0.157 A 
HETATM   20  C   UNL     1     -38.157  38.418 -61.715  1.00  0.00     0.029 A 
HETATM   21  C   UNL     1     -39.550  38.240 -61.834  1.00  0.00     0.023 A 
HETATM   22  C   UNL     1     -37.321  37.780 -62.623  1.00  0.00     0.063 A 
HETATM   23  C   UNL     1     -40.060  37.430 -62.862  1.00  0.00    -0.061 A 
HETATM   24  C   UNL     1     -41.541  37.230 -63.010  1.00  0.00     0.048 C 
HETATM   25  C   UNL     1     -39.181  36.804 -63.756  1.00  0.00     0.009 A 
HETATM   26  C   UNL     1     -37.795  36.966 -63.655  1.00  0.00     0.032 A 
HETATM   27  N   UNL     1     -36.054  38.139 -62.258  1.00  0.00    -0.277 N 
HETATM   28  H   UNL     1     -35.186  37.858 -62.701  1.00  0.00     0.189 HD
HETATM   29  N   UNL     1     -35.989  38.960 -61.195  1.00  0.00    -0.168 NA
ENDBRANCH   1  19
TORSDOF 5
ENDMDL
MODEL 10
REMARK VINA RESULT:      -7.3      2.395      2.899
REMARK  5 active torsions:
REMARK  status: ('A' for Active; 'I' for Inactive)
REMARK    1  A    between atoms: C_9  and  C_10 
REMARK       I    between atoms: C_10  and  N_11 
REMARK    2  A    between atoms: N_11  and  C_12 
REMARK    3  A    between atoms: C_12  and  C_13 
REMARK    4  A    between atoms: C_16  and  N_17 
REMARK       I    between atoms: N_17  and  C_18 
REMARK    5  A    between atoms: C_18  and  C_19 
ROOT
HETATM    1  C   UNL     1     -41.960  56.170 -50.506  1.00  0.00     0.273 C 
HETATM    2  N   UNL     1     -43.218  56.086 -51.059  1.00  0.00    -0.351 N 
HETATM    3  O   UNL     1     -41.374  57.236 -50.332  1.00  0.00    -0.266 OA
HETATM    4  H   UNL     1     -43.646  55.165 -51.050  1.00  0.00     0.163 HD
ENDROOT
BRANCH   2   5
HETATM    5  C   UNL     1     -44.000  57.264 -51.315  1.00  0.00     0.161 C 
BRANCH   5   6
HETATM    6  C   UNL     1     -44.275  57.436 -52.783  1.00  0.00    -0.040 A 
HETATM    7  C   UNL     1     -43.966  56.416 -53.690  1.00  0.00     0.011 A 
HETATM    8  C   UNL     1     -44.227  56.570 -55.056  1.00  0.00     0.030 A 
HETATM    9  C   UNL     1     -44.797  57.747 -55.542  1.00  0.00     0.034 A 
HETATM   10  C   UNL     1     -45.085  58.777 -54.638  1.00  0.00     0.030 A 
HETATM   11  C   UNL     1     -44.821  58.627 -53.273  1.00  0.00     0.011 A 
BRANCH   9  12
HETATM   12  N   UNL     1     -45.114  57.974 -56.897  1.00  0.00    -0.327 N 
HETATM   13  C   UNL     1     -46.366  57.949 -57.491  1.00  0.00     0.225 C 
HETATM   14  O   UNL     1     -47.429  57.711 -56.926  1.00  0.00    -0.273 OA
HETATM   15  H   UNL     1     -44.331  58.200 -57.497  1.00  0.00     0.169 HD
BRANCH  13  16
HETATM   16  C   UNL     1     -46.306  58.267 -58.990  1.00  0.00     0.070 C 
HETATM   17  C   UNL     1     -44.892  58.675 -59.403  1.00  0.00     0.019 C 
HETATM   18  C   UNL     1     -46.774  57.075 -59.825  1.00  0.00     0.019 C 
ENDBRANCH  13  16
ENDBRANCH   9  12
ENDBRANCH   5   6
ENDBRANCH   2   5
BRANCH   1  19
HETATM   19  C   UNL     1     -41.399  54.864 -50.126  1.00  0.00     0.157 A 
HETATM   20  C   UNL     1     -40.906  53.849 -50.999  1.00  0.00     0.029 A 
HETATM   21  C   UNL     1     -40.773  53.686 -52.393  1.00  0.00     0.023 A 
HETATM   22  C   UNL     1     -40.478  52.826 -50.162  1.00  0.00     0.063 A 
HETATM   23  C   UNL     1     -40.214  52.502 -52.902  1.00  0.00    -0.061 A 
HETATM   24  C   UNL     1     -40.059  52.309 -54.383  1.00  0.00     0.048 C 
HETATM   25  C   UNL     1     -39.795  51.496 -52.022  1.00  0.00     0.009 A 
HETATM   26  C   UNL     1     -39.919  51.637 -50.635  1.00  0.00     0.032 A 
HETATM   27  N   UNL     1     -40.730  53.270 -48.895  1.00  0.00    -0.277 N 
HETATM   28  H   UNL     1     -40.543  52.782 -48.026  1.00  0.00     0.189 HD
HETATM   29  N   UNL     1     -41.279  54.496 -48.831  1.00  0.00    -0.168 NA
ENDBRANCH   1  19
TORSDOF 5
ENDMDL
