MODEL 1
REMARK VINA RESULT:      -8.7      0.000      0.000
REMARK  8 active torsions:
REMARK  status: ('A' for Active; 'I' for Inactive)
REMARK    1  A    between atoms: C_2  and  C_3 
REMARK    2  A    between atoms: N_4  and  C_5 
REMARK    3  A    between atoms: C_5  and  C_6 
REMARK    4  A    between atoms: C_14  and  C_15 
REMARK       I    between atoms: C_15  and  N_16 
REMARK    5  A    between atoms: N_16  and  N_17 
REMARK       I    between atoms: N_17  and  C_18 
REMARK    6  A    between atoms: C_18  and  C_19 
REMARK    7  A    between atoms: C_23  and  C_24 
REMARK    8  A    between atoms: C_27  and  O_28 
ROOT
HETATM    1  C   UNL     1     -44.884  60.963 -49.107  1.00  0.00     0.273 C 
HETATM    2  N   UNL     1     -43.604  60.833 -49.598  1.00  0.00    -0.263 N 
HETATM    3  O   UNL     1     -45.762  60.158 -49.425  1.00  0.00    -0.266 OA
HETATM    4  H   UNL     1     -42.820  61.412 -49.323  1.00  0.00     0.190 HD
ENDROOT
BRANCH   2   5
HETATM    5  N   UNL     1     -43.325  59.762 -50.457  1.00  0.00    -0.262 N 
HETATM    6  C   UNL     1     -42.014  59.400 -50.678  1.00  0.00     0.288 C 
HETATM    7  O   UNL     1     -41.083  59.949 -50.088  1.00  0.00    -0.264 OA
HETATM    8  H   UNL     1     -44.113  59.384 -50.977  1.00  0.00     0.190 HD
BRANCH   6   9
HETATM    9  C   UNL     1     -41.817  58.347 -51.633  1.00  0.00     0.121 A 
HETATM   10  N   UNL     1     -42.015  58.543 -52.971  1.00  0.00    -0.272 N 
HETATM   11  H   UNL     1     -42.313  59.400 -53.425  1.00  0.00     0.189 HD
HETATM   12  N   UNL     1     -41.765  57.465 -53.728  1.00  0.00    -0.174 NA
HETATM   13  C   UNL     1     -41.397  56.512 -52.857  1.00  0.00     0.089 A 
HETATM   14  C   UNL     1     -41.422  57.028 -51.529  1.00  0.00     0.071 A 
BRANCH  13  15
HETATM   15  C   UNL     1     -41.019  55.165 -53.300  1.00  0.00    -0.005 A 
HETATM   16  C   UNL     1     -40.622  54.939 -54.624  1.00  0.00     0.016 A 
HETATM   17  C   UNL     1     -40.234  53.664 -55.047  1.00  0.00     0.037 A 
HETATM   18  C   UNL     1     -40.237  52.588 -54.159  1.00  0.00     0.068 A 
HETATM   19  C   UNL     1     -40.648  52.797 -52.843  1.00  0.00     0.037 A 
HETATM   20  C   UNL     1     -41.034  54.076 -52.417  1.00  0.00     0.016 A 
BRANCH  18  21
HETATM   21  O   UNL     1     -39.827  51.399 -54.696  1.00  0.00    -0.356 OA
HETATM   22  C   UNL     1     -39.901  50.255 -53.856  1.00  0.00     0.210 C 
ENDBRANCH  18  21
ENDBRANCH  13  15
ENDBRANCH   6   9
ENDBRANCH   2   5
BRANCH   1  23
HETATM   23  C   UNL     1     -45.151  62.067 -48.195  1.00  0.00     0.077 A 
HETATM   24  C   UNL     1     -45.955  62.195 -47.060  1.00  0.00     0.048 A 
HETATM   25  N   UNL     1     -45.768  63.497 -46.621  1.00  0.00    -0.269 N 
HETATM   26  N   UNL     1     -44.898  64.193 -47.379  1.00  0.00    -0.183 NA
HETATM   27  C   UNL     1     -44.532  63.333 -48.322  1.00  0.00     0.158 A 
BRANCH  24  28
HETATM   28  C   UNL     1     -46.846  61.232 -46.339  1.00  0.00     0.055 C 
HETATM   29  C   UNL     1     -46.091  60.009 -45.840  1.00  0.00     0.011 C 
ENDBRANCH  24  28
BRANCH  25  30
HETATM   30  C   UNL     1     -46.312  64.156 -45.433  1.00  0.00     0.189 C 
BRANCH  30  31
HETATM   31  C   UNL     1     -45.488  63.929 -44.188  1.00  0.00    -0.038 A 
HETATM   32  C   UNL     1     -45.830  64.581 -42.994  1.00  0.00     0.009 A 
HETATM   33  C   UNL     1     -45.109  64.341 -41.821  1.00  0.00     0.001 A 
HETATM   34  C   UNL     1     -44.045  63.442 -41.826  1.00  0.00     0.000 A 
HETATM   35  C   UNL     1     -43.704  62.777 -43.000  1.00  0.00     0.001 A 
HETATM   36  C   UNL     1     -44.425  63.010 -44.172  1.00  0.00     0.009 A 
ENDBRANCH  30  31
ENDBRANCH  25  30
ENDBRANCH   1  23
TORSDOF 8
ENDMDL
MODEL 2
REMARK VINA RESULT:      -8.4      2.246     11.945
REMARK  8 active torsions:
REMARK  status: ('A' for Active; 'I' for Inactive)
REMARK    1  A    between atoms: C_2  and  C_3 
REMARK    2  A    between atoms: N_4  and  C_5 
REMARK    3  A    between atoms: C_5  and  C_6 
REMARK    4  A    between atoms: C_14  and  C_15 
REMARK       I    between atoms: C_15  and  N_16 
REMARK    5  A    between atoms: N_16  and  N_17 
REMARK       I    between atoms: N_17  and  C_18 
REMARK    6  A    between atoms: C_18  and  C_19 
REMARK    7  A    between atoms: C_23  and  C_24 
REMARK    8  A    between atoms: C_27  and  O_28 
ROOT
HETATM    1  C   UNL     1     -42.685  59.958 -50.815  1.00  0.00     0.273 C 
HETATM    2  N   UNL     1     -43.889  59.976 -50.145  1.00  0.00    -0.263 N 
HETATM    3  O   UNL     1     -41.721  60.598 -50.389  1.00  0.00    -0.266 OA
HETATM    4  H   UNL     1     -44.697  59.420 -50.396  1.00  0.00     0.190 HD
ENDROOT
BRANCH   2   5
HETATM    5  N   UNL     1     -43.985  60.730 -48.968  1.00  0.00    -0.262 N 
HETATM    6  C   UNL     1     -45.219  61.184 -48.559  1.00  0.00     0.288 C 
HETATM    7  O   UNL     1     -46.250  60.888 -49.162  1.00  0.00    -0.264 OA
HETATM    8  H   UNL     1     -43.106  61.012 -48.540  1.00  0.00     0.190 HD
BRANCH   6   9
HETATM    9  C   UNL     1     -45.213  62.016 -47.388  1.00  0.00     0.121 A 
HETATM   10  N   UNL     1     -45.784  63.257 -47.385  1.00  0.00    -0.272 N 
HETATM   11  H   UNL     1     -46.246  63.719 -48.162  1.00  0.00     0.189 HD
HETATM   12  N   UNL     1     -45.713  63.893 -46.207  1.00  0.00    -0.174 NA
HETATM   13  C   UNL     1     -45.060  63.043 -45.398  1.00  0.00     0.089 A 
HETATM   14  C   UNL     1     -44.726  61.853 -46.106  1.00  0.00     0.071 A 
BRANCH  13  15
HETATM   15  C   UNL     1     -44.792  63.369 -43.992  1.00  0.00    -0.005 A 
HETATM   16  C   UNL     1     -43.758  62.727 -43.299  1.00  0.00     0.016 A 
HETATM   17  C   UNL     1     -43.479  63.053 -41.969  1.00  0.00     0.037 A 
HETATM   18  C   UNL     1     -44.226  64.024 -41.301  1.00  0.00     0.068 A 
HETATM   19  C   UNL     1     -45.269  64.657 -41.976  1.00  0.00     0.037 A 
HETATM   20  C   UNL     1     -45.549  64.333 -43.311  1.00  0.00     0.016 A 
BRANCH  18  21
HETATM   21  O   UNL     1     -43.844  64.254 -40.009  1.00  0.00    -0.356 OA
HETATM   22  C   UNL     1     -44.854  64.158 -39.013  1.00  0.00     0.210 C 
ENDBRANCH  18  21
ENDBRANCH  13  15
ENDBRANCH   6   9
ENDBRANCH   2   5
BRANCH   1  23
HETATM   23  C   UNL     1     -42.595  59.148 -52.023  1.00  0.00     0.077 A 
HETATM   24  C   UNL     1     -43.167  57.932 -52.401  1.00  0.00     0.048 A 
HETATM   25  N   UNL     1     -42.705  57.692 -53.686  1.00  0.00    -0.269 N 
HETATM   26  N   UNL     1     -41.902  58.669 -54.153  1.00  0.00    -0.183 NA
HETATM   27  C   UNL     1     -41.837  59.539 -53.152  1.00  0.00     0.158 A 
BRANCH  24  28
HETATM   28  C   UNL     1     -44.107  56.997 -51.705  1.00  0.00     0.055 C 
HETATM   29  C   UNL     1     -43.388  56.073 -50.733  1.00  0.00     0.011 C 
ENDBRANCH  24  28
BRANCH  25  30
HETATM   30  C   UNL     1     -43.037  56.593 -54.595  1.00  0.00     0.189 C 
BRANCH  30  31
HETATM   31  C   UNL     1     -42.103  55.412 -54.477  1.00  0.00    -0.038 A 
HETATM   32  C   UNL     1     -42.526  54.251 -53.813  1.00  0.00     0.009 A 
HETATM   33  C   UNL     1     -41.694  53.130 -53.740  1.00  0.00     0.001 A 
HETATM   34  C   UNL     1     -40.435  53.156 -54.336  1.00  0.00     0.000 A 
HETATM   35  C   UNL     1     -40.009  54.295 -55.012  1.00  0.00     0.001 A 
HETATM   36  C   UNL     1     -40.840  55.414 -55.090  1.00  0.00     0.009 A 
ENDBRANCH  30  31
ENDBRANCH  25  30
ENDBRANCH   1  23
TORSDOF 8
ENDMDL
MODEL 3
REMARK VINA RESULT:      -8.3      8.258     12.234
REMARK  8 active torsions:
REMARK  status: ('A' for Active; 'I' for Inactive)
REMARK    1  A    between atoms: C_2  and  C_3 
REMARK    2  A    between atoms: N_4  and  C_5 
REMARK    3  A    between atoms: C_5  and  C_6 
REMARK    4  A    between atoms: C_14  and  C_15 
REMARK       I    between atoms: C_15  and  N_16 
REMARK    5  A    between atoms: N_16  and  N_17 
REMARK       I    between atoms: N_17  and  C_18 
REMARK    6  A    between atoms: C_18  and  C_19 
REMARK    7  A    between atoms: C_23  and  C_24 
REMARK    8  A    between atoms: C_27  and  O_28 
ROOT
HETATM    1  C   UNL     1     -43.750  55.851 -54.482  1.00  0.00     0.273 C 
HETATM    2  N   UNL     1     -43.424  55.763 -55.817  1.00  0.00    -0.263 N 
HETATM    3  O   UNL     1     -44.718  56.522 -54.117  1.00  0.00    -0.266 OA
HETATM    4  H   UNL     1     -42.690  55.174 -56.194  1.00  0.00     0.190 HD
ENDROOT
BRANCH   2   5
HETATM    5  N   UNL     1     -44.222  56.446 -56.745  1.00  0.00    -0.262 N 
HETATM    6  C   UNL     1     -43.892  56.396 -58.081  1.00  0.00     0.288 C 
HETATM    7  O   UNL     1     -42.954  55.713 -58.492  1.00  0.00    -0.264 OA
HETATM    8  H   UNL     1     -44.941  57.054 -56.360  1.00  0.00     0.190 HD
BRANCH   6   9
HETATM    9  C   UNL     1     -44.715  57.190 -58.950  1.00  0.00     0.121 A 
HETATM   10  N   UNL     1     -44.267  58.360 -59.494  1.00  0.00    -0.272 N 
HETATM   11  H   UNL     1     -43.358  58.790 -59.354  1.00  0.00     0.189 HD
HETATM   12  N   UNL     1     -45.150  58.966 -60.300  1.00  0.00    -0.174 NA
HETATM   13  C   UNL     1     -46.232  58.171 -60.283  1.00  0.00     0.089 A 
HETATM   14  C   UNL     1     -45.998  57.045 -59.441  1.00  0.00     0.071 A 
BRANCH  13  15
HETATM   15  C   UNL     1     -47.433  58.484 -61.066  1.00  0.00    -0.005 A 
HETATM   16  C   UNL     1     -48.071  57.488 -61.816  1.00  0.00     0.016 A 
HETATM   17  C   UNL     1     -49.232  57.773 -62.543  1.00  0.00     0.037 A 
HETATM   18  C   UNL     1     -49.777  59.057 -62.538  1.00  0.00     0.068 A 
HETATM   19  C   UNL     1     -49.140  60.061 -61.810  1.00  0.00     0.037 A 
HETATM   20  C   UNL     1     -47.978  59.776 -61.079  1.00  0.00     0.016 A 
BRANCH  18  21
HETATM   21  O   UNL     1     -50.916  59.199 -63.280  1.00  0.00    -0.356 OA
HETATM   22  C   UNL     1     -52.138  59.330 -62.564  1.00  0.00     0.210 C 
ENDBRANCH  18  21
ENDBRANCH  13  15
ENDBRANCH   6   9
ENDBRANCH   2   5
BRANCH   1  23
HETATM   23  C   UNL     1     -42.926  55.114 -53.533  1.00  0.00     0.077 A 
HETATM   24  C   UNL     1     -41.558  54.838 -53.470  1.00  0.00     0.048 A 
HETATM   25  N   UNL     1     -41.386  54.100 -52.309  1.00  0.00    -0.269 N 
HETATM   26  N   UNL     1     -42.532  53.904 -51.628  1.00  0.00    -0.183 NA
HETATM   27  C   UNL     1     -43.453  54.511 -52.367  1.00  0.00     0.158 A 
BRANCH  24  28
HETATM   28  C   UNL     1     -40.410  55.211 -54.355  1.00  0.00     0.055 C 
HETATM   29  C   UNL     1     -40.168  54.182 -55.450  1.00  0.00     0.011 C 
ENDBRANCH  24  28
BRANCH  25  30
HETATM   30  C   UNL     1     -40.146  53.600 -51.711  1.00  0.00     0.189 C 
BRANCH  30  31
HETATM   31  C   UNL     1     -39.915  52.127 -51.949  1.00  0.00    -0.038 A 
HETATM   32  C   UNL     1     -39.861  51.243 -50.860  1.00  0.00     0.009 A 
HETATM   33  C   UNL     1     -39.700  49.870 -51.066  1.00  0.00     0.001 A 
HETATM   34  C   UNL     1     -39.600  49.365 -52.361  1.00  0.00     0.000 A 
HETATM   35  C   UNL     1     -39.669  50.229 -53.450  1.00  0.00     0.001 A 
HETATM   36  C   UNL     1     -39.834  51.600 -53.248  1.00  0.00     0.009 A 
ENDBRANCH  30  31
ENDBRANCH  25  30
ENDBRANCH   1  23
TORSDOF 8
ENDMDL
MODEL 4
REMARK VINA RESULT:      -8.0      3.927      5.793
REMARK  8 active torsions:
REMARK  status: ('A' for Active; 'I' for Inactive)
REMARK    1  A    between atoms: C_2  and  C_3 
REMARK    2  A    between atoms: N_4  and  C_5 
REMARK    3  A    between atoms: C_5  and  C_6 
REMARK    4  A    between atoms: C_14  and  C_15 
REMARK       I    between atoms: C_15  and  N_16 
REMARK    5  A    between atoms: N_16  and  N_17 
REMARK       I    between atoms: N_17  and  C_18 
REMARK    6  A    between atoms: C_18  and  C_19 
REMARK    7  A    between atoms: C_23  and  C_24 
REMARK    8  A    between atoms: C_27  and  O_28 
ROOT
HETATM    1  C   UNL     1     -45.598  60.191 -50.458  1.00  0.00     0.273 C 
HETATM    2  N   UNL     1     -44.254  60.141 -50.758  1.00  0.00    -0.263 N 
HETATM    3  O   UNL     1     -46.201  59.172 -50.115  1.00  0.00    -0.266 OA
HETATM    4  H   UNL     1     -43.682  60.948 -50.976  1.00  0.00     0.190 HD
ENDROOT
BRANCH   2   5
HETATM    5  N   UNL     1     -43.594  58.909 -50.656  1.00  0.00    -0.262 N 
HETATM    6  C   UNL     1     -42.428  58.711 -51.361  1.00  0.00     0.288 C 
HETATM    7  O   UNL     1     -41.912  59.609 -52.026  1.00  0.00    -0.264 OA
HETATM    8  H   UNL     1     -44.087  58.173 -50.157  1.00  0.00     0.190 HD
BRANCH   6   9
HETATM    9  C   UNL     1     -41.863  57.394 -51.262  1.00  0.00     0.121 A 
HETATM   10  N   UNL     1     -41.442  56.880 -50.068  1.00  0.00    -0.272 N 
HETATM   11  H   UNL     1     -41.468  57.339 -49.163  1.00  0.00     0.189 HD
HETATM   12  N   UNL     1     -40.962  55.631 -50.145  1.00  0.00    -0.174 NA
HETATM   13  C   UNL     1     -41.059  55.306 -51.445  1.00  0.00     0.089 A 
HETATM   14  C   UNL     1     -41.617  56.392 -52.179  1.00  0.00     0.071 A 
BRANCH  13  15
HETATM   15  C   UNL     1     -40.644  53.990 -51.944  1.00  0.00    -0.005 A 
HETATM   16  C   UNL     1     -40.044  53.061 -51.084  1.00  0.00     0.016 A 
HETATM   17  C   UNL     1     -39.671  51.795 -51.546  1.00  0.00     0.037 A 
HETATM   18  C   UNL     1     -39.887  51.431 -52.875  1.00  0.00     0.068 A 
HETATM   19  C   UNL     1     -40.468  52.353 -53.745  1.00  0.00     0.037 A 
HETATM   20  C   UNL     1     -40.844  53.622 -53.282  1.00  0.00     0.016 A 
BRANCH  18  21
HETATM   21  O   UNL     1     -39.487  50.163 -53.195  1.00  0.00    -0.356 OA
HETATM   22  C   UNL     1     -39.589  49.782 -54.561  1.00  0.00     0.210 C 
ENDBRANCH  18  21
ENDBRANCH  13  15
ENDBRANCH   6   9
ENDBRANCH   2   5
BRANCH   1  23
HETATM   23  C   UNL     1     -46.263  61.484 -50.544  1.00  0.00     0.077 A 
HETATM   24  C   UNL     1     -46.844  62.190 -51.600  1.00  0.00     0.048 A 
HETATM   25  N   UNL     1     -47.327  63.361 -51.037  1.00  0.00    -0.269 N 
HETATM   26  N   UNL     1     -47.113  63.441 -49.709  1.00  0.00    -0.183 NA
HETATM   27  C   UNL     1     -46.473  62.314 -49.418  1.00  0.00     0.158 A 
BRANCH  24  28
HETATM   28  C   UNL     1     -47.014  61.877 -53.054  1.00  0.00     0.055 C 
HETATM   29  C   UNL     1     -45.890  62.451 -53.903  1.00  0.00     0.011 C 
ENDBRANCH  24  28
BRANCH  25  30
HETATM   30  C   UNL     1     -48.088  64.441 -51.667  1.00  0.00     0.189 C 
BRANCH  30  31
HETATM   31  C   UNL     1     -49.463  64.018 -52.129  1.00  0.00    -0.038 A 
HETATM   32  C   UNL     1     -50.338  63.386 -51.232  1.00  0.00     0.009 A 
HETATM   33  C   UNL     1     -51.631  63.035 -51.628  1.00  0.00     0.001 A 
HETATM   34  C   UNL     1     -52.066  63.319 -52.921  1.00  0.00     0.000 A 
HETATM   35  C   UNL     1     -51.215  63.959 -53.816  1.00  0.00     0.001 A 
HETATM   36  C   UNL     1     -49.924  64.315 -53.422  1.00  0.00     0.009 A 
ENDBRANCH  30  31
ENDBRANCH  25  30
ENDBRANCH   1  23
TORSDOF 8
ENDMDL
MODEL 5
REMARK VINA RESULT:      -8.0      2.959      3.576
REMARK  8 active torsions:
REMARK  status: ('A' for Active; 'I' for Inactive)
REMARK    1  A    between atoms: C_2  and  C_3 
REMARK    2  A    between atoms: N_4  and  C_5 
REMARK    3  A    between atoms: C_5  and  C_6 
REMARK    4  A    between atoms: C_14  and  C_15 
REMARK       I    between atoms: C_15  and  N_16 
REMARK    5  A    between atoms: N_16  and  N_17 
REMARK       I    between atoms: N_17  and  C_18 
REMARK    6  A    between atoms: C_18  and  C_19 
REMARK    7  A    between atoms: C_23  and  C_24 
REMARK    8  A    between atoms: C_27  and  O_28 
ROOT
HETATM    1  C   UNL     1     -44.689  62.046 -49.360  1.00  0.00     0.273 C 
HETATM    2  N   UNL     1     -44.415  60.705 -49.207  1.00  0.00    -0.263 N 
HETATM    3  O   UNL     1     -44.694  62.561 -50.480  1.00  0.00    -0.266 OA
HETATM    4  H   UNL     1     -44.465  60.203 -48.329  1.00  0.00     0.190 HD
ENDROOT
BRANCH   2   5
HETATM    5  N   UNL     1     -44.152  59.944 -50.354  1.00  0.00    -0.262 N 
HETATM    6  C   UNL     1     -45.078  59.013 -50.770  1.00  0.00     0.288 C 
HETATM    7  O   UNL     1     -46.161  58.878 -50.202  1.00  0.00    -0.264 OA
HETATM    8  H   UNL     1     -43.220  60.034 -50.751  1.00  0.00     0.190 HD
BRANCH   6   9
HETATM    9  C   UNL     1     -44.691  58.223 -51.905  1.00  0.00     0.121 A 
HETATM   10  N   UNL     1     -44.341  56.908 -51.781  1.00  0.00    -0.272 N 
HETATM   11  H   UNL     1     -44.308  56.363 -50.925  1.00  0.00     0.189 HD
HETATM   12  N   UNL     1     -44.029  56.309 -52.939  1.00  0.00    -0.174 NA
HETATM   13  C   UNL     1     -44.167  57.268 -53.869  1.00  0.00     0.089 A 
HETATM   14  C   UNL     1     -44.577  58.488 -53.256  1.00  0.00     0.071 A 
BRANCH  13  15
HETATM   15  C   UNL     1     -43.927  57.003 -55.292  1.00  0.00    -0.005 A 
HETATM   16  C   UNL     1     -44.503  57.819 -56.273  1.00  0.00     0.016 A 
HETATM   17  C   UNL     1     -44.256  57.589 -57.630  1.00  0.00     0.037 A 
HETATM   18  C   UNL     1     -43.433  56.539 -58.036  1.00  0.00     0.068 A 
HETATM   19  C   UNL     1     -42.868  55.708 -57.069  1.00  0.00     0.037 A 
HETATM   20  C   UNL     1     -43.113  55.940 -55.707  1.00  0.00     0.016 A 
BRANCH  18  21
HETATM   21  O   UNL     1     -43.266  56.430 -59.389  1.00  0.00    -0.356 OA
HETATM   22  C   UNL     1     -42.181  57.148 -59.962  1.00  0.00     0.210 C 
ENDBRANCH  18  21
ENDBRANCH  13  15
ENDBRANCH   6   9
ENDBRANCH   2   5
BRANCH   1  23
HETATM   23  C   UNL     1     -44.986  62.817 -48.160  1.00  0.00     0.077 A 
HETATM   24  C   UNL     1     -45.784  62.570 -47.040  1.00  0.00     0.048 A 
HETATM   25  N   UNL     1     -45.640  63.688 -46.232  1.00  0.00    -0.269 N 
HETATM   26  N   UNL     1     -44.802  64.611 -46.746  1.00  0.00    -0.183 NA
HETATM   27  C   UNL     1     -44.415  64.086 -47.902  1.00  0.00     0.158 A 
BRANCH  24  28
HETATM   28  C   UNL     1     -46.633  61.404 -46.640  1.00  0.00     0.055 C 
HETATM   29  C   UNL     1     -45.827  60.312 -45.952  1.00  0.00     0.011 C 
ENDBRANCH  24  28
BRANCH  25  30
HETATM   30  C   UNL     1     -46.196  63.942 -44.902  1.00  0.00     0.189 C 
BRANCH  30  31
HETATM   31  C   UNL     1     -45.173  63.851 -43.795  1.00  0.00    -0.038 A 
HETATM   32  C   UNL     1     -45.241  64.734 -42.707  1.00  0.00     0.009 A 
HETATM   33  C   UNL     1     -44.334  64.630 -41.649  1.00  0.00     0.001 A 
HETATM   34  C   UNL     1     -43.356  63.638 -41.663  1.00  0.00     0.000 A 
HETATM   35  C   UNL     1     -43.287  62.746 -42.728  1.00  0.00     0.001 A 
HETATM   36  C   UNL     1     -44.194  62.844 -43.784  1.00  0.00     0.009 A 
ENDBRANCH  30  31
ENDBRANCH  25  30
ENDBRANCH   1  23
TORSDOF 8
ENDMDL
MODEL 6
REMARK VINA RESULT:      -7.8      8.141     12.111
REMARK  8 active torsions:
REMARK  status: ('A' for Active; 'I' for Inactive)
REMARK    1  A    between atoms: C_2  and  C_3 
REMARK    2  A    between atoms: N_4  and  C_5 
REMARK    3  A    between atoms: C_5  and  C_6 
REMARK    4  A    between atoms: C_14  and  C_15 
REMARK       I    between atoms: C_15  and  N_16 
REMARK    5  A    between atoms: N_16  and  N_17 
REMARK       I    between atoms: N_17  and  C_18 
REMARK    6  A    between atoms: C_18  and  C_19 
REMARK    7  A    between atoms: C_23  and  C_24 
REMARK    8  A    between atoms: C_27  and  O_28 
ROOT
HETATM    1  C   UNL     1     -43.679  55.942 -54.142  1.00  0.00     0.273 C 
HETATM    2  N   UNL     1     -43.488  55.809 -55.500  1.00  0.00    -0.263 N 
HETATM    3  O   UNL     1     -44.549  56.696 -53.703  1.00  0.00    -0.266 OA
HETATM    4  H   UNL     1     -42.845  55.156 -55.931  1.00  0.00     0.190 HD
ENDROOT
BRANCH   2   5
HETATM    5  N   UNL     1     -44.312  56.544 -56.364  1.00  0.00    -0.262 N 
HETATM    6  C   UNL     1     -43.746  57.207 -57.430  1.00  0.00     0.288 C 
HETATM    7  O   UNL     1     -42.546  57.118 -57.685  1.00  0.00    -0.264 OA
HETATM    8  H   UNL     1     -45.282  56.651 -56.079  1.00  0.00     0.190 HD
BRANCH   6   9
HETATM    9  C   UNL     1     -44.651  58.000 -58.213  1.00  0.00     0.121 A 
HETATM   10  N   UNL     1     -44.264  58.587 -59.385  1.00  0.00    -0.272 N 
HETATM   11  H   UNL     1     -43.346  58.543 -59.816  1.00  0.00     0.189 HD
HETATM   12  N   UNL     1     -45.235  59.272 -60.005  1.00  0.00    -0.174 NA
HETATM   13  C   UNL     1     -46.308  59.144 -59.207  1.00  0.00     0.089 A 
HETATM   14  C   UNL     1     -45.978  58.354 -58.068  1.00  0.00     0.071 A 
BRANCH  13  15
HETATM   15  C   UNL     1     -47.600  59.749 -59.550  1.00  0.00    -0.005 A 
HETATM   16  C   UNL     1     -48.428  60.270 -58.548  1.00  0.00     0.016 A 
HETATM   17  C   UNL     1     -49.648  60.874 -58.869  1.00  0.00     0.037 A 
HETATM   18  C   UNL     1     -50.069  60.965 -60.196  1.00  0.00     0.068 A 
HETATM   19  C   UNL     1     -49.261  60.433 -61.201  1.00  0.00     0.037 A 
HETATM   20  C   UNL     1     -48.036  59.831 -60.880  1.00  0.00     0.016 A 
BRANCH  18  21
HETATM   21  O   UNL     1     -51.274  61.586 -60.375  1.00  0.00    -0.356 OA
HETATM   22  C   UNL     1     -52.422  60.751 -60.449  1.00  0.00     0.210 C 
ENDBRANCH  18  21
ENDBRANCH  13  15
ENDBRANCH   6   9
ENDBRANCH   2   5
BRANCH   1  23
HETATM   23  C   UNL     1     -42.832  55.151 -53.260  1.00  0.00     0.077 A 
HETATM   24  C   UNL     1     -41.472  54.833 -53.274  1.00  0.00     0.048 A 
HETATM   25  N   UNL     1     -41.264  54.054 -52.146  1.00  0.00    -0.269 N 
HETATM   26  N   UNL     1     -42.381  53.871 -51.413  1.00  0.00    -0.183 NA
HETATM   27  C   UNL     1     -43.318  54.528 -52.086  1.00  0.00     0.158 A 
BRANCH  24  28
HETATM   28  C   UNL     1     -40.358  55.198 -54.205  1.00  0.00     0.055 C 
HETATM   29  C   UNL     1     -40.249  54.237 -55.380  1.00  0.00     0.011 C 
ENDBRANCH  24  28
BRANCH  25  30
HETATM   30  C   UNL     1     -40.013  53.499 -51.627  1.00  0.00     0.189 C 
BRANCH  30  31
HETATM   31  C   UNL     1     -39.840  52.028 -51.921  1.00  0.00    -0.038 A 
HETATM   32  C   UNL     1     -39.819  51.102 -50.867  1.00  0.00     0.009 A 
HETATM   33  C   UNL     1     -39.712  49.732 -51.126  1.00  0.00     0.001 A 
HETATM   34  C   UNL     1     -39.634  49.274 -52.439  1.00  0.00     0.000 A 
HETATM   35  C   UNL     1     -39.670  50.180 -53.494  1.00  0.00     0.001 A 
HETATM   36  C   UNL     1     -39.781  51.548 -53.240  1.00  0.00     0.009 A 
ENDBRANCH  30  31
ENDBRANCH  25  30
ENDBRANCH   1  23
TORSDOF 8
ENDMDL
MODEL 7
REMARK VINA RESULT:      -7.8      4.844      6.544
REMARK  8 active torsions:
REMARK  status: ('A' for Active; 'I' for Inactive)
REMARK    1  A    between atoms: C_2  and  C_3 
REMARK    2  A    between atoms: N_4  and  C_5 
REMARK    3  A    between atoms: C_5  and  C_6 
REMARK    4  A    between atoms: C_14  and  C_15 
REMARK       I    between atoms: C_15  and  N_16 
REMARK    5  A    between atoms: N_16  and  N_17 
REMARK       I    between atoms: N_17  and  C_18 
REMARK    6  A    between atoms: C_18  and  C_19 
REMARK    7  A    between atoms: C_23  and  C_24 
REMARK    8  A    between atoms: C_27  and  O_28 
ROOT
HETATM    1  C   UNL     1     -45.504  60.774 -53.604  1.00  0.00     0.273 C 
HETATM    2  N   UNL     1     -45.768  59.683 -52.806  1.00  0.00    -0.263 N 
HETATM    3  O   UNL     1     -44.442  60.854 -54.224  1.00  0.00    -0.266 OA
HETATM    4  H   UNL     1     -46.646  59.517 -52.328  1.00  0.00     0.190 HD
ENDROOT
BRANCH   2   5
HETATM    5  N   UNL     1     -44.806  58.667 -52.726  1.00  0.00    -0.262 N 
HETATM    6  C   UNL     1     -44.807  57.823 -51.638  1.00  0.00     0.288 C 
HETATM    7  O   UNL     1     -45.673  57.893 -50.766  1.00  0.00    -0.264 OA
HETATM    8  H   UNL     1     -44.068  58.688 -53.426  1.00  0.00     0.190 HD
BRANCH   6   9
HETATM    9  C   UNL     1     -43.738  56.866 -51.598  1.00  0.00     0.121 A 
HETATM   10  N   UNL     1     -42.864  56.808 -50.549  1.00  0.00    -0.272 N 
HETATM   11  H   UNL     1     -42.858  57.401 -49.725  1.00  0.00     0.189 HD
HETATM   12  N   UNL     1     -41.939  55.843 -50.656  1.00  0.00    -0.174 NA
HETATM   13  C   UNL     1     -42.204  55.242 -51.828  1.00  0.00     0.089 A 
HETATM   14  C   UNL     1     -43.326  55.861 -52.451  1.00  0.00     0.071 A 
BRANCH  13  15
HETATM   15  C   UNL     1     -41.412  54.105 -52.308  1.00  0.00    -0.005 A 
HETATM   16  C   UNL     1     -41.373  53.792 -53.673  1.00  0.00     0.016 A 
HETATM   17  C   UNL     1     -40.597  52.727 -54.141  1.00  0.00     0.037 A 
HETATM   18  C   UNL     1     -39.847  51.951 -53.258  1.00  0.00     0.068 A 
HETATM   19  C   UNL     1     -39.892  52.241 -51.895  1.00  0.00     0.037 A 
HETATM   20  C   UNL     1     -40.667  53.311 -51.425  1.00  0.00     0.016 A 
BRANCH  18  21
HETATM   21  O   UNL     1     -39.126  50.949 -53.845  1.00  0.00    -0.356 OA
HETATM   22  C   UNL     1     -39.859  49.838 -54.347  1.00  0.00     0.210 C 
ENDBRANCH  18  21
ENDBRANCH  13  15
ENDBRANCH   6   9
ENDBRANCH   2   5
BRANCH   1  23
HETATM   23  C   UNL     1     -46.526  61.808 -53.697  1.00  0.00     0.077 A 
HETATM   24  C   UNL     1     -47.193  62.579 -52.743  1.00  0.00     0.048 A 
HETATM   25  N   UNL     1     -48.044  63.402 -53.464  1.00  0.00    -0.269 N 
HETATM   26  N   UNL     1     -47.954  63.223 -54.797  1.00  0.00    -0.183 NA
HETATM   27  C   UNL     1     -47.044  62.265 -54.932  1.00  0.00     0.158 A 
BRANCH  24  28
HETATM   28  C   UNL     1     -47.100  62.644 -51.250  1.00  0.00     0.055 C 
HETATM   29  C   UNL     1     -45.714  63.055 -50.776  1.00  0.00     0.011 C 
ENDBRANCH  24  28
BRANCH  25  30
HETATM   30  C   UNL     1     -48.932  64.461 -52.981  1.00  0.00     0.189 C 
BRANCH  30  31
HETATM   31  C   UNL     1     -50.376  64.032 -52.874  1.00  0.00    -0.038 A 
HETATM   32  C   UNL     1     -51.285  64.379 -53.885  1.00  0.00     0.009 A 
HETATM   33  C   UNL     1     -52.613  63.946 -53.828  1.00  0.00     0.001 A 
HETATM   34  C   UNL     1     -53.044  63.156 -52.765  1.00  0.00     0.000 A 
HETATM   35  C   UNL     1     -52.149  62.790 -51.763  1.00  0.00     0.001 A 
HETATM   36  C   UNL     1     -50.822  63.217 -51.820  1.00  0.00     0.009 A 
ENDBRANCH  30  31
ENDBRANCH  25  30
ENDBRANCH   1  23
TORSDOF 8
ENDMDL
MODEL 8
REMARK VINA RESULT:      -7.8      9.227     11.819
REMARK  8 active torsions:
REMARK  status: ('A' for Active; 'I' for Inactive)
REMARK    1  A    between atoms: C_2  and  C_3 
REMARK    2  A    between atoms: N_4  and  C_5 
REMARK    3  A    between atoms: C_5  and  C_6 
REMARK    4  A    between atoms: C_14  and  C_15 
REMARK       I    between atoms: C_15  and  N_16 
REMARK    5  A    between atoms: N_16  and  N_17 
REMARK       I    between atoms: N_17  and  C_18 
REMARK    6  A    between atoms: C_18  and  C_19 
REMARK    7  A    between atoms: C_23  and  C_24 
REMARK    8  A    between atoms: C_27  and  O_28 
ROOT
HETATM    1  C   UNL     1     -45.204  56.207 -59.561  1.00  0.00     0.273 C 
HETATM    2  N   UNL     1     -44.771  56.726 -58.361  1.00  0.00    -0.263 N 
HETATM    3  O   UNL     1     -44.766  55.132 -59.974  1.00  0.00    -0.266 OA
HETATM    4  H   UNL     1     -45.140  57.563 -57.928  1.00  0.00     0.190 HD
ENDROOT
BRANCH   2   5
HETATM    5  N   UNL     1     -43.829  55.997 -57.622  1.00  0.00    -0.262 N 
HETATM    6  C   UNL     1     -43.575  56.356 -56.317  1.00  0.00     0.288 C 
HETATM    7  O   UNL     1     -44.201  57.257 -55.759  1.00  0.00    -0.264 OA
HETATM    8  H   UNL     1     -43.284  55.310 -58.137  1.00  0.00     0.190 HD
BRANCH   6   9
HETATM    9  C   UNL     1     -42.539  55.608 -55.661  1.00  0.00     0.121 A 
HETATM   10  N   UNL     1     -41.264  56.088 -55.553  1.00  0.00    -0.272 N 
HETATM   11  H   UNL     1     -40.912  56.972 -55.906  1.00  0.00     0.189 HD
HETATM   12  N   UNL     1     -40.425  55.277 -54.893  1.00  0.00    -0.174 NA
HETATM   13  C   UNL     1     -41.171  54.211 -54.558  1.00  0.00     0.089 A 
HETATM   14  C   UNL     1     -42.505  54.381 -55.028  1.00  0.00     0.071 A 
BRANCH  13  15
HETATM   15  C   UNL     1     -40.612  53.088 -53.798  1.00  0.00    -0.005 A 
HETATM   16  C   UNL     1     -40.420  53.192 -52.414  1.00  0.00     0.016 A 
HETATM   17  C   UNL     1     -39.915  52.115 -51.679  1.00  0.00     0.037 A 
HETATM   18  C   UNL     1     -39.587  50.914 -52.309  1.00  0.00     0.068 A 
HETATM   19  C   UNL     1     -39.757  50.805 -53.689  1.00  0.00     0.037 A 
HETATM   20  C   UNL     1     -40.267  51.883 -54.427  1.00  0.00     0.016 A 
BRANCH  18  21
HETATM   21  O   UNL     1     -39.113  49.939 -51.476  1.00  0.00    -0.356 OA
HETATM   22  C   UNL     1     -39.898  49.635 -50.330  1.00  0.00     0.210 C 
ENDBRANCH  18  21
ENDBRANCH  13  15
ENDBRANCH   6   9
ENDBRANCH   2   5
BRANCH   1  23
HETATM   23  C   UNL     1     -46.202  56.964 -60.304  1.00  0.00     0.077 A 
HETATM   24  C   UNL     1     -46.392  58.330 -60.530  1.00  0.00     0.048 A 
HETATM   25  N   UNL     1     -47.517  58.416 -61.335  1.00  0.00    -0.269 N 
HETATM   26  N   UNL     1     -48.041  57.215 -61.649  1.00  0.00    -0.183 NA
HETATM   27  C   UNL     1     -47.251  56.347 -61.027  1.00  0.00     0.158 A 
BRANCH  24  28
HETATM   28  C   UNL     1     -45.626  59.542 -60.099  1.00  0.00     0.055 C 
HETATM   29  C   UNL     1     -44.399  59.787 -60.966  1.00  0.00     0.011 C 
ENDBRANCH  24  28
BRANCH  25  30
HETATM   30  C   UNL     1     -48.133  59.602 -61.934  1.00  0.00     0.189 C 
BRANCH  30  31
HETATM   31  C   UNL     1     -49.356  60.085 -61.191  1.00  0.00    -0.038 A 
HETATM   32  C   UNL     1     -50.625  59.956 -61.775  1.00  0.00     0.009 A 
HETATM   33  C   UNL     1     -51.772  60.349 -61.080  1.00  0.00     0.001 A 
HETATM   34  C   UNL     1     -51.663  60.868 -59.792  1.00  0.00     0.000 A 
HETATM   35  C   UNL     1     -50.412  60.987 -59.194  1.00  0.00     0.001 A 
HETATM   36  C   UNL     1     -49.266  60.590 -59.884  1.00  0.00     0.009 A 
ENDBRANCH  30  31
ENDBRANCH  25  30
ENDBRANCH   1  23
TORSDOF 8
ENDMDL
MODEL 9
REMARK VINA RESULT:      -7.8      4.928     11.901
REMARK  8 active torsions:
REMARK  status: ('A' for Active; 'I' for Inactive)
REMARK    1  A    between atoms: C_2  and  C_3 
REMARK    2  A    between atoms: N_4  and  C_5 
REMARK    3  A    between atoms: C_5  and  C_6 
REMARK    4  A    between atoms: C_14  and  C_15 
REMARK       I    between atoms: C_15  and  N_16 
REMARK    5  A    between atoms: N_16  and  N_17 
REMARK       I    between atoms: N_17  and  C_18 
REMARK    6  A    between atoms: C_18  and  C_19 
REMARK    7  A    between atoms: C_23  and  C_24 
REMARK    8  A    between atoms: C_27  and  O_28 
ROOT
HETATM    1  C   UNL     1     -43.808  56.660 -51.913  1.00  0.00     0.273 C 
HETATM    2  N   UNL     1     -44.196  57.486 -50.882  1.00  0.00    -0.263 N 
HETATM    3  O   UNL     1     -44.249  56.829 -53.051  1.00  0.00    -0.266 OA
HETATM    4  H   UNL     1     -43.820  57.452 -49.942  1.00  0.00     0.190 HD
ENDROOT
BRANCH   2   5
HETATM    5  N   UNL     1     -45.096  58.524 -51.162  1.00  0.00    -0.262 N 
HETATM    6  C   UNL     1     -44.655  59.828 -51.115  1.00  0.00     0.288 C 
HETATM    7  O   UNL     1     -43.476  60.105 -50.900  1.00  0.00    -0.264 OA
HETATM    8  H   UNL     1     -46.073  58.258 -51.263  1.00  0.00     0.190 HD
BRANCH   6   9
HETATM    9  C   UNL     1     -45.662  60.827 -51.335  1.00  0.00     0.121 A 
HETATM   10  N   UNL     1     -45.618  62.042 -50.711  1.00  0.00    -0.272 N 
HETATM   11  H   UNL     1     -44.918  62.365 -50.051  1.00  0.00     0.189 HD
HETATM   12  N   UNL     1     -46.620  62.869 -51.044  1.00  0.00    -0.174 NA
HETATM   13  C   UNL     1     -47.365  62.171 -51.917  1.00  0.00     0.089 A 
HETATM   14  C   UNL     1     -46.796  60.880 -52.121  1.00  0.00     0.071 A 
BRANCH  13  15
HETATM   15  C   UNL     1     -48.565  62.743 -52.537  1.00  0.00    -0.005 A 
HETATM   16  C   UNL     1     -49.628  61.916 -52.922  1.00  0.00     0.016 A 
HETATM   17  C   UNL     1     -50.787  62.458 -53.487  1.00  0.00     0.037 A 
HETATM   18  C   UNL     1     -50.908  63.833 -53.683  1.00  0.00     0.068 A 
HETATM   19  C   UNL     1     -49.849  64.665 -53.319  1.00  0.00     0.037 A 
HETATM   20  C   UNL     1     -48.688  64.123 -52.750  1.00  0.00     0.016 A 
BRANCH  18  21
HETATM   21  O   UNL     1     -52.093  64.233 -54.234  1.00  0.00    -0.356 OA
HETATM   22  C   UNL     1     -52.543  63.519 -55.378  1.00  0.00     0.210 C 
ENDBRANCH  18  21
ENDBRANCH  13  15
ENDBRANCH   6   9
ENDBRANCH   2   5
BRANCH   1  23
HETATM   23  C   UNL     1     -42.851  55.604 -51.610  1.00  0.00     0.077 A 
HETATM   24  C   UNL     1     -41.571  55.310 -52.085  1.00  0.00     0.048 A 
HETATM   25  N   UNL     1     -41.172  54.178 -51.391  1.00  0.00    -0.269 N 
HETATM   26  N   UNL     1     -42.092  53.745 -50.506  1.00  0.00    -0.183 NA
HETATM   27  C   UNL     1     -43.097  54.602 -50.642  1.00  0.00     0.158 A 
BRANCH  24  28
HETATM   28  C   UNL     1     -40.685  55.984 -53.086  1.00  0.00     0.055 C 
HETATM   29  C   UNL     1     -41.053  55.624 -54.517  1.00  0.00     0.011 C 
ENDBRANCH  24  28
BRANCH  25  30
HETATM   30  C   UNL     1     -39.891  53.472 -51.439  1.00  0.00     0.189 C 
BRANCH  30  31
HETATM   31  C   UNL     1     -39.937  52.197 -52.247  1.00  0.00    -0.038 A 
HETATM   32  C   UNL     1     -40.248  52.247 -53.615  1.00  0.00     0.009 A 
HETATM   33  C   UNL     1     -40.244  51.083 -54.388  1.00  0.00     0.001 A 
HETATM   34  C   UNL     1     -39.921  49.859 -53.807  1.00  0.00     0.000 A 
HETATM   35  C   UNL     1     -39.595  49.797 -52.455  1.00  0.00     0.001 A 
HETATM   36  C   UNL     1     -39.594  50.958 -51.681  1.00  0.00     0.009 A 
ENDBRANCH  30  31
ENDBRANCH  25  30
ENDBRANCH   1  23
TORSDOF 8
ENDMDL
MODEL 10
REMARK VINA RESULT:      -7.6      9.184     11.466
REMARK  8 active torsions:
REMARK  status: ('A' for Active; 'I' for Inactive)
REMARK    1  A    between atoms: C_2  and  C_3 
REMARK    2  A    between atoms: N_4  and  C_5 
REMARK    3  A    between atoms: C_5  and  C_6 
REMARK    4  A    between atoms: C_14  and  C_15 
REMARK       I    between atoms: C_15  and  N_16 
REMARK    5  A    between atoms: N_16  and  N_17 
REMARK       I    between atoms: N_17  and  C_18 
REMARK    6  A    between atoms: C_18  and  C_19 
REMARK    7  A    between atoms: C_23  and  C_24 
REMARK    8  A    between atoms: C_27  and  O_28 
ROOT
HETATM    1  C   UNL     1     -43.321  58.714 -59.148  1.00  0.00     0.273 C 
HETATM    2  N   UNL     1     -42.146  58.373 -58.514  1.00  0.00    -0.263 N 
HETATM    3  O   UNL     1     -44.314  57.989 -59.059  1.00  0.00    -0.266 OA
HETATM    4  H   UNL     1     -41.318  58.954 -58.484  1.00  0.00     0.190 HD
ENDROOT
BRANCH   2   5
HETATM    5  N   UNL     1     -42.114  57.191 -57.762  1.00  0.00    -0.262 N 
HETATM    6  C   UNL     1     -42.251  57.260 -56.393  1.00  0.00     0.288 C 
HETATM    7  O   UNL     1     -42.470  58.326 -55.818  1.00  0.00    -0.264 OA
HETATM    8  H   UNL     1     -41.861  56.344 -58.264  1.00  0.00     0.190 HD
BRANCH   6   9
HETATM    9  C   UNL     1     -42.124  56.012 -55.697  1.00  0.00     0.121 A 
HETATM   10  N   UNL     1     -43.131  55.088 -55.686  1.00  0.00    -0.272 N 
HETATM   11  H   UNL     1     -44.038  55.168 -56.135  1.00  0.00     0.189 HD
HETATM   12  N   UNL     1     -42.844  53.967 -55.010  1.00  0.00    -0.174 NA
HETATM   13  C   UNL     1     -41.599  54.158 -54.543  1.00  0.00     0.089 A 
HETATM   14  C   UNL     1     -41.115  55.435 -54.951  1.00  0.00     0.071 A 
BRANCH  13  15
HETATM   15  C   UNL     1     -40.906  53.135 -53.752  1.00  0.00    -0.005 A 
HETATM   16  C   UNL     1     -40.596  53.366 -52.406  1.00  0.00     0.016 A 
HETATM   17  C   UNL     1     -39.962  52.385 -51.639  1.00  0.00     0.037 A 
HETATM   18  C   UNL     1     -39.620  51.154 -52.199  1.00  0.00     0.068 A 
HETATM   19  C   UNL     1     -39.906  50.918 -53.543  1.00  0.00     0.037 A 
HETATM   20  C   UNL     1     -40.545  51.901 -54.313  1.00  0.00     0.016 A 
BRANCH  18  21
HETATM   21  O   UNL     1     -39.014  50.281 -51.339  1.00  0.00    -0.356 OA
HETATM   22  C   UNL     1     -39.865  49.459 -50.551  1.00  0.00     0.210 C 
ENDBRANCH  18  21
ENDBRANCH  13  15
ENDBRANCH   6   9
ENDBRANCH   2   5
BRANCH   1  23
HETATM   23  C   UNL     1     -43.346  59.959 -59.903  1.00  0.00     0.077 A 
HETATM   24  C   UNL     1     -42.900  61.253 -59.626  1.00  0.00     0.048 A 
HETATM   25  N   UNL     1     -43.198  61.996 -60.758  1.00  0.00    -0.269 N 
HETATM   26  N   UNL     1     -43.779  61.269 -61.733  1.00  0.00    -0.183 NA
HETATM   27  C   UNL     1     -43.868  60.050 -61.215  1.00  0.00     0.158 A 
BRANCH  24  28
HETATM   28  C   UNL     1     -42.211  61.852 -58.439  1.00  0.00     0.055 C 
HETATM   29  C   UNL     1     -40.700  61.679 -58.500  1.00  0.00     0.011 C 
ENDBRANCH  24  28
BRANCH  25  30
HETATM   30  C   UNL     1     -42.892  63.398 -61.047  1.00  0.00     0.189 C 
BRANCH  30  31
HETATM   31  C   UNL     1     -41.439  63.641 -61.378  1.00  0.00    -0.038 A 
HETATM   32  C   UNL     1     -40.702  64.582 -60.642  1.00  0.00     0.009 A 
HETATM   33  C   UNL     1     -39.344  64.782 -60.901  1.00  0.00     0.001 A 
HETATM   34  C   UNL     1     -38.705  64.038 -61.890  1.00  0.00     0.000 A 
HETATM   35  C   UNL     1     -39.419  63.089 -62.616  1.00  0.00     0.001 A 
HETATM   36  C   UNL     1     -40.775  62.885 -62.357  1.00  0.00     0.009 A 
ENDBRANCH  30  31
ENDBRANCH  25  30
ENDBRANCH   1  23
TORSDOF 8
ENDMDL
