MODEL 1
REMARK VINA RESULT:      -8.4      0.000      0.000
REMARK  6 active torsions:
REMARK  status: ('A' for Active; 'I' for Inactive)
REMARK    1  A    between atoms: C_8  and  C_9 
REMARK    2  A    between atoms: C_9  and  C_10 
REMARK       I    between atoms: C_10  and  N_11 
REMARK    3  A    between atoms: N_11  and  C_12 
REMARK    4  A    between atoms: C_12  and  C_13 
REMARK    5  A    between atoms: C_16  and  N_17 
REMARK       I    between atoms: N_17  and  C_18 
REMARK    6  A    between atoms: C_18  and  C_19 
ROOT
HETATM    1  C   UNL     1     -42.457  58.182 -51.473  1.00  0.00     0.161 C 
ENDROOT
BRANCH   1   2
HETATM    2  N   UNL     1     -41.482  57.268 -50.936  1.00  0.00    -0.357 N 
HETATM    3  C   UNL     1     -41.873  56.060 -50.401  1.00  0.00     0.222 C 
HETATM    4  O   UNL     1     -43.053  55.727 -50.307  1.00  0.00    -0.273 OA
HETATM    5  H   UNL     1     -40.503  57.526 -50.942  1.00  0.00     0.162 HD
BRANCH   3   6
HETATM    6  C   UNL     1     -40.737  55.157 -49.974  1.00  0.00     0.143 C 
BRANCH   6   7
HETATM    7  C   UNL     1     -40.474  53.954 -50.830  1.00  0.00    -0.022 A 
HETATM    8  C   UNL     1     -40.479  53.792 -52.260  1.00  0.00    -0.001 A 
HETATM    9  C   UNL     1     -40.697  54.640 -53.368  1.00  0.00     0.014 A 
HETATM   10  C   UNL     1     -40.190  52.448 -52.526  1.00  0.00     0.042 A 
HETATM   11  C   UNL     1     -40.642  54.127 -54.670  1.00  0.00     0.001 A 
HETATM   12  C   UNL     1     -40.363  52.784 -54.891  1.00  0.00     0.002 A 
HETATM   13  C   UNL     1     -40.126  51.919 -53.823  1.00  0.00     0.030 A 
HETATM   14  N   UNL     1     -39.991  51.825 -51.320  1.00  0.00    -0.365 N 
HETATM   15  H   UNL     1     -39.751  50.850 -51.213  1.00  0.00     0.165 HD
HETATM   16  C   UNL     1     -40.163  52.713 -50.298  1.00  0.00     0.097 A 
ENDBRANCH   6   7
ENDBRANCH   3   6
ENDBRANCH   1   2
BRANCH   1  17
HETATM   17  C   UNL     1     -42.859  57.814 -52.875  1.00  0.00    -0.040 A 
HETATM   18  C   UNL     1     -41.944  57.908 -53.931  1.00  0.00     0.011 A 
HETATM   19  C   UNL     1     -42.306  57.523 -55.228  1.00  0.00     0.030 A 
HETATM   20  C   UNL     1     -43.588  57.041 -55.491  1.00  0.00     0.035 A 
HETATM   21  C   UNL     1     -44.515  56.983 -54.443  1.00  0.00     0.030 A 
HETATM   22  C   UNL     1     -44.157  57.371 -53.149  1.00  0.00     0.011 A 
BRANCH  20  23
HETATM   23  N   UNL     1     -44.013  56.573 -56.748  1.00  0.00    -0.321 N 
HETATM   24  C   UNL     1     -44.165  57.282 -57.926  1.00  0.00     0.279 C 
HETATM   25  O   UNL     1     -44.024  58.494 -58.053  1.00  0.00    -0.265 OA
HETATM   26  H   UNL     1     -44.196  55.578 -56.831  1.00  0.00     0.169 HD
BRANCH  24  27
HETATM   27  C   UNL     1     -44.510  56.426 -59.048  1.00  0.00     0.142 A 
HETATM   28  O   UNL     1     -45.754  56.530 -59.620  1.00  0.00    -0.317 OA
HETATM   29  C   UNL     1     -45.813  55.612 -60.619  1.00  0.00     0.143 A 
HETATM   30  C   UNL     1     -44.631  54.918 -60.708  1.00  0.00     0.027 A 
HETATM   31  C   UNL     1     -43.788  55.443 -59.698  1.00  0.00     0.045 A 
ENDBRANCH  24  27
ENDBRANCH  20  23
ENDBRANCH   1  17
TORSDOF 6
ENDMDL
MODEL 2
REMARK VINA RESULT:      -8.2      1.747      2.211
REMARK  6 active torsions:
REMARK  status: ('A' for Active; 'I' for Inactive)
REMARK    1  A    between atoms: C_8  and  C_9 
REMARK    2  A    between atoms: C_9  and  C_10 
REMARK       I    between atoms: C_10  and  N_11 
REMARK    3  A    between atoms: N_11  and  C_12 
REMARK    4  A    between atoms: C_12  and  C_13 
REMARK    5  A    between atoms: C_16  and  N_17 
REMARK       I    between atoms: N_17  and  C_18 
REMARK    6  A    between atoms: C_18  and  C_19 
ROOT
HETATM    1  C   UNL     1     -42.307  55.565 -50.505  1.00  0.00     0.161 C 
ENDROOT
BRANCH   1   2
HETATM    2  N   UNL     1     -41.998  54.197 -50.174  1.00  0.00    -0.357 N 
HETATM    3  C   UNL     1     -40.700  53.814 -49.915  1.00  0.00     0.222 C 
HETATM    4  O   UNL     1     -39.750  54.590 -50.002  1.00  0.00    -0.273 OA
HETATM    5  H   UNL     1     -42.744  53.513 -50.146  1.00  0.00     0.162 HD
BRANCH   3   6
HETATM    6  C   UNL     1     -40.539  52.376 -49.476  1.00  0.00     0.143 C 
BRANCH   6   7
HETATM    7  C   UNL     1     -40.185  51.382 -50.543  1.00  0.00    -0.022 A 
HETATM    8  C   UNL     1     -40.077  51.525 -51.971  1.00  0.00    -0.001 A 
HETATM    9  C   UNL     1     -40.229  52.587 -52.890  1.00  0.00     0.014 A 
HETATM   10  C   UNL     1     -39.739  50.270 -52.489  1.00  0.00     0.042 A 
HETATM   11  C   UNL     1     -40.064  52.360 -54.262  1.00  0.00     0.001 A 
HETATM   12  C   UNL     1     -39.740  51.096 -54.737  1.00  0.00     0.002 A 
HETATM   13  C   UNL     1     -39.565  50.027 -53.859  1.00  0.00     0.030 A 
HETATM   14  N   UNL     1     -39.618  49.408 -51.429  1.00  0.00    -0.365 N 
HETATM   15  H   UNL     1     -39.364  48.433 -51.511  1.00  0.00     0.165 HD
HETATM   16  C   UNL     1     -39.887  50.059 -50.260  1.00  0.00     0.097 A 
ENDBRANCH   6   7
ENDBRANCH   3   6
ENDBRANCH   1   2
BRANCH   1  17
HETATM   17  C   UNL     1     -42.773  55.708 -51.928  1.00  0.00    -0.040 A 
HETATM   18  C   UNL     1     -43.059  56.968 -52.466  1.00  0.00     0.011 A 
HETATM   19  C   UNL     1     -43.450  57.103 -53.804  1.00  0.00     0.030 A 
HETATM   20  C   UNL     1     -43.565  55.981 -54.625  1.00  0.00     0.035 A 
HETATM   21  C   UNL     1     -43.316  54.716 -54.077  1.00  0.00     0.030 A 
HETATM   22  C   UNL     1     -42.930  54.580 -52.740  1.00  0.00     0.011 A 
BRANCH  20  23
HETATM   23  N   UNL     1     -43.888  56.032 -55.993  1.00  0.00    -0.321 N 
HETATM   24  C   UNL     1     -43.183  56.628 -57.024  1.00  0.00     0.279 C 
HETATM   25  O   UNL     1     -42.164  57.300 -56.897  1.00  0.00    -0.265 OA
HETATM   26  H   UNL     1     -44.722  55.536 -56.288  1.00  0.00     0.169 HD
BRANCH  24  27
HETATM   27  C   UNL     1     -43.775  56.366 -58.325  1.00  0.00     0.142 A 
HETATM   28  O   UNL     1     -44.878  57.082 -58.721  1.00  0.00    -0.317 OA
HETATM   29  C   UNL     1     -45.230  56.624 -59.950  1.00  0.00     0.143 A 
HETATM   30  C   UNL     1     -44.375  55.629 -60.359  1.00  0.00     0.027 A 
HETATM   31  C   UNL     1     -43.435  55.463 -59.314  1.00  0.00     0.045 A 
ENDBRANCH  24  27
ENDBRANCH  20  23
ENDBRANCH   1  17
TORSDOF 6
ENDMDL
MODEL 3
REMARK VINA RESULT:      -8.2      3.290      6.988
REMARK  6 active torsions:
REMARK  status: ('A' for Active; 'I' for Inactive)
REMARK    1  A    between atoms: C_8  and  C_9 
REMARK    2  A    between atoms: C_9  and  C_10 
REMARK       I    between atoms: C_10  and  N_11 
REMARK    3  A    between atoms: N_11  and  C_12 
REMARK    4  A    between atoms: C_12  and  C_13 
REMARK    5  A    between atoms: C_16  and  N_17 
REMARK       I    between atoms: N_17  and  C_18 
REMARK    6  A    between atoms: C_18  and  C_19 
ROOT
HETATM    1  C   UNL     1     -42.889  57.082 -55.443  1.00  0.00     0.161 C 
ENDROOT
BRANCH   1   2
HETATM    2  N   UNL     1     -41.779  56.180 -55.266  1.00  0.00    -0.357 N 
HETATM    3  C   UNL     1     -41.957  54.818 -55.385  1.00  0.00     0.222 C 
HETATM    4  O   UNL     1     -43.056  54.309 -55.591  1.00  0.00    -0.273 OA
HETATM    5  H   UNL     1     -40.866  56.554 -55.040  1.00  0.00     0.162 HD
BRANCH   3   6
HETATM    6  C   UNL     1     -40.688  54.002 -55.281  1.00  0.00     0.143 C 
BRANCH   6   7
HETATM    7  C   UNL     1     -40.417  53.343 -53.961  1.00  0.00    -0.022 A 
HETATM    8  C   UNL     1     -40.105  51.977 -53.633  1.00  0.00    -0.001 A 
HETATM    9  C   UNL     1     -39.918  50.783 -54.365  1.00  0.00     0.014 A 
HETATM   10  C   UNL     1     -39.972  51.904 -52.242  1.00  0.00     0.042 A 
HETATM   11  C   UNL     1     -39.634  49.585 -53.698  1.00  0.00     0.001 A 
HETATM   12  C   UNL     1     -39.521  49.553 -52.314  1.00  0.00     0.002 A 
HETATM   13  C   UNL     1     -39.683  50.715 -51.559  1.00  0.00     0.030 A 
HETATM   14  N   UNL     1     -40.165  53.168 -51.745  1.00  0.00    -0.365 N 
HETATM   15  H   UNL     1     -40.111  53.413 -50.766  1.00  0.00     0.165 HD
HETATM   16  C   UNL     1     -40.438  54.037 -52.762  1.00  0.00     0.097 A 
ENDBRANCH   6   7
ENDBRANCH   3   6
ENDBRANCH   1   2
BRANCH   1  17
HETATM   17  C   UNL     1     -43.320  57.704 -54.144  1.00  0.00    -0.040 A 
HETATM   18  C   UNL     1     -43.859  56.919 -53.117  1.00  0.00     0.011 A 
HETATM   19  C   UNL     1     -44.219  57.493 -51.891  1.00  0.00     0.030 A 
HETATM   20  C   UNL     1     -44.049  58.860 -51.673  1.00  0.00     0.035 A 
HETATM   21  C   UNL     1     -43.547  59.652 -52.713  1.00  0.00     0.030 A 
HETATM   22  C   UNL     1     -43.191  59.081 -53.938  1.00  0.00     0.011 A 
BRANCH  20  23
HETATM   23  N   UNL     1     -44.323  59.505 -50.453  1.00  0.00    -0.321 N 
HETATM   24  C   UNL     1     -45.482  60.149 -50.060  1.00  0.00     0.279 C 
HETATM   25  O   UNL     1     -46.468  60.339 -50.765  1.00  0.00    -0.265 OA
HETATM   26  H   UNL     1     -43.603  59.465 -49.739  1.00  0.00     0.169 HD
BRANCH  24  27
HETATM   27  C   UNL     1     -45.430  60.589 -48.676  1.00  0.00     0.142 A 
HETATM   28  O   UNL     1     -46.205  59.956 -47.736  1.00  0.00    -0.317 OA
HETATM   29  C   UNL     1     -45.980  60.575 -46.549  1.00  0.00     0.143 A 
HETATM   30  C   UNL     1     -45.071  61.595 -46.700  1.00  0.00     0.027 A 
HETATM   31  C   UNL     1     -44.714  61.604 -48.070  1.00  0.00     0.045 A 
ENDBRANCH  24  27
ENDBRANCH  20  23
ENDBRANCH   1  17
TORSDOF 6
ENDMDL
MODEL 4
REMARK VINA RESULT:      -7.9      3.281      7.070
REMARK  6 active torsions:
REMARK  status: ('A' for Active; 'I' for Inactive)
REMARK    1  A    between atoms: C_8  and  C_9 
REMARK    2  A    between atoms: C_9  and  C_10 
REMARK       I    between atoms: C_10  and  N_11 
REMARK    3  A    between atoms: N_11  and  C_12 
REMARK    4  A    between atoms: C_12  and  C_13 
REMARK    5  A    between atoms: C_16  and  N_17 
REMARK       I    between atoms: N_17  and  C_18 
REMARK    6  A    between atoms: C_18  and  C_19 
ROOT
HETATM    1  C   UNL     1     -43.098  56.994 -55.223  1.00  0.00     0.161 C 
ENDROOT
BRANCH   1   2
HETATM    2  N   UNL     1     -41.924  56.171 -55.083  1.00  0.00    -0.357 N 
HETATM    3  C   UNL     1     -41.989  54.812 -55.304  1.00  0.00     0.222 C 
HETATM    4  O   UNL     1     -43.040  54.235 -55.575  1.00  0.00    -0.273 OA
HETATM    5  H   UNL     1     -41.048  56.598 -54.807  1.00  0.00     0.162 HD
BRANCH   3   6
HETATM    6  C   UNL     1     -40.662  54.092 -55.227  1.00  0.00     0.143 C 
BRANCH   6   7
HETATM    7  C   UNL     1     -40.405  53.284 -53.990  1.00  0.00    -0.022 A 
HETATM    8  C   UNL     1     -40.580  53.604 -52.598  1.00  0.00    -0.001 A 
HETATM    9  C   UNL     1     -41.052  54.722 -51.874  1.00  0.00     0.014 A 
HETATM   10  C   UNL     1     -40.161  52.491 -51.860  1.00  0.00     0.042 A 
HETATM   11  C   UNL     1     -41.069  54.699 -50.474  1.00  0.00     0.001 A 
HETATM   12  C   UNL     1     -40.633  53.578 -49.778  1.00  0.00     0.002 A 
HETATM   13  C   UNL     1     -40.176  52.450 -50.459  1.00  0.00     0.030 A 
HETATM   14  N   UNL     1     -39.775  51.527 -52.756  1.00  0.00    -0.365 N 
HETATM   15  H   UNL     1     -39.440  50.609 -52.500  1.00  0.00     0.165 HD
HETATM   16  C   UNL     1     -39.910  51.990 -54.033  1.00  0.00     0.097 A 
ENDBRANCH   6   7
ENDBRANCH   3   6
ENDBRANCH   1   2
BRANCH   1  17
HETATM   17  C   UNL     1     -43.499  57.627 -53.919  1.00  0.00    -0.040 A 
HETATM   18  C   UNL     1     -43.934  56.842 -52.845  1.00  0.00     0.011 A 
HETATM   19  C   UNL     1     -44.265  57.429 -51.617  1.00  0.00     0.030 A 
HETATM   20  C   UNL     1     -44.169  58.810 -51.444  1.00  0.00     0.035 A 
HETATM   21  C   UNL     1     -43.772  59.599 -52.530  1.00  0.00     0.030 A 
HETATM   22  C   UNL     1     -43.446  59.015 -53.758  1.00  0.00     0.011 A 
BRANCH  20  23
HETATM   23  N   UNL     1     -44.419  59.473 -50.229  1.00  0.00    -0.321 N 
HETATM   24  C   UNL     1     -45.479  60.299 -49.900  1.00  0.00     0.279 C 
HETATM   25  O   UNL     1     -46.364  60.665 -50.666  1.00  0.00    -0.265 OA
HETATM   26  H   UNL     1     -43.770  59.300 -49.468  1.00  0.00     0.169 HD
BRANCH  24  27
HETATM   27  C   UNL     1     -45.454  60.703 -48.504  1.00  0.00     0.142 A 
HETATM   28  O   UNL     1     -46.130  59.953 -47.572  1.00  0.00    -0.317 OA
HETATM   29  C   UNL     1     -45.959  60.561 -46.370  1.00  0.00     0.143 A 
HETATM   30  C   UNL     1     -45.183  61.687 -46.503  1.00  0.00     0.027 A 
HETATM   31  C   UNL     1     -44.855  61.779 -47.878  1.00  0.00     0.045 A 
ENDBRANCH  24  27
ENDBRANCH  20  23
ENDBRANCH   1  17
TORSDOF 6
ENDMDL
MODEL 5
REMARK VINA RESULT:      -7.7      2.569      7.499
REMARK  6 active torsions:
REMARK  status: ('A' for Active; 'I' for Inactive)
REMARK    1  A    between atoms: C_8  and  C_9 
REMARK    2  A    between atoms: C_9  and  C_10 
REMARK       I    between atoms: C_10  and  N_11 
REMARK    3  A    between atoms: N_11  and  C_12 
REMARK    4  A    between atoms: C_12  and  C_13 
REMARK    5  A    between atoms: C_16  and  N_17 
REMARK       I    between atoms: N_17  and  C_18 
REMARK    6  A    between atoms: C_18  and  C_19 
ROOT
HETATM    1  C   UNL     1     -44.925  58.609 -53.571  1.00  0.00     0.161 C 
ENDROOT
BRANCH   1   2
HETATM    2  N   UNL     1     -45.496  58.909 -54.859  1.00  0.00    -0.357 N 
HETATM    3  C   UNL     1     -44.800  59.668 -55.775  1.00  0.00     0.222 C 
HETATM    4  O   UNL     1     -43.703  60.164 -55.527  1.00  0.00    -0.273 OA
HETATM    5  H   UNL     1     -46.422  58.567 -55.084  1.00  0.00     0.162 HD
BRANCH   3   6
HETATM    6  C   UNL     1     -45.473  59.812 -57.121  1.00  0.00     0.143 C 
BRANCH   6   7
HETATM    7  C   UNL     1     -45.699  58.549 -57.900  1.00  0.00    -0.022 A 
HETATM    8  C   UNL     1     -44.769  57.624 -58.491  1.00  0.00    -0.001 A 
HETATM    9  C   UNL     1     -43.362  57.518 -58.562  1.00  0.00     0.014 A 
HETATM   10  C   UNL     1     -45.520  56.628 -59.125  1.00  0.00     0.042 A 
HETATM   11  C   UNL     1     -42.769  56.460 -59.262  1.00  0.00     0.001 A 
HETATM   12  C   UNL     1     -43.552  55.497 -59.887  1.00  0.00     0.002 A 
HETATM   13  C   UNL     1     -44.944  55.559 -59.825  1.00  0.00     0.030 A 
HETATM   14  N   UNL     1     -46.845  56.913 -58.908  1.00  0.00    -0.365 N 
HETATM   15  H   UNL     1     -47.614  56.348 -59.240  1.00  0.00     0.165 HD
HETATM   16  C   UNL     1     -46.965  58.062 -58.181  1.00  0.00     0.097 A 
ENDBRANCH   6   7
ENDBRANCH   3   6
ENDBRANCH   1   2
BRANCH   1  17
HETATM   17  C   UNL     1     -44.238  57.271 -53.558  1.00  0.00    -0.040 A 
HETATM   18  C   UNL     1     -44.283  56.432 -54.678  1.00  0.00     0.011 A 
HETATM   19  C   UNL     1     -43.606  55.206 -54.681  1.00  0.00     0.030 A 
HETATM   20  C   UNL     1     -42.875  54.798 -53.565  1.00  0.00     0.035 A 
HETATM   21  C   UNL     1     -42.862  55.620 -52.431  1.00  0.00     0.030 A 
HETATM   22  C   UNL     1     -43.541  56.841 -52.425  1.00  0.00     0.011 A 
BRANCH  20  23
HETATM   23  N   UNL     1     -42.115  53.617 -53.508  1.00  0.00    -0.321 N 
HETATM   24  C   UNL     1     -40.829  53.395 -53.968  1.00  0.00     0.279 C 
HETATM   25  O   UNL     1     -40.147  54.200 -54.595  1.00  0.00    -0.265 OA
HETATM   26  H   UNL     1     -42.531  52.823 -53.030  1.00  0.00     0.169 HD
BRANCH  24  27
HETATM   27  C   UNL     1     -40.334  52.074 -53.619  1.00  0.00     0.142 A 
HETATM   28  O   UNL     1     -39.858  51.845 -52.352  1.00  0.00    -0.317 OA
HETATM   29  C   UNL     1     -39.446  50.551 -52.308  1.00  0.00     0.143 A 
HETATM   30  C   UNL     1     -39.649  49.938 -53.520  1.00  0.00     0.027 A 
HETATM   31  C   UNL     1     -40.224  50.917 -54.366  1.00  0.00     0.045 A 
ENDBRANCH  24  27
ENDBRANCH  20  23
ENDBRANCH   1  17
TORSDOF 6
ENDMDL
MODEL 6
REMARK VINA RESULT:      -7.6      2.590      7.624
REMARK  6 active torsions:
REMARK  status: ('A' for Active; 'I' for Inactive)
REMARK    1  A    between atoms: C_8  and  C_9 
REMARK    2  A    between atoms: C_9  and  C_10 
REMARK       I    between atoms: C_10  and  N_11 
REMARK    3  A    between atoms: N_11  and  C_12 
REMARK    4  A    between atoms: C_12  and  C_13 
REMARK    5  A    between atoms: C_16  and  N_17 
REMARK       I    between atoms: N_17  and  C_18 
REMARK    6  A    between atoms: C_18  and  C_19 
ROOT
HETATM    1  C   UNL     1     -43.639  58.839 -54.250  1.00  0.00     0.161 C 
ENDROOT
BRANCH   1   2
HETATM    2  N   UNL     1     -43.814  59.107 -55.655  1.00  0.00    -0.357 N 
HETATM    3  C   UNL     1     -42.767  59.583 -56.413  1.00  0.00     0.222 C 
HETATM    4  O   UNL     1     -41.667  59.850 -55.932  1.00  0.00    -0.273 OA
HETATM    5  H   UNL     1     -44.720  58.955 -56.080  1.00  0.00     0.162 HD
BRANCH   3   6
HETATM    6  C   UNL     1     -43.063  59.717 -57.890  1.00  0.00     0.143 C 
BRANCH   6   7
HETATM    7  C   UNL     1     -43.054  58.451 -58.696  1.00  0.00    -0.022 A 
HETATM    8  C   UNL     1     -44.133  57.627 -59.173  1.00  0.00    -0.001 A 
HETATM    9  C   UNL     1     -45.543  57.676 -59.104  1.00  0.00     0.014 A 
HETATM   10  C   UNL     1     -43.560  56.548 -59.856  1.00  0.00     0.042 A 
HETATM   11  C   UNL     1     -46.312  56.659 -59.685  1.00  0.00     0.001 A 
HETATM   12  C   UNL     1     -45.704  55.598 -60.344  1.00  0.00     0.002 A 
HETATM   13  C   UNL     1     -44.315  55.525 -60.446  1.00  0.00     0.030 A 
HETATM   14  N   UNL     1     -42.199  56.717 -59.821  1.00  0.00    -0.365 N 
HETATM   15  H   UNL     1     -41.533  56.091 -60.252  1.00  0.00     0.165 HD
HETATM   16  C   UNL     1     -41.883  57.849 -59.126  1.00  0.00     0.097 A 
ENDBRANCH   6   7
ENDBRANCH   3   6
ENDBRANCH   1   2
BRANCH   1  17
HETATM   17  C   UNL     1     -43.153  57.437 -54.002  1.00  0.00    -0.040 A 
HETATM   18  C   UNL     1     -43.862  56.335 -54.494  1.00  0.00     0.011 A 
HETATM   19  C   UNL     1     -43.385  55.032 -54.301  1.00  0.00     0.030 A 
HETATM   20  C   UNL     1     -42.192  54.811 -53.611  1.00  0.00     0.035 A 
HETATM   21  C   UNL     1     -41.502  55.911 -53.086  1.00  0.00     0.030 A 
HETATM   22  C   UNL     1     -41.980  57.211 -53.274  1.00  0.00     0.011 A 
BRANCH  20  23
HETATM   23  N   UNL     1     -41.609  53.544 -53.429  1.00  0.00    -0.321 N 
HETATM   24  C   UNL     1     -40.590  52.951 -54.154  1.00  0.00     0.279 C 
HETATM   25  O   UNL     1     -40.063  53.419 -55.158  1.00  0.00    -0.265 OA
HETATM   26  H   UNL     1     -41.936  52.995 -52.641  1.00  0.00     0.169 HD
BRANCH  24  27
HETATM   27  C   UNL     1     -40.174  51.679 -53.589  1.00  0.00     0.142 A 
HETATM   28  O   UNL     1     -39.834  51.609 -52.260  1.00  0.00    -0.317 OA
HETATM   29  C   UNL     1     -39.470  50.326 -52.008  1.00  0.00     0.143 A 
HETATM   30  C   UNL     1     -39.571  49.562 -53.145  1.00  0.00     0.027 A 
HETATM   31  C   UNL     1     -40.027  50.432 -54.165  1.00  0.00     0.045 A 
ENDBRANCH  24  27
ENDBRANCH  20  23
ENDBRANCH   1  17
TORSDOF 6
ENDMDL
MODEL 7
REMARK VINA RESULT:      -7.5      3.110      7.414
REMARK  6 active torsions:
REMARK  status: ('A' for Active; 'I' for Inactive)
REMARK    1  A    between atoms: C_8  and  C_9 
REMARK    2  A    between atoms: C_9  and  C_10 
REMARK       I    between atoms: C_10  and  N_11 
REMARK    3  A    between atoms: N_11  and  C_12 
REMARK    4  A    between atoms: C_12  and  C_13 
REMARK    5  A    between atoms: C_16  and  N_17 
REMARK       I    between atoms: N_17  and  C_18 
REMARK    6  A    between atoms: C_18  and  C_19 
ROOT
HETATM    1  C   UNL     1     -43.240  58.842 -52.505  1.00  0.00     0.161 C 
ENDROOT
BRANCH   1   2
HETATM    2  N   UNL     1     -43.281  59.473 -53.800  1.00  0.00    -0.357 N 
HETATM    3  C   UNL     1     -42.118  59.868 -54.424  1.00  0.00     0.222 C 
HETATM    4  O   UNL     1     -41.012  59.754 -53.899  1.00  0.00    -0.273 OA
HETATM    5  H   UNL     1     -44.176  59.637 -54.244  1.00  0.00     0.162 HD
BRANCH   3   6
HETATM    6  C   UNL     1     -42.303  60.416 -55.821  1.00  0.00     0.143 C 
BRANCH   6   7
HETATM    7  C   UNL     1     -42.208  59.432 -56.949  1.00  0.00    -0.022 A 
HETATM    8  C   UNL     1     -42.067  59.630 -58.368  1.00  0.00    -0.001 A 
HETATM    9  C   UNL     1     -41.946  60.750 -59.220  1.00  0.00     0.014 A 
HETATM   10  C   UNL     1     -42.053  58.364 -58.965  1.00  0.00     0.042 A 
HETATM   11  C   UNL     1     -41.842  60.573 -60.606  1.00  0.00     0.001 A 
HETATM   12  C   UNL     1     -41.844  59.298 -61.160  1.00  0.00     0.002 A 
HETATM   13  C   UNL     1     -41.945  58.168 -60.348  1.00  0.00     0.030 A 
HETATM   14  N   UNL     1     -42.154  57.436 -57.959  1.00  0.00    -0.365 N 
HETATM   15  H   UNL     1     -42.152  56.435 -58.101  1.00  0.00     0.165 HD
HETATM   16  C   UNL     1     -42.252  58.062 -56.750  1.00  0.00     0.097 A 
ENDBRANCH   6   7
ENDBRANCH   3   6
ENDBRANCH   1   2
BRANCH   1  17
HETATM   17  C   UNL     1     -42.814  57.402 -52.596  1.00  0.00    -0.040 A 
HETATM   18  C   UNL     1     -43.472  56.512 -53.453  1.00  0.00     0.011 A 
HETATM   19  C   UNL     1     -43.046  55.183 -53.569  1.00  0.00     0.030 A 
HETATM   20  C   UNL     1     -41.957  54.722 -52.829  1.00  0.00     0.035 A 
HETATM   21  C   UNL     1     -41.323  55.601 -51.942  1.00  0.00     0.030 A 
HETATM   22  C   UNL     1     -41.750  56.926 -51.822  1.00  0.00     0.011 A 
BRANCH  20  23
HETATM   23  N   UNL     1     -41.424  53.424 -52.933  1.00  0.00    -0.321 N 
HETATM   24  C   UNL     1     -40.517  52.936 -53.856  1.00  0.00     0.279 C 
HETATM   25  O   UNL     1     -40.072  53.557 -54.817  1.00  0.00    -0.265 OA
HETATM   26  H   UNL     1     -41.697  52.755 -52.220  1.00  0.00     0.169 HD
BRANCH  24  27
HETATM   27  C   UNL     1     -40.112  51.571 -53.568  1.00  0.00     0.142 A 
HETATM   28  O   UNL     1     -39.813  51.214 -52.275  1.00  0.00    -0.317 OA
HETATM   29  C   UNL     1     -39.449  49.906 -52.296  1.00  0.00     0.143 A 
HETATM   30  C   UNL     1     -39.509  49.407 -53.575  1.00  0.00     0.027 A 
HETATM   31  C   UNL     1     -39.939  50.478 -54.396  1.00  0.00     0.045 A 
ENDBRANCH  24  27
ENDBRANCH  20  23
ENDBRANCH   1  17
TORSDOF 6
ENDMDL
MODEL 8
REMARK VINA RESULT:      -7.5      2.729      8.035
REMARK  6 active torsions:
REMARK  status: ('A' for Active; 'I' for Inactive)
REMARK    1  A    between atoms: C_8  and  C_9 
REMARK    2  A    between atoms: C_9  and  C_10 
REMARK       I    between atoms: C_10  and  N_11 
REMARK    3  A    between atoms: N_11  and  C_12 
REMARK    4  A    between atoms: C_12  and  C_13 
REMARK    5  A    between atoms: C_16  and  N_17 
REMARK       I    between atoms: N_17  and  C_18 
REMARK    6  A    between atoms: C_18  and  C_19 
ROOT
HETATM    1  C   UNL     1     -42.717  60.341 -55.738  1.00  0.00     0.161 C 
ENDROOT
BRANCH   1   2
HETATM    2  N   UNL     1     -42.943  60.390 -57.160  1.00  0.00    -0.357 N 
HETATM    3  C   UNL     1     -41.906  60.663 -58.026  1.00  0.00     0.222 C 
HETATM    4  O   UNL     1     -40.770  60.926 -57.637  1.00  0.00    -0.273 OA
HETATM    5  H   UNL     1     -43.876  60.234 -57.520  1.00  0.00     0.162 HD
BRANCH   3   6
HETATM    6  C   UNL     1     -42.265  60.575 -59.492  1.00  0.00     0.143 C 
BRANCH   6   7
HETATM    7  C   UNL     1     -43.314  59.571 -59.870  1.00  0.00    -0.022 A 
HETATM    8  C   UNL     1     -43.305  58.133 -59.826  1.00  0.00    -0.001 A 
HETATM    9  C   UNL     1     -42.382  57.144 -59.419  1.00  0.00     0.014 A 
HETATM   10  C   UNL     1     -44.540  57.695 -60.319  1.00  0.00     0.042 A 
HETATM   11  C   UNL     1     -42.707  55.787 -59.536  1.00  0.00     0.001 A 
HETATM   12  C   UNL     1     -43.940  55.393 -60.042  1.00  0.00     0.002 A 
HETATM   13  C   UNL     1     -44.883  56.341 -60.439  1.00  0.00     0.030 A 
HETATM   14  N   UNL     1     -45.278  58.811 -60.624  1.00  0.00    -0.365 N 
HETATM   15  H   UNL     1     -46.221  58.792 -60.987  1.00  0.00     0.165 HD
HETATM   16  C   UNL     1     -44.554  59.939 -60.365  1.00  0.00     0.097 A 
ENDBRANCH   6   7
ENDBRANCH   3   6
ENDBRANCH   1   2
BRANCH   1  17
HETATM   17  C   UNL     1     -42.303  58.969 -55.281  1.00  0.00    -0.040 A 
HETATM   18  C   UNL     1     -42.777  57.824 -55.932  1.00  0.00     0.011 A 
HETATM   19  C   UNL     1     -42.356  56.549 -55.535  1.00  0.00     0.030 A 
HETATM   20  C   UNL     1     -41.457  56.398 -54.479  1.00  0.00     0.035 A 
HETATM   21  C   UNL     1     -41.012  57.541 -53.803  1.00  0.00     0.030 A 
HETATM   22  C   UNL     1     -41.435  58.814 -54.196  1.00  0.00     0.011 A 
BRANCH  20  23
HETATM   23  N   UNL     1     -40.934  55.162 -54.058  1.00  0.00    -0.321 N 
HETATM   24  C   UNL     1     -41.552  54.171 -53.317  1.00  0.00     0.279 C 
HETATM   25  O   UNL     1     -42.672  54.244 -52.821  1.00  0.00    -0.265 OA
HETATM   26  H   UNL     1     -39.994  54.930 -54.366  1.00  0.00     0.169 HD
BRANCH  24  27
HETATM   27  C   UNL     1     -40.728  52.982 -53.183  1.00  0.00     0.142 A 
HETATM   28  O   UNL     1     -40.192  52.667 -51.958  1.00  0.00    -0.317 OA
HETATM   29  C   UNL     1     -39.458  51.536 -52.122  1.00  0.00     0.143 A 
HETATM   30  C   UNL     1     -39.512  51.110 -53.428  1.00  0.00     0.027 A 
HETATM   31  C   UNL     1     -40.332  52.039 -54.112  1.00  0.00     0.045 A 
ENDBRANCH  24  27
ENDBRANCH  20  23
ENDBRANCH   1  17
TORSDOF 6
ENDMDL
MODEL 9
REMARK VINA RESULT:      -7.5     15.586     19.177
REMARK  6 active torsions:
REMARK  status: ('A' for Active; 'I' for Inactive)
REMARK    1  A    between atoms: C_8  and  C_9 
REMARK    2  A    between atoms: C_9  and  C_10 
REMARK       I    between atoms: C_10  and  N_11 
REMARK    3  A    between atoms: N_11  and  C_12 
REMARK    4  A    between atoms: C_12  and  C_13 
REMARK    5  A    between atoms: C_16  and  N_17 
REMARK       I    between atoms: N_17  and  C_18 
REMARK    6  A    between atoms: C_18  and  C_19 
ROOT
HETATM    1  C   UNL     1     -37.031  42.069 -58.780  1.00  0.00     0.161 C 
ENDROOT
BRANCH   1   2
HETATM    2  N   UNL     1     -37.956  41.000 -59.058  1.00  0.00    -0.357 N 
HETATM    3  C   UNL     1     -37.509  39.804 -59.576  1.00  0.00     0.222 C 
HETATM    4  O   UNL     1     -36.333  39.608 -59.873  1.00  0.00    -0.273 OA
HETATM    5  H   UNL     1     -38.943  41.138 -58.880  1.00  0.00     0.162 HD
BRANCH   3   6
HETATM    6  C   UNL     1     -38.572  38.737 -59.716  1.00  0.00     0.143 C 
BRANCH   6   7
HETATM    7  C   UNL     1     -38.994  38.385 -61.112  1.00  0.00    -0.022 A 
HETATM    8  C   UNL     1     -40.286  38.058 -61.655  1.00  0.00    -0.001 A 
HETATM    9  C   UNL     1     -41.598  37.960 -61.141  1.00  0.00     0.014 A 
HETATM   10  C   UNL     1     -40.108  37.788 -63.016  1.00  0.00     0.042 A 
HETATM   11  C   UNL     1     -42.657  37.584 -61.977  1.00  0.00     0.001 A 
HETATM   12  C   UNL     1     -42.435  37.313 -63.322  1.00  0.00     0.002 A 
HETATM   13  C   UNL     1     -41.156  37.415 -63.869  1.00  0.00     0.030 A 
HETATM   14  N   UNL     1     -38.778  37.968 -63.299  1.00  0.00    -0.365 N 
HETATM   15  H   UNL     1     -38.367  37.856 -64.216  1.00  0.00     0.165 HD
HETATM   16  C   UNL     1     -38.100  38.320 -62.168  1.00  0.00     0.097 A 
ENDBRANCH   6   7
ENDBRANCH   3   6
ENDBRANCH   1   2
BRANCH   1  17
HETATM   17  C   UNL     1     -36.381  41.913 -57.432  1.00  0.00    -0.040 A 
HETATM   18  C   UNL     1     -37.120  42.088 -56.256  1.00  0.00     0.011 A 
HETATM   19  C   UNL     1     -36.524  41.900 -55.002  1.00  0.00     0.030 A 
HETATM   20  C   UNL     1     -35.181  41.536 -54.904  1.00  0.00     0.035 A 
HETATM   21  C   UNL     1     -34.432  41.399 -56.079  1.00  0.00     0.030 A 
HETATM   22  C   UNL     1     -35.024  41.591 -57.331  1.00  0.00     0.011 A 
BRANCH  20  23
HETATM   23  N   UNL     1     -34.523  41.264 -53.691  1.00  0.00    -0.321 N 
HETATM   24  C   UNL     1     -34.544  40.102 -52.940  1.00  0.00     0.279 C 
HETATM   25  O   UNL     1     -35.227  39.111 -53.178  1.00  0.00    -0.265 OA
HETATM   26  H   UNL     1     -33.913  41.988 -53.325  1.00  0.00     0.169 HD
BRANCH  24  27
HETATM   27  C   UNL     1     -33.639  40.159 -51.805  1.00  0.00     0.142 A 
HETATM   28  O   UNL     1     -32.310  39.861 -51.985  1.00  0.00    -0.317 OA
HETATM   29  C   UNL     1     -31.708  39.971 -50.773  1.00  0.00     0.143 A 
HETATM   30  C   UNL     1     -32.619  40.336 -49.812  1.00  0.00     0.027 A 
HETATM   31  C   UNL     1     -33.864  40.461 -50.475  1.00  0.00     0.045 A 
ENDBRANCH  24  27
ENDBRANCH  20  23
ENDBRANCH   1  17
TORSDOF 6
ENDMDL
MODEL 10
REMARK VINA RESULT:      -7.4      2.538      4.266
REMARK  6 active torsions:
REMARK  status: ('A' for Active; 'I' for Inactive)
REMARK    1  A    between atoms: C_8  and  C_9 
REMARK    2  A    between atoms: C_9  and  C_10 
REMARK       I    between atoms: C_10  and  N_11 
REMARK    3  A    between atoms: N_11  and  C_12 
REMARK    4  A    between atoms: C_12  and  C_13 
REMARK    5  A    between atoms: C_16  and  N_17 
REMARK       I    between atoms: N_17  and  C_18 
REMARK    6  A    between atoms: C_18  and  C_19 
ROOT
HETATM    1  C   UNL     1     -42.166  56.757 -56.489  1.00  0.00     0.161 C 
ENDROOT
BRANCH   1   2
HETATM    2  N   UNL     1     -42.588  55.727 -55.574  1.00  0.00    -0.357 N 
HETATM    3  C   UNL     1     -41.743  55.281 -54.582  1.00  0.00     0.222 C 
HETATM    4  O   UNL     1     -40.590  55.691 -54.459  1.00  0.00    -0.273 OA
HETATM    5  H   UNL     1     -43.511  55.322 -55.674  1.00  0.00     0.162 HD
BRANCH   3   6
HETATM    6  C   UNL     1     -42.355  54.278 -53.630  1.00  0.00     0.143 C 
BRANCH   6   7
HETATM    7  C   UNL     1     -41.402  53.407 -52.865  1.00  0.00    -0.022 A 
HETATM    8  C   UNL     1     -40.769  52.163 -53.215  1.00  0.00    -0.001 A 
HETATM    9  C   UNL     1     -40.767  51.319 -54.348  1.00  0.00     0.014 A 
HETATM   10  C   UNL     1     -39.993  51.769 -52.119  1.00  0.00     0.042 A 
HETATM   11  C   UNL     1     -40.026  50.130 -54.339  1.00  0.00     0.001 A 
HETATM   12  C   UNL     1     -39.276  49.770 -53.226  1.00  0.00     0.002 A 
HETATM   13  C   UNL     1     -39.242  50.586 -52.095  1.00  0.00     0.030 A 
HETATM   14  N   UNL     1     -40.122  52.739 -51.156  1.00  0.00    -0.365 N 
HETATM   15  H   UNL     1     -39.655  52.721 -50.260  1.00  0.00     0.165 HD
HETATM   16  C   UNL     1     -40.966  53.721 -51.588  1.00  0.00     0.097 A 
ENDBRANCH   6   7
ENDBRANCH   3   6
ENDBRANCH   1   2
BRANCH   1  17
HETATM   17  C   UNL     1     -43.094  56.877 -57.667  1.00  0.00    -0.040 A 
HETATM   18  C   UNL     1     -43.004  55.988 -58.744  1.00  0.00     0.011 A 
HETATM   19  C   UNL     1     -43.898  56.074 -59.819  1.00  0.00     0.030 A 
HETATM   20  C   UNL     1     -44.894  57.051 -59.836  1.00  0.00     0.035 A 
HETATM   21  C   UNL     1     -44.960  57.964 -58.776  1.00  0.00     0.030 A 
HETATM   22  C   UNL     1     -44.066  57.883 -57.705  1.00  0.00     0.011 A 
BRANCH  20  23
HETATM   23  N   UNL     1     -45.870  57.166 -60.841  1.00  0.00    -0.321 N 
HETATM   24  C   UNL     1     -47.144  56.627 -60.873  1.00  0.00     0.279 C 
HETATM   25  O   UNL     1     -47.619  55.868 -60.034  1.00  0.00    -0.265 OA
HETATM   26  H   UNL     1     -45.644  57.754 -61.637  1.00  0.00     0.169 HD
BRANCH  24  27
HETATM   27  C   UNL     1     -47.905  57.068 -62.030  1.00  0.00     0.142 A 
HETATM   28  O   UNL     1     -47.976  56.260 -63.139  1.00  0.00    -0.317 OA
HETATM   29  C   UNL     1     -48.720  56.917 -64.064  1.00  0.00     0.143 A 
HETATM   30  C   UNL     1     -49.136  58.133 -63.577  1.00  0.00     0.027 A 
HETATM   31  C   UNL     1     -48.613  58.231 -62.265  1.00  0.00     0.045 A 
ENDBRANCH  24  27
ENDBRANCH  20  23
ENDBRANCH   1  17
TORSDOF 6
ENDMDL
