MODEL 1
REMARK VINA RESULT:      -8.2      0.000      0.000
REMARK  9 active torsions:
REMARK  status: ('A' for Active; 'I' for Inactive)
REMARK    1  A    between atoms: C_2  and  O_3 
REMARK    2  A    between atoms: O_3  and  C_4 
REMARK    3  A    between atoms: C_7  and  N_8 
REMARK    4  A    between atoms: C_12  and  N_13 
REMARK       I    between atoms: N_13  and  C_14 
REMARK       I    between atoms: C_14  and  N_15 
REMARK    5  A    between atoms: N_15  and  C_16 
REMARK    6  A    between atoms: C_16  and  C_17 
REMARK    7  A    between atoms: C_17  and  C_18 
REMARK    8  A    between atoms: C_21  and  S_22 
REMARK    9  A    between atoms: S_22  and  N_23 
ROOT
HETATM    1  N   UNL     1     -42.472  58.462 -54.195  1.00  0.00    -0.336 N 
HETATM    2  C   UNL     1     -42.031  59.418 -55.046  1.00  0.00     0.316 C 
HETATM    3  N   UNL     1     -42.393  59.303 -56.348  1.00  0.00    -0.343 N 
HETATM    4  O   UNL     1     -41.313  60.312 -54.611  1.00  0.00    -0.248 OA
HETATM    5  H   UNL     1     -42.091  58.618 -53.268  1.00  0.00     0.164 HD
HETATM    6  H   UNL     1     -43.287  58.874 -56.533  1.00  0.00     0.164 HD
ENDROOT
BRANCH   1   7
HETATM    7  C   UNL     1     -43.243  57.233 -54.393  1.00  0.00     0.113 C 
HETATM    8  C   UNL     1     -44.110  56.833 -53.210  1.00  0.00     0.130 C 
HETATM    9  C   UNL     1     -43.414  55.636 -52.611  1.00  0.00     0.226 C 
HETATM   10  N   UNL     1     -42.391  55.223 -53.478  1.00  0.00    -0.316 N 
HETATM   11  O   UNL     1     -43.760  55.143 -51.547  1.00  0.00    -0.273 OA
HETATM   12  C   UNL     1     -42.397  56.003 -54.697  1.00  0.00     0.157 C 
BRANCH  10  13
HETATM   13  C   UNL     1     -41.582  54.056 -53.334  1.00  0.00     0.037 A 
HETATM   14  C   UNL     1     -41.510  53.071 -54.327  1.00  0.00     0.032 A 
HETATM   15  C   UNL     1     -40.672  51.953 -54.196  1.00  0.00     0.039 A 
HETATM   16  C   UNL     1     -39.889  51.796 -53.058  1.00  0.00     0.068 A 
HETATM   17  C   UNL     1     -39.984  52.737 -52.038  1.00  0.00     0.039 A 
HETATM   18  C   UNL     1     -40.812  53.858 -52.178  1.00  0.00     0.032 A 
BRANCH  16  19
HETATM   19  O   UNL     1     -39.028  50.761 -52.826  1.00  0.00    -0.352 OA
BRANCH  19  20
HETATM   20  C   UNL     1     -39.642  49.528 -52.442  1.00  0.00     0.171 C 
HETATM   21  C   UNL     1     -39.723  49.501 -50.926  1.00  0.00     0.034 C 
ENDBRANCH  19  20
ENDBRANCH  16  19
ENDBRANCH  10  13
ENDBRANCH   1   7
BRANCH   3  22
HETATM   22  C   UNL     1     -41.947  60.269 -57.340  1.00  0.00     0.129 C 
BRANCH  22  23
HETATM   23  C   UNL     1     -41.720  59.685 -58.745  1.00  0.00     0.058 C 
BRANCH  23  24
HETATM   24  C   UNL     1     -42.673  58.617 -59.246  1.00  0.00    -0.057 A 
HETATM   25  C   UNL     1     -44.025  58.847 -59.529  1.00  0.00     0.009 A 
HETATM   26  C   UNL     1     -44.851  57.813 -59.975  1.00  0.00     0.025 A 
HETATM   27  C   UNL     1     -44.319  56.537 -60.167  1.00  0.00     0.074 A 
HETATM   28  C   UNL     1     -42.974  56.283 -59.903  1.00  0.00     0.025 A 
HETATM   29  C   UNL     1     -42.159  57.321 -59.444  1.00  0.00     0.009 A 
BRANCH  27  30
HETATM   30  S   UNL     1     -45.372  55.238 -60.732  1.00  0.00     0.239 S 
HETATM   31  O   UNL     1     -46.753  55.606 -60.513  1.00  0.00    -0.206 OA
HETATM   32  O   UNL     1     -44.890  54.760 -62.006  1.00  0.00    -0.206 OA
BRANCH  30  33
HETATM   33  N   UNL     1     -45.062  54.013 -59.623  1.00  0.00    -0.225 NA
HETATM   34  H   UNL     1     -44.081  54.044 -59.345  1.00  0.00     0.136 HD
HETATM   35  H   UNL     1     -45.717  54.082 -58.844  1.00  0.00     0.136 HD
ENDBRANCH  30  33
ENDBRANCH  27  30
ENDBRANCH  23  24
ENDBRANCH  22  23
ENDBRANCH   3  22
TORSDOF 9
ENDMDL
MODEL 2
REMARK VINA RESULT:      -8.2      3.461      7.034
REMARK  9 active torsions:
REMARK  status: ('A' for Active; 'I' for Inactive)
REMARK    1  A    between atoms: C_2  and  O_3 
REMARK    2  A    between atoms: O_3  and  C_4 
REMARK    3  A    between atoms: C_7  and  N_8 
REMARK    4  A    between atoms: C_12  and  N_13 
REMARK       I    between atoms: N_13  and  C_14 
REMARK       I    between atoms: C_14  and  N_15 
REMARK    5  A    between atoms: N_15  and  C_16 
REMARK    6  A    between atoms: C_16  and  C_17 
REMARK    7  A    between atoms: C_17  and  C_18 
REMARK    8  A    between atoms: C_21  and  S_22 
REMARK    9  A    between atoms: S_22  and  N_23 
ROOT
HETATM    1  N   UNL     1     -44.119  59.237 -56.007  1.00  0.00    -0.336 N 
HETATM    2  C   UNL     1     -44.524  59.319 -54.719  1.00  0.00     0.316 C 
HETATM    3  N   UNL     1     -43.693  58.810 -53.775  1.00  0.00    -0.343 N 
HETATM    4  O   UNL     1     -45.619  59.814 -54.472  1.00  0.00    -0.248 OA
HETATM    5  H   UNL     1     -44.843  59.591 -56.624  1.00  0.00     0.164 HD
HETATM    6  H   UNL     1     -42.705  58.859 -53.969  1.00  0.00     0.164 HD
ENDROOT
BRANCH   1   7
HETATM    7  C   UNL     1     -42.948  58.635 -56.646  1.00  0.00     0.113 C 
HETATM    8  C   UNL     1     -43.265  57.732 -57.827  1.00  0.00     0.130 C 
HETATM    9  C   UNL     1     -43.011  56.333 -57.321  1.00  0.00     0.226 C 
HETATM   10  N   UNL     1     -42.383  56.410 -56.068  1.00  0.00    -0.316 N 
HETATM   11  O   UNL     1     -43.309  55.339 -57.967  1.00  0.00    -0.273 OA
HETATM   12  C   UNL     1     -42.094  57.783 -55.715  1.00  0.00     0.157 C 
BRANCH  10  13
HETATM   13  C   UNL     1     -41.868  55.313 -55.313  1.00  0.00     0.037 A 
HETATM   14  C   UNL     1     -40.576  54.812 -55.512  1.00  0.00     0.032 A 
HETATM   15  C   UNL     1     -40.063  53.767 -54.728  1.00  0.00     0.039 A 
HETATM   16  C   UNL     1     -40.843  53.195 -53.729  1.00  0.00     0.068 A 
HETATM   17  C   UNL     1     -42.147  53.644 -53.550  1.00  0.00     0.039 A 
HETATM   18  C   UNL     1     -42.651  54.696 -54.325  1.00  0.00     0.032 A 
BRANCH  16  19
HETATM   19  O   UNL     1     -40.447  52.185 -52.898  1.00  0.00    -0.352 OA
BRANCH  19  20
HETATM   20  C   UNL     1     -39.505  51.266 -53.456  1.00  0.00     0.171 C 
HETATM   21  C   UNL     1     -40.276  50.261 -54.293  1.00  0.00     0.034 C 
ENDBRANCH  19  20
ENDBRANCH  16  19
ENDBRANCH  10  13
ENDBRANCH   1   7
BRANCH   3  22
HETATM   22  C   UNL     1     -44.055  58.831 -52.366  1.00  0.00     0.129 C 
BRANCH  22  23
HETATM   23  C   UNL     1     -44.469  57.466 -51.792  1.00  0.00     0.058 C 
BRANCH  23  24
HETATM   24  C   UNL     1     -43.408  56.606 -51.134  1.00  0.00    -0.057 A 
HETATM   25  C   UNL     1     -42.085  57.017 -50.931  1.00  0.00     0.009 A 
HETATM   26  C   UNL     1     -41.154  56.167 -50.329  1.00  0.00     0.025 A 
HETATM   27  C   UNL     1     -41.550  54.899 -49.901  1.00  0.00     0.074 A 
HETATM   28  C   UNL     1     -42.864  54.469 -50.082  1.00  0.00     0.025 A 
HETATM   29  C   UNL     1     -43.784  55.321 -50.697  1.00  0.00     0.009 A 
BRANCH  27  30
HETATM   30  S   UNL     1     -40.365  53.834 -49.142  1.00  0.00     0.239 S 
HETATM   31  O   UNL     1     -39.033  54.330 -49.402  1.00  0.00    -0.206 OA
HETATM   32  O   UNL     1     -40.820  53.492 -47.816  1.00  0.00    -0.206 OA
BRANCH  30  33
HETATM   33  N   UNL     1     -40.500  52.431 -50.060  1.00  0.00    -0.225 NA
HETATM   34  H   UNL     1     -39.830  52.461 -50.828  1.00  0.00     0.136 HD
HETATM   35  H   UNL     1     -40.404  51.615 -49.455  1.00  0.00     0.136 HD
ENDBRANCH  30  33
ENDBRANCH  27  30
ENDBRANCH  23  24
ENDBRANCH  22  23
ENDBRANCH   3  22
TORSDOF 9
ENDMDL
MODEL 3
REMARK VINA RESULT:      -7.8      1.769      2.481
REMARK  9 active torsions:
REMARK  status: ('A' for Active; 'I' for Inactive)
REMARK    1  A    between atoms: C_2  and  O_3 
REMARK    2  A    between atoms: O_3  and  C_4 
REMARK    3  A    between atoms: C_7  and  N_8 
REMARK    4  A    between atoms: C_12  and  N_13 
REMARK       I    between atoms: N_13  and  C_14 
REMARK       I    between atoms: C_14  and  N_15 
REMARK    5  A    between atoms: N_15  and  C_16 
REMARK    6  A    between atoms: C_16  and  C_17 
REMARK    7  A    between atoms: C_17  and  C_18 
REMARK    8  A    between atoms: C_21  and  S_22 
REMARK    9  A    between atoms: S_22  and  N_23 
ROOT
HETATM    1  N   UNL     1     -41.584  60.212 -56.055  1.00  0.00    -0.336 N 
HETATM    2  C   UNL     1     -41.737  60.904 -57.208  1.00  0.00     0.316 C 
HETATM    3  N   UNL     1     -43.004  61.101 -57.650  1.00  0.00    -0.343 N 
HETATM    4  O   UNL     1     -40.736  61.288 -57.805  1.00  0.00    -0.248 OA
HETATM    5  H   UNL     1     -40.598  60.075 -55.858  1.00  0.00     0.164 HD
HETATM    6  H   UNL     1     -43.721  61.183 -56.945  1.00  0.00     0.164 HD
ENDROOT
BRANCH   1   7
HETATM    7  C   UNL     1     -42.533  59.541 -55.165  1.00  0.00     0.113 C 
HETATM    8  C   UNL     1     -42.231  59.699 -53.684  1.00  0.00     0.130 C 
HETATM    9  C   UNL     1     -41.726  58.345 -53.248  1.00  0.00     0.226 C 
HETATM   10  N   UNL     1     -41.936  57.425 -54.288  1.00  0.00    -0.316 N 
HETATM   11  O   UNL     1     -41.247  58.150 -52.140  1.00  0.00    -0.273 OA
HETATM   12  C   UNL     1     -42.649  58.039 -55.388  1.00  0.00     0.157 C 
BRANCH  10  13
HETATM   13  C   UNL     1     -41.708  56.018 -54.228  1.00  0.00     0.037 A 
HETATM   14  C   UNL     1     -42.465  55.174 -53.405  1.00  0.00     0.032 A 
HETATM   15  C   UNL     1     -42.265  53.785 -53.394  1.00  0.00     0.039 A 
HETATM   16  C   UNL     1     -41.295  53.211 -54.207  1.00  0.00     0.068 A 
HETATM   17  C   UNL     1     -40.499  54.037 -54.993  1.00  0.00     0.039 A 
HETATM   18  C   UNL     1     -40.709  55.421 -55.012  1.00  0.00     0.032 A 
BRANCH  16  19
HETATM   19  O   UNL     1     -41.021  51.875 -54.290  1.00  0.00    -0.352 OA
BRANCH  19  20
HETATM   20  C   UNL     1     -39.750  51.476 -53.771  1.00  0.00     0.171 C 
HETATM   21  C   UNL     1     -39.529  50.022 -54.148  1.00  0.00     0.034 C 
ENDBRANCH  19  20
ENDBRANCH  16  19
ENDBRANCH  10  13
ENDBRANCH   1   7
BRANCH   3  22
HETATM   22  C   UNL     1     -43.265  61.813 -58.892  1.00  0.00     0.129 C 
BRANCH  22  23
HETATM   23  C   UNL     1     -42.997  60.994 -60.166  1.00  0.00     0.058 C 
BRANCH  23  24
HETATM   24  C   UNL     1     -43.529  59.576 -60.239  1.00  0.00    -0.057 A 
HETATM   25  C   UNL     1     -44.890  59.255 -60.309  1.00  0.00     0.009 A 
HETATM   26  C   UNL     1     -45.312  57.925 -60.361  1.00  0.00     0.025 A 
HETATM   27  C   UNL     1     -44.366  56.898 -60.368  1.00  0.00     0.074 A 
HETATM   28  C   UNL     1     -43.004  57.191 -60.310  1.00  0.00     0.025 A 
HETATM   29  C   UNL     1     -42.592  58.524 -60.245  1.00  0.00     0.009 A 
BRANCH  27  30
HETATM   30  S   UNL     1     -44.910  55.221 -60.435  1.00  0.00     0.239 S 
HETATM   31  O   UNL     1     -44.939  54.777 -61.810  1.00  0.00    -0.206 OA
HETATM   32  O   UNL     1     -44.255  54.471 -59.391  1.00  0.00    -0.206 OA
BRANCH  30  33
HETATM   33  N   UNL     1     -46.524  55.347 -59.980  1.00  0.00    -0.225 NA
HETATM   34  H   UNL     1     -46.587  55.438 -58.966  1.00  0.00     0.136 HD
HETATM   35  H   UNL     1     -46.967  56.109 -60.494  1.00  0.00     0.136 HD
ENDBRANCH  30  33
ENDBRANCH  27  30
ENDBRANCH  23  24
ENDBRANCH  22  23
ENDBRANCH   3  22
TORSDOF 9
ENDMDL
MODEL 4
REMARK VINA RESULT:      -7.8      1.574      2.141
REMARK  9 active torsions:
REMARK  status: ('A' for Active; 'I' for Inactive)
REMARK    1  A    between atoms: C_2  and  O_3 
REMARK    2  A    between atoms: O_3  and  C_4 
REMARK    3  A    between atoms: C_7  and  N_8 
REMARK    4  A    between atoms: C_12  and  N_13 
REMARK       I    between atoms: N_13  and  C_14 
REMARK       I    between atoms: C_14  and  N_15 
REMARK    5  A    between atoms: N_15  and  C_16 
REMARK    6  A    between atoms: C_16  and  C_17 
REMARK    7  A    between atoms: C_17  and  C_18 
REMARK    8  A    between atoms: C_21  and  S_22 
REMARK    9  A    between atoms: S_22  and  N_23 
ROOT
HETATM    1  N   UNL     1     -44.635  59.065 -54.441  1.00  0.00    -0.336 N 
HETATM    2  C   UNL     1     -44.181  59.601 -55.598  1.00  0.00     0.316 C 
HETATM    3  N   UNL     1     -42.837  59.667 -55.764  1.00  0.00    -0.343 N 
HETATM    4  O   UNL     1     -44.995  60.021 -56.414  1.00  0.00    -0.248 OA
HETATM    5  H   UNL     1     -45.648  59.123 -54.402  1.00  0.00     0.164 HD
HETATM    6  H   UNL     1     -42.291  58.941 -55.328  1.00  0.00     0.164 HD
ENDROOT
BRANCH   1   7
HETATM    7  C   UNL     1     -43.958  58.571 -53.240  1.00  0.00     0.113 C 
HETATM    8  C   UNL     1     -42.637  59.256 -52.932  1.00  0.00     0.130 C 
HETATM    9  C   UNL     1     -41.584  58.228 -53.268  1.00  0.00     0.226 C 
HETATM   10  N   UNL     1     -42.212  56.997 -53.512  1.00  0.00    -0.316 N 
HETATM   11  O   UNL     1     -40.390  58.493 -53.279  1.00  0.00    -0.273 OA
HETATM   12  C   UNL     1     -43.636  57.082 -53.268  1.00  0.00     0.157 C 
BRANCH  10  13
HETATM   13  C   UNL     1     -41.560  55.748 -53.742  1.00  0.00     0.037 A 
HETATM   14  C   UNL     1     -41.107  55.365 -55.011  1.00  0.00     0.032 A 
HETATM   15  C   UNL     1     -40.423  54.157 -55.214  1.00  0.00     0.039 A 
HETATM   16  C   UNL     1     -40.184  53.300 -54.146  1.00  0.00     0.068 A 
HETATM   17  C   UNL     1     -40.671  53.638 -52.888  1.00  0.00     0.039 A 
HETATM   18  C   UNL     1     -41.341  54.850 -52.685  1.00  0.00     0.032 A 
BRANCH  16  19
HETATM   19  O   UNL     1     -39.519  52.109 -54.221  1.00  0.00    -0.352 OA
BRANCH  19  20
HETATM   20  C   UNL     1     -39.728  51.220 -53.121  1.00  0.00     0.171 C 
HETATM   21  C   UNL     1     -39.792  49.806 -53.670  1.00  0.00     0.034 C 
ENDBRANCH  19  20
ENDBRANCH  16  19
ENDBRANCH  10  13
ENDBRANCH   1   7
BRANCH   3  22
HETATM   22  C   UNL     1     -42.256  60.249 -56.965  1.00  0.00     0.129 C 
BRANCH  22  23
HETATM   23  C   UNL     1     -41.652  59.228 -57.942  1.00  0.00     0.058 C 
BRANCH  23  24
HETATM   24  C   UNL     1     -42.566  58.184 -58.554  1.00  0.00    -0.057 A 
HETATM   25  C   UNL     1     -42.826  56.936 -57.972  1.00  0.00     0.009 A 
HETATM   26  C   UNL     1     -43.669  56.015 -58.597  1.00  0.00     0.025 A 
HETATM   27  C   UNL     1     -44.282  56.347 -59.807  1.00  0.00     0.074 A 
HETATM   28  C   UNL     1     -44.049  57.586 -60.401  1.00  0.00     0.025 A 
HETATM   29  C   UNL     1     -43.193  58.496 -59.775  1.00  0.00     0.009 A 
BRANCH  27  30
HETATM   30  S   UNL     1     -45.346  55.175 -60.587  1.00  0.00     0.239 S 
HETATM   31  O   UNL     1     -46.724  55.550 -60.363  1.00  0.00    -0.206 OA
HETATM   32  O   UNL     1     -44.828  54.870 -61.899  1.00  0.00    -0.206 OA
BRANCH  30  33
HETATM   33  N   UNL     1     -45.108  53.796 -59.656  1.00  0.00    -0.225 NA
HETATM   34  H   UNL     1     -44.953  54.063 -58.683  1.00  0.00     0.136 HD
HETATM   35  H   UNL     1     -45.888  53.152 -59.791  1.00  0.00     0.136 HD
ENDBRANCH  30  33
ENDBRANCH  27  30
ENDBRANCH  23  24
ENDBRANCH  22  23
ENDBRANCH   3  22
TORSDOF 9
ENDMDL
MODEL 5
REMARK VINA RESULT:      -7.6      3.537      7.888
REMARK  9 active torsions:
REMARK  status: ('A' for Active; 'I' for Inactive)
REMARK    1  A    between atoms: C_2  and  O_3 
REMARK    2  A    between atoms: O_3  and  C_4 
REMARK    3  A    between atoms: C_7  and  N_8 
REMARK    4  A    between atoms: C_12  and  N_13 
REMARK       I    between atoms: N_13  and  C_14 
REMARK       I    between atoms: C_14  and  N_15 
REMARK    5  A    between atoms: N_15  and  C_16 
REMARK    6  A    between atoms: C_16  and  C_17 
REMARK    7  A    between atoms: C_17  and  C_18 
REMARK    8  A    between atoms: C_21  and  S_22 
REMARK    9  A    between atoms: S_22  and  N_23 
ROOT
HETATM    1  N   UNL     1     -44.136  57.589 -58.393  1.00  0.00    -0.336 N 
HETATM    2  C   UNL     1     -43.641  56.367 -58.087  1.00  0.00     0.316 C 
HETATM    3  N   UNL     1     -43.242  56.162 -56.807  1.00  0.00    -0.343 N 
HETATM    4  O   UNL     1     -43.550  55.526 -58.976  1.00  0.00    -0.248 OA
HETATM    5  H   UNL     1     -44.342  57.645 -59.385  1.00  0.00     0.164 HD
HETATM    6  H   UNL     1     -43.742  56.667 -56.092  1.00  0.00     0.164 HD
ENDROOT
BRANCH   1   7
HETATM    7  C   UNL     1     -44.287  58.823 -57.619  1.00  0.00     0.113 C 
HETATM    8  C   UNL     1     -43.255  59.894 -57.928  1.00  0.00     0.130 C 
HETATM    9  C   UNL     1     -42.346  59.913 -56.723  1.00  0.00     0.226 C 
HETATM   10  N   UNL     1     -42.915  59.121 -55.713  1.00  0.00    -0.316 N 
HETATM   11  O   UNL     1     -41.309  60.559 -56.695  1.00  0.00    -0.273 OA
HETATM   12  C   UNL     1     -44.217  58.630 -56.110  1.00  0.00     0.157 C 
BRANCH  10  13
HETATM   13  C   UNL     1     -42.429  58.977 -54.379  1.00  0.00     0.037 A 
HETATM   14  C   UNL     1     -41.850  57.787 -53.920  1.00  0.00     0.032 A 
HETATM   15  C   UNL     1     -41.330  57.675 -52.621  1.00  0.00     0.039 A 
HETATM   16  C   UNL     1     -41.386  58.757 -51.750  1.00  0.00     0.068 A 
HETATM   17  C   UNL     1     -42.004  59.930 -52.169  1.00  0.00     0.039 A 
HETATM   18  C   UNL     1     -42.510  60.043 -53.470  1.00  0.00     0.032 A 
BRANCH  16  19
HETATM   19  O   UNL     1     -40.903  58.769 -50.472  1.00  0.00    -0.352 OA
BRANCH  19  20
HETATM   20  C   UNL     1     -40.006  59.839 -50.166  1.00  0.00     0.171 C 
HETATM   21  C   UNL     1     -38.616  59.424 -50.613  1.00  0.00     0.034 C 
ENDBRANCH  19  20
ENDBRANCH  16  19
ENDBRANCH  10  13
ENDBRANCH   1   7
BRANCH   3  22
HETATM   22  C   UNL     1     -42.675  54.889 -56.391  1.00  0.00     0.129 C 
BRANCH  22  23
HETATM   23  C   UNL     1     -43.370  54.244 -55.181  1.00  0.00     0.058 C 
BRANCH  23  24
HETATM   24  C   UNL     1     -42.579  54.076 -53.898  1.00  0.00    -0.057 A 
HETATM   25  C   UNL     1     -41.225  53.720 -53.856  1.00  0.00     0.009 A 
HETATM   26  C   UNL     1     -40.561  53.569 -52.637  1.00  0.00     0.025 A 
HETATM   27  C   UNL     1     -41.245  53.799 -51.442  1.00  0.00     0.074 A 
HETATM   28  C   UNL     1     -42.590  54.165 -51.456  1.00  0.00     0.025 A 
HETATM   29  C   UNL     1     -43.250  54.300 -52.680  1.00  0.00     0.009 A 
BRANCH  27  30
HETATM   30  S   UNL     1     -40.395  53.605 -49.908  1.00  0.00     0.239 S 
HETATM   31  O   UNL     1     -40.409  52.213 -49.520  1.00  0.00    -0.206 OA
HETATM   32  O   UNL     1     -39.184  54.390 -49.937  1.00  0.00    -0.206 OA
BRANCH  30  33
HETATM   33  N   UNL     1     -41.426  54.373 -48.824  1.00  0.00    -0.225 NA
HETATM   34  H   UNL     1     -40.891  54.708 -48.023  1.00  0.00     0.136 HD
HETATM   35  H   UNL     1     -41.951  55.102 -49.308  1.00  0.00     0.136 HD
ENDBRANCH  30  33
ENDBRANCH  27  30
ENDBRANCH  23  24
ENDBRANCH  22  23
ENDBRANCH   3  22
TORSDOF 9
ENDMDL
MODEL 6
REMARK VINA RESULT:      -7.6      2.170      2.764
REMARK  9 active torsions:
REMARK  status: ('A' for Active; 'I' for Inactive)
REMARK    1  A    between atoms: C_2  and  O_3 
REMARK    2  A    between atoms: O_3  and  C_4 
REMARK    3  A    between atoms: C_7  and  N_8 
REMARK    4  A    between atoms: C_12  and  N_13 
REMARK       I    between atoms: N_13  and  C_14 
REMARK       I    between atoms: C_14  and  N_15 
REMARK    5  A    between atoms: N_15  and  C_16 
REMARK    6  A    between atoms: C_16  and  C_17 
REMARK    7  A    between atoms: C_17  and  C_18 
REMARK    8  A    between atoms: C_21  and  S_22 
REMARK    9  A    between atoms: S_22  and  N_23 
ROOT
HETATM    1  N   UNL     1     -44.223  59.485 -54.206  1.00  0.00    -0.336 N 
HETATM    2  C   UNL     1     -44.718  60.417 -55.053  1.00  0.00     0.316 C 
HETATM    3  N   UNL     1     -45.951  60.192 -55.572  1.00  0.00    -0.343 N 
HETATM    4  O   UNL     1     -44.026  61.392 -55.330  1.00  0.00    -0.248 OA
HETATM    5  H   UNL     1     -43.277  59.728 -53.932  1.00  0.00     0.164 HD
HETATM    6  H   UNL     1     -46.599  59.682 -54.992  1.00  0.00     0.164 HD
ENDROOT
BRANCH   1   7
HETATM    7  C   UNL     1     -44.727  58.188 -53.751  1.00  0.00     0.113 C 
HETATM    8  C   UNL     1     -44.614  57.956 -52.253  1.00  0.00     0.130 C 
HETATM    9  C   UNL     1     -43.502  56.946 -52.103  1.00  0.00     0.226 C 
HETATM   10  N   UNL     1     -43.162  56.453 -53.372  1.00  0.00    -0.316 N 
HETATM   11  O   UNL     1     -43.040  56.639 -51.014  1.00  0.00    -0.273 OA
HETATM   12  C   UNL     1     -44.041  56.987 -54.390  1.00  0.00     0.157 C 
BRANCH  10  13
HETATM   13  C   UNL     1     -42.243  55.396 -53.648  1.00  0.00     0.037 A 
HETATM   14  C   UNL     1     -41.220  55.527 -54.596  1.00  0.00     0.032 A 
HETATM   15  C   UNL     1     -40.292  54.499 -54.822  1.00  0.00     0.039 A 
HETATM   16  C   UNL     1     -40.374  53.311 -54.104  1.00  0.00     0.068 A 
HETATM   17  C   UNL     1     -41.414  53.143 -53.196  1.00  0.00     0.039 A 
HETATM   18  C   UNL     1     -42.331  54.175 -52.963  1.00  0.00     0.032 A 
BRANCH  16  19
HETATM   19  O   UNL     1     -39.522  52.250 -54.229  1.00  0.00    -0.352 OA
BRANCH  19  20
HETATM   20  C   UNL     1     -39.883  51.083 -53.485  1.00  0.00     0.171 C 
HETATM   21  C   UNL     1     -39.878  49.903 -54.440  1.00  0.00     0.034 C 
ENDBRANCH  19  20
ENDBRANCH  16  19
ENDBRANCH  10  13
ENDBRANCH   1   7
BRANCH   3  22
HETATM   22  C   UNL     1     -46.554  61.126 -56.510  1.00  0.00     0.129 C 
BRANCH  22  23
HETATM   23  C   UNL     1     -47.004  60.497 -57.839  1.00  0.00     0.058 C 
BRANCH  23  24
HETATM   24  C   UNL     1     -46.213  59.327 -58.389  1.00  0.00    -0.057 A 
HETATM   25  C   UNL     1     -44.841  59.374 -58.668  1.00  0.00     0.009 A 
HETATM   26  C   UNL     1     -44.176  58.261 -59.188  1.00  0.00     0.025 A 
HETATM   27  C   UNL     1     -44.879  57.076 -59.411  1.00  0.00     0.074 A 
HETATM   28  C   UNL     1     -46.243  57.000 -59.132  1.00  0.00     0.025 A 
HETATM   29  C   UNL     1     -46.902  58.122 -58.625  1.00  0.00     0.009 A 
BRANCH  27  30
HETATM   30  S   UNL     1     -44.029  55.677 -60.068  1.00  0.00     0.239 S 
HETATM   31  O   UNL     1     -42.693  56.064 -60.461  1.00  0.00    -0.206 OA
HETATM   32  O   UNL     1     -44.289  54.531 -59.230  1.00  0.00    -0.206 OA
BRANCH  30  33
HETATM   33  N   UNL     1     -44.848  55.400 -61.510  1.00  0.00    -0.225 NA
HETATM   34  H   UNL     1     -45.431  56.207 -61.732  1.00  0.00     0.136 HD
HETATM   35  H   UNL     1     -44.181  55.155 -62.242  1.00  0.00     0.136 HD
ENDBRANCH  30  33
ENDBRANCH  27  30
ENDBRANCH  23  24
ENDBRANCH  22  23
ENDBRANCH   3  22
TORSDOF 9
ENDMDL
MODEL 7
REMARK VINA RESULT:      -7.5      2.234      2.786
REMARK  9 active torsions:
REMARK  status: ('A' for Active; 'I' for Inactive)
REMARK    1  A    between atoms: C_2  and  O_3 
REMARK    2  A    between atoms: O_3  and  C_4 
REMARK    3  A    between atoms: C_7  and  N_8 
REMARK    4  A    between atoms: C_12  and  N_13 
REMARK       I    between atoms: N_13  and  C_14 
REMARK       I    between atoms: C_14  and  N_15 
REMARK    5  A    between atoms: N_15  and  C_16 
REMARK    6  A    between atoms: C_16  and  C_17 
REMARK    7  A    between atoms: C_17  and  C_18 
REMARK    8  A    between atoms: C_21  and  S_22 
REMARK    9  A    between atoms: S_22  and  N_23 
ROOT
HETATM    1  N   UNL     1     -43.783  58.955 -54.223  1.00  0.00    -0.336 N 
HETATM    2  C   UNL     1     -44.837  59.762 -54.485  1.00  0.00     0.316 C 
HETATM    3  N   UNL     1     -44.973  60.212 -55.757  1.00  0.00    -0.343 N 
HETATM    4  O   UNL     1     -45.592  60.066 -53.566  1.00  0.00    -0.248 OA
HETATM    5  H   UNL     1     -43.751  58.732 -53.234  1.00  0.00     0.164 HD
HETATM    6  H   UNL     1     -44.645  59.602 -56.490  1.00  0.00     0.164 HD
ENDROOT
BRANCH   1   7
HETATM    7  C   UNL     1     -42.662  58.487 -55.040  1.00  0.00     0.113 C 
HETATM    8  C   UNL     1     -43.066  57.788 -56.328  1.00  0.00     0.130 C 
HETATM    9  C   UNL     1     -42.769  56.329 -56.083  1.00  0.00     0.226 C 
HETATM   10  N   UNL     1     -42.046  56.206 -54.887  1.00  0.00    -0.316 N 
HETATM   11  O   UNL     1     -43.112  55.451 -56.862  1.00  0.00    -0.273 OA
HETATM   12  C   UNL     1     -41.735  57.507 -54.332  1.00  0.00     0.157 C 
BRANCH  10  13
HETATM   13  C   UNL     1     -41.470  55.008 -54.367  1.00  0.00     0.037 A 
HETATM   14  C   UNL     1     -41.761  54.539 -53.080  1.00  0.00     0.032 A 
HETATM   15  C   UNL     1     -41.228  53.333 -52.599  1.00  0.00     0.039 A 
HETATM   16  C   UNL     1     -40.384  52.572 -53.400  1.00  0.00     0.068 A 
HETATM   17  C   UNL     1     -40.042  53.047 -54.661  1.00  0.00     0.039 A 
HETATM   18  C   UNL     1     -40.585  54.244 -55.144  1.00  0.00     0.032 A 
BRANCH  16  19
HETATM   19  O   UNL     1     -39.818  51.380 -53.045  1.00  0.00    -0.352 OA
BRANCH  19  20
HETATM   20  C   UNL     1     -39.467  51.255 -51.665  1.00  0.00     0.171 C 
HETATM   21  C   UNL     1     -39.555  49.786 -51.294  1.00  0.00     0.034 C 
ENDBRANCH  19  20
ENDBRANCH  16  19
ENDBRANCH  10  13
ENDBRANCH   1   7
BRANCH   3  22
HETATM   22  C   UNL     1     -46.061  61.103 -56.127  1.00  0.00     0.129 C 
BRANCH  22  23
HETATM   23  C   UNL     1     -46.694  60.805 -57.496  1.00  0.00     0.058 C 
BRANCH  23  24
HETATM   24  C   UNL     1     -46.284  59.538 -58.221  1.00  0.00    -0.057 A 
HETATM   25  C   UNL     1     -46.999  58.335 -58.156  1.00  0.00     0.009 A 
HETATM   26  C   UNL     1     -46.557  57.200 -58.839  1.00  0.00     0.025 A 
HETATM   27  C   UNL     1     -45.400  57.268 -59.618  1.00  0.00     0.074 A 
HETATM   28  C   UNL     1     -44.676  58.456 -59.709  1.00  0.00     0.025 A 
HETATM   29  C   UNL     1     -45.119  59.582 -59.011  1.00  0.00     0.009 A 
BRANCH  27  30
HETATM   30  S   UNL     1     -44.851  55.827 -60.477  1.00  0.00     0.239 S 
HETATM   31  O   UNL     1     -45.821  55.468 -61.487  1.00  0.00    -0.206 OA
HETATM   32  O   UNL     1     -43.444  55.958 -60.766  1.00  0.00    -0.206 OA
BRANCH  30  33
HETATM   33  N   UNL     1     -44.981  54.633 -59.300  1.00  0.00    -0.225 NA
HETATM   34  H   UNL     1     -45.771  54.841 -58.689  1.00  0.00     0.136 HD
HETATM   35  H   UNL     1     -45.028  53.717 -59.745  1.00  0.00     0.136 HD
ENDBRANCH  30  33
ENDBRANCH  27  30
ENDBRANCH  23  24
ENDBRANCH  22  23
ENDBRANCH   3  22
TORSDOF 9
ENDMDL
MODEL 8
REMARK VINA RESULT:      -7.5      2.879      4.417
REMARK  9 active torsions:
REMARK  status: ('A' for Active; 'I' for Inactive)
REMARK    1  A    between atoms: C_2  and  O_3 
REMARK    2  A    between atoms: O_3  and  C_4 
REMARK    3  A    between atoms: C_7  and  N_8 
REMARK    4  A    between atoms: C_12  and  N_13 
REMARK       I    between atoms: N_13  and  C_14 
REMARK       I    between atoms: C_14  and  N_15 
REMARK    5  A    between atoms: N_15  and  C_16 
REMARK    6  A    between atoms: C_16  and  C_17 
REMARK    7  A    between atoms: C_17  and  C_18 
REMARK    8  A    between atoms: C_21  and  S_22 
REMARK    9  A    between atoms: S_22  and  N_23 
ROOT
HETATM    1  N   UNL     1     -42.557  56.040 -57.800  1.00  0.00    -0.336 N 
HETATM    2  C   UNL     1     -43.154  55.793 -58.989  1.00  0.00     0.316 C 
HETATM    3  N   UNL     1     -44.477  55.495 -58.969  1.00  0.00    -0.343 N 
HETATM    4  O   UNL     1     -42.473  55.821 -60.009  1.00  0.00    -0.248 OA
HETATM    5  H   UNL     1     -41.562  56.190 -57.932  1.00  0.00     0.164 HD
HETATM    6  H   UNL     1     -45.025  55.923 -58.239  1.00  0.00     0.164 HD
ENDROOT
BRANCH   1   7
HETATM    7  C   UNL     1     -43.037  55.994 -56.417  1.00  0.00     0.113 C 
HETATM    8  C   UNL     1     -42.484  57.087 -55.518  1.00  0.00     0.130 C 
HETATM    9  C   UNL     1     -41.506  56.380 -54.611  1.00  0.00     0.226 C 
HETATM   10  N   UNL     1     -41.644  54.994 -54.785  1.00  0.00    -0.316 N 
HETATM   11  O   UNL     1     -40.762  56.985 -53.852  1.00  0.00    -0.273 OA
HETATM   12  C   UNL     1     -42.732  54.690 -55.690  1.00  0.00     0.157 C 
BRANCH  10  13
HETATM   13  C   UNL     1     -40.989  53.978 -54.026  1.00  0.00     0.037 A 
HETATM   14  C   UNL     1     -40.413  52.852 -54.628  1.00  0.00     0.032 A 
HETATM   15  C   UNL     1     -39.728  51.886 -53.876  1.00  0.00     0.039 A 
HETATM   16  C   UNL     1     -39.610  52.026 -52.497  1.00  0.00     0.068 A 
HETATM   17  C   UNL     1     -40.220  53.110 -51.875  1.00  0.00     0.039 A 
HETATM   18  C   UNL     1     -40.892  54.079 -52.630  1.00  0.00     0.032 A 
BRANCH  16  19
HETATM   19  O   UNL     1     -38.957  51.160 -51.667  1.00  0.00    -0.352 OA
BRANCH  19  20
HETATM   20  C   UNL     1     -39.579  49.883 -51.501  1.00  0.00     0.171 C 
HETATM   21  C   UNL     1     -40.262  49.871 -50.145  1.00  0.00     0.034 C 
ENDBRANCH  19  20
ENDBRANCH  16  19
ENDBRANCH  10  13
ENDBRANCH   1   7
BRANCH   3  22
HETATM   22  C   UNL     1     -45.198  55.192 -60.195  1.00  0.00     0.129 C 
BRANCH  22  23
HETATM   23  C   UNL     1     -46.343  56.165 -60.521  1.00  0.00     0.058 C 
BRANCH  23  24
HETATM   24  C   UNL     1     -46.370  57.510 -59.822  1.00  0.00    -0.057 A 
HETATM   25  C   UNL     1     -45.733  58.657 -60.312  1.00  0.00     0.009 A 
HETATM   26  C   UNL     1     -45.786  59.863 -59.609  1.00  0.00     0.025 A 
HETATM   27  C   UNL     1     -46.503  59.936 -58.413  1.00  0.00     0.074 A 
HETATM   28  C   UNL     1     -47.155  58.811 -57.909  1.00  0.00     0.025 A 
HETATM   29  C   UNL     1     -47.085  57.606 -58.613  1.00  0.00     0.009 A 
BRANCH  27  30
HETATM   30  S   UNL     1     -46.564  61.464 -57.534  1.00  0.00     0.239 S 
HETATM   31  O   UNL     1     -45.460  61.531 -56.604  1.00  0.00    -0.206 OA
HETATM   32  O   UNL     1     -46.863  62.530 -58.460  1.00  0.00    -0.206 OA
BRANCH  30  33
HETATM   33  N   UNL     1     -47.934  61.276 -56.576  1.00  0.00    -0.225 NA
HETATM   34  H   UNL     1     -47.813  61.789 -55.703  1.00  0.00     0.136 HD
HETATM   35  H   UNL     1     -48.762  61.546 -57.106  1.00  0.00     0.136 HD
ENDBRANCH  30  33
ENDBRANCH  27  30
ENDBRANCH  23  24
ENDBRANCH  22  23
ENDBRANCH   3  22
TORSDOF 9
ENDMDL
MODEL 9
REMARK VINA RESULT:      -7.4      2.892      8.206
REMARK  9 active torsions:
REMARK  status: ('A' for Active; 'I' for Inactive)
REMARK    1  A    between atoms: C_2  and  O_3 
REMARK    2  A    between atoms: O_3  and  C_4 
REMARK    3  A    between atoms: C_7  and  N_8 
REMARK    4  A    between atoms: C_12  and  N_13 
REMARK       I    between atoms: N_13  and  C_14 
REMARK       I    between atoms: C_14  and  N_15 
REMARK    5  A    between atoms: N_15  and  C_16 
REMARK    6  A    between atoms: C_16  and  C_17 
REMARK    7  A    between atoms: C_17  and  C_18 
REMARK    8  A    between atoms: C_21  and  S_22 
REMARK    9  A    between atoms: S_22  and  N_23 
ROOT
HETATM    1  N   UNL     1     -43.943  58.481 -52.282  1.00  0.00    -0.336 N 
HETATM    2  C   UNL     1     -43.828  57.442 -51.422  1.00  0.00     0.316 C 
HETATM    3  N   UNL     1     -42.611  56.851 -51.324  1.00  0.00    -0.343 N 
HETATM    4  O   UNL     1     -44.821  57.072 -50.804  1.00  0.00    -0.248 OA
HETATM    5  H   UNL     1     -44.905  58.801 -52.316  1.00  0.00     0.164 HD
HETATM    6  H   UNL     1     -41.808  57.443 -51.468  1.00  0.00     0.164 HD
ENDROOT
BRANCH   1   7
HETATM    7  C   UNL     1     -43.010  59.100 -53.225  1.00  0.00     0.113 C 
HETATM    8  C   UNL     1     -43.445  60.460 -53.744  1.00  0.00     0.130 C 
HETATM    9  C   UNL     1     -43.851  60.212 -55.177  1.00  0.00     0.226 C 
HETATM   10  N   UNL     1     -43.472  58.911 -55.539  1.00  0.00    -0.316 N 
HETATM   11  O   UNL     1     -44.398  61.067 -55.859  1.00  0.00    -0.273 OA
HETATM   12  C   UNL     1     -42.733  58.269 -54.472  1.00  0.00     0.157 C 
BRANCH  10  13
HETATM   13  C   UNL     1     -43.568  58.334 -56.841  1.00  0.00     0.037 A 
HETATM   14  C   UNL     1     -42.438  57.917 -57.557  1.00  0.00     0.032 A 
HETATM   15  C   UNL     1     -42.550  57.305 -58.815  1.00  0.00     0.039 A 
HETATM   16  C   UNL     1     -43.801  57.104 -59.387  1.00  0.00     0.068 A 
HETATM   17  C   UNL     1     -44.931  57.558 -58.715  1.00  0.00     0.039 A 
HETATM   18  C   UNL     1     -44.818  58.156 -57.454  1.00  0.00     0.032 A 
BRANCH  16  19
HETATM   19  O   UNL     1     -44.032  56.509 -60.595  1.00  0.00    -0.352 OA
BRANCH  19  20
HETATM   20  C   UNL     1     -45.024  55.480 -60.592  1.00  0.00     0.171 C 
HETATM   21  C   UNL     1     -44.505  54.335 -59.741  1.00  0.00     0.034 C 
ENDBRANCH  19  20
ENDBRANCH  16  19
ENDBRANCH  10  13
ENDBRANCH   1   7
BRANCH   3  22
HETATM   22  C   UNL     1     -42.397  55.712 -50.443  1.00  0.00     0.129 C 
BRANCH  22  23
HETATM   23  C   UNL     1     -40.970  55.141 -50.473  1.00  0.00     0.058 C 
BRANCH  23  24
HETATM   24  C   UNL     1     -40.689  53.943 -51.360  1.00  0.00    -0.057 A 
HETATM   25  C   UNL     1     -41.172  53.810 -52.668  1.00  0.00     0.009 A 
HETATM   26  C   UNL     1     -40.886  52.672 -53.425  1.00  0.00     0.025 A 
HETATM   27  C   UNL     1     -40.087  51.663 -52.884  1.00  0.00     0.074 A 
HETATM   28  C   UNL     1     -39.585  51.776 -51.588  1.00  0.00     0.025 A 
HETATM   29  C   UNL     1     -39.888  52.912 -50.834  1.00  0.00     0.009 A 
BRANCH  27  30
HETATM   30  S   UNL     1     -39.732  50.230 -53.851  1.00  0.00     0.239 S 
HETATM   31  O   UNL     1     -40.923  49.817 -54.558  1.00  0.00    -0.206 OA
HETATM   32  O   UNL     1     -38.461  50.410 -54.511  1.00  0.00    -0.206 OA
BRANCH  30  33
HETATM   33  N   UNL     1     -39.488  49.053 -52.675  1.00  0.00    -0.225 NA
HETATM   34  H   UNL     1     -38.600  49.220 -52.203  1.00  0.00     0.136 HD
HETATM   35  H   UNL     1     -40.293  49.021 -52.049  1.00  0.00     0.136 HD
ENDBRANCH  30  33
ENDBRANCH  27  30
ENDBRANCH  23  24
ENDBRANCH  22  23
ENDBRANCH   3  22
TORSDOF 9
ENDMDL
MODEL 10
REMARK VINA RESULT:      -7.3      3.351      6.899
REMARK  9 active torsions:
REMARK  status: ('A' for Active; 'I' for Inactive)
REMARK    1  A    between atoms: C_2  and  O_3 
REMARK    2  A    between atoms: O_3  and  C_4 
REMARK    3  A    between atoms: C_7  and  N_8 
REMARK    4  A    between atoms: C_12  and  N_13 
REMARK       I    between atoms: N_13  and  C_14 
REMARK       I    between atoms: C_14  and  N_15 
REMARK    5  A    between atoms: N_15  and  C_16 
REMARK    6  A    between atoms: C_16  and  C_17 
REMARK    7  A    between atoms: C_17  and  C_18 
REMARK    8  A    between atoms: C_21  and  S_22 
REMARK    9  A    between atoms: S_22  and  N_23 
ROOT
HETATM    1  N   UNL     1     -39.905  53.405 -50.548  1.00  0.00    -0.336 N 
HETATM    2  C   UNL     1     -40.117  52.877 -51.775  1.00  0.00     0.316 C 
HETATM    3  N   UNL     1     -41.090  53.441 -52.533  1.00  0.00    -0.343 N 
HETATM    4  O   UNL     1     -39.451  51.908 -52.127  1.00  0.00    -0.248 OA
HETATM    5  H   UNL     1     -39.201  52.867 -50.053  1.00  0.00     0.164 HD
HETATM    6  H   UNL     1     -41.247  54.429 -52.405  1.00  0.00     0.164 HD
ENDROOT
BRANCH   1   7
HETATM    7  C   UNL     1     -40.570  54.469 -49.794  1.00  0.00     0.113 C 
HETATM    8  C   UNL     1     -42.079  54.325 -49.694  1.00  0.00     0.130 C 
HETATM    9  C   UNL     1     -42.629  55.396 -50.605  1.00  0.00     0.226 C 
HETATM   10  N   UNL     1     -41.578  56.234 -51.008  1.00  0.00    -0.316 N 
HETATM   11  O   UNL     1     -43.817  55.472 -50.883  1.00  0.00    -0.273 OA
HETATM   12  C   UNL     1     -40.342  55.869 -50.349  1.00  0.00     0.157 C 
BRANCH  10  13
HETATM   13  C   UNL     1     -41.700  57.434 -51.771  1.00  0.00     0.037 A 
HETATM   14  C   UNL     1     -40.908  57.683 -52.900  1.00  0.00     0.032 A 
HETATM   15  C   UNL     1     -41.072  58.843 -53.672  1.00  0.00     0.039 A 
HETATM   16  C   UNL     1     -42.034  59.785 -53.324  1.00  0.00     0.068 A 
HETATM   17  C   UNL     1     -42.795  59.580 -52.178  1.00  0.00     0.039 A 
HETATM   18  C   UNL     1     -42.638  58.415 -51.417  1.00  0.00     0.032 A 
BRANCH  16  19
HETATM   19  O   UNL     1     -42.293  60.941 -54.005  1.00  0.00    -0.352 OA
BRANCH  19  20
HETATM   20  C   UNL     1     -43.310  61.771 -53.440  1.00  0.00     0.171 C 
HETATM   21  C   UNL     1     -44.092  62.393 -54.583  1.00  0.00     0.034 C 
ENDBRANCH  19  20
ENDBRANCH  16  19
ENDBRANCH  10  13
ENDBRANCH   1   7
BRANCH   3  22
HETATM   22  C   UNL     1     -41.407  52.926 -53.856  1.00  0.00     0.129 C 
BRANCH  22  23
HETATM   23  C   UNL     1     -41.227  53.941 -54.997  1.00  0.00     0.058 C 
BRANCH  23  24
HETATM   24  C   UNL     1     -42.216  55.085 -55.110  1.00  0.00    -0.057 A 
HETATM   25  C   UNL     1     -43.319  55.250 -54.264  1.00  0.00     0.009 A 
HETATM   26  C   UNL     1     -44.199  56.321 -54.433  1.00  0.00     0.025 A 
HETATM   27  C   UNL     1     -43.966  57.256 -55.443  1.00  0.00     0.074 A 
HETATM   28  C   UNL     1     -42.868  57.121 -56.293  1.00  0.00     0.025 A 
HETATM   29  C   UNL     1     -42.002  56.039 -56.124  1.00  0.00     0.009 A 
BRANCH  27  30
HETATM   30  S   UNL     1     -45.084  58.606 -55.647  1.00  0.00     0.239 S 
HETATM   31  O   UNL     1     -45.475  59.109 -54.350  1.00  0.00    -0.206 OA
HETATM   32  O   UNL     1     -44.598  59.466 -56.698  1.00  0.00    -0.206 OA
BRANCH  30  33
HETATM   33  N   UNL     1     -46.456  57.849 -56.256  1.00  0.00    -0.225 NA
HETATM   34  H   UNL     1     -46.687  58.244 -57.168  1.00  0.00     0.136 HD
HETATM   35  H   UNL     1     -46.316  56.839 -56.263  1.00  0.00     0.136 HD
ENDBRANCH  30  33
ENDBRANCH  27  30
ENDBRANCH  23  24
ENDBRANCH  22  23
ENDBRANCH   3  22
TORSDOF 9
ENDMDL
