MODEL 1
REMARK VINA RESULT:      -8.7      0.000      0.000
REMARK  6 active torsions:
REMARK  status: ('A' for Active; 'I' for Inactive)
REMARK    1  A    between atoms: O_2  and  C_3 
REMARK    2  A    between atoms: C_5  and  C_6 
REMARK    3  A    between atoms: N_8  and  C_9 
REMARK    4  A    between atoms: C_16  and  C_17 
REMARK       I    between atoms: C_17  and  N_18 
REMARK    5  A    between atoms: N_18  and  N_19 
REMARK       I    between atoms: N_19  and  C_20 
REMARK    6  A    between atoms: C_20  and  C_21 
ROOT
HETATM    1  C   UNL     1     -41.449  55.239 -53.157  1.00  0.00     0.105 A 
HETATM    2  N   UNL     1     -40.687  54.232 -52.700  1.00  0.00    -0.166 NA
HETATM    3  N   UNL     1     -41.022  53.147 -53.428  1.00  0.00    -0.244 N 
HETATM    4  C   UNL     1     -42.006  53.447 -54.340  1.00  0.00     0.138 A 
HETATM    5  C   UNL     1     -42.323  54.788 -54.191  1.00  0.00     0.082 A 
ENDROOT
BRANCH   5   6
HETATM    6  C   UNL     1     -43.354  55.511 -54.918  1.00  0.00     0.274 C 
HETATM    7  N   UNL     1     -43.163  55.569 -56.286  1.00  0.00    -0.263 N 
HETATM    8  H   UNL     1     -42.286  55.305 -56.729  1.00  0.00     0.190 HD
HETATM    9  O   UNL     1     -44.326  56.038 -54.381  1.00  0.00    -0.266 OA
BRANCH   7  10
HETATM   10  N   UNL     1     -44.020  56.369 -57.053  1.00  0.00    -0.262 N 
HETATM   11  C   UNL     1     -43.831  56.410 -58.419  1.00  0.00     0.286 C 
HETATM   12  O   UNL     1     -42.985  55.706 -58.971  1.00  0.00    -0.264 OA
HETATM   13  H   UNL     1     -44.627  57.011 -56.550  1.00  0.00     0.190 HD
BRANCH  11  14
HETATM   14  C   UNL     1     -44.678  57.327 -59.146  1.00  0.00     0.102 A 
HETATM   15  N   UNL     1     -46.049  57.319 -58.983  1.00  0.00    -0.361 N 
HETATM   16  H   UNL     1     -46.535  56.686 -58.359  1.00  0.00     0.165 HD
HETATM   17  C   UNL     1     -46.628  58.275 -59.771  1.00  0.00     0.088 A 
HETATM   18  C   UNL     1     -45.625  58.917 -60.459  1.00  0.00     0.019 A 
HETATM   19  C   UNL     1     -44.399  58.323 -60.069  1.00  0.00     0.036 A 
ENDBRANCH  11  14
ENDBRANCH   7  10
ENDBRANCH   5   6
BRANCH   1  20
HETATM   20  C   UNL     1     -41.282  56.577 -52.579  1.00  0.00    -0.002 A 
HETATM   21  C   UNL     1     -41.200  57.720 -53.385  1.00  0.00     0.050 A 
HETATM   22  C   UNL     1     -41.025  58.990 -52.823  1.00  0.00     0.069 A 
HETATM   23  C   UNL     1     -40.906  59.119 -51.439  1.00  0.00     0.037 A 
HETATM   24  C   UNL     1     -40.967  57.988 -50.624  1.00  0.00     0.004 A 
HETATM   25  C   UNL     1     -41.153  56.726 -51.190  1.00  0.00     0.014 A 
BRANCH  22  26
HETATM   26  O   UNL     1     -40.975  60.014 -53.730  1.00  0.00    -0.356 OA
HETATM   27  C   UNL     1     -42.059  60.111 -54.645  1.00  0.00     0.210 C 
ENDBRANCH  22  26
ENDBRANCH   1  20
BRANCH   3  28
HETATM   28  C   UNL     1     -40.390  51.891 -53.203  1.00  0.00     0.058 A 
HETATM   29  C   UNL     1     -40.228  51.001 -54.277  1.00  0.00     0.031 A 
HETATM   30  C   UNL     1     -39.609  49.764 -54.080  1.00  0.00     0.002 A 
HETATM   31  C   UNL     1     -39.152  49.405 -52.814  1.00  0.00     0.000 A 
HETATM   32  C   UNL     1     -39.311  50.282 -51.742  1.00  0.00     0.002 A 
HETATM   33  C   UNL     1     -39.928  51.523 -51.932  1.00  0.00     0.031 A 
ENDBRANCH   3  28
TORSDOF 6
ENDMDL
MODEL 2
REMARK VINA RESULT:      -8.5      3.146      5.337
REMARK  6 active torsions:
REMARK  status: ('A' for Active; 'I' for Inactive)
REMARK    1  A    between atoms: O_2  and  C_3 
REMARK    2  A    between atoms: C_5  and  C_6 
REMARK    3  A    between atoms: N_8  and  C_9 
REMARK    4  A    between atoms: C_16  and  C_17 
REMARK       I    between atoms: C_17  and  N_18 
REMARK    5  A    between atoms: N_18  and  N_19 
REMARK       I    between atoms: N_19  and  C_20 
REMARK    6  A    between atoms: C_20  and  C_21 
ROOT
HETATM    1  C   UNL     1     -41.545  55.371 -53.687  1.00  0.00     0.105 A 
HETATM    2  N   UNL     1     -41.015  54.201 -54.078  1.00  0.00    -0.166 NA
HETATM    3  N   UNL     1     -40.901  53.448 -52.963  1.00  0.00    -0.244 N 
HETATM    4  C   UNL     1     -41.340  54.134 -51.856  1.00  0.00     0.138 A 
HETATM    5  C   UNL     1     -41.753  55.389 -52.275  1.00  0.00     0.082 A 
ENDROOT
BRANCH   5   6
HETATM    6  C   UNL     1     -42.237  56.461 -51.420  1.00  0.00     0.274 C 
HETATM    7  N   UNL     1     -43.613  56.598 -51.389  1.00  0.00    -0.263 N 
HETATM    8  H   UNL     1     -44.226  56.127 -52.051  1.00  0.00     0.190 HD
HETATM    9  O   UNL     1     -41.502  57.201 -50.769  1.00  0.00    -0.266 OA
BRANCH   7  10
HETATM   10  N   UNL     1     -44.167  57.694 -50.715  1.00  0.00    -0.262 N 
HETATM   11  C   UNL     1     -44.773  58.685 -51.461  1.00  0.00     0.286 C 
HETATM   12  O   UNL     1     -44.900  58.582 -52.682  1.00  0.00    -0.264 OA
HETATM   13  H   UNL     1     -43.945  57.789 -49.728  1.00  0.00     0.190 HD
BRANCH  11  14
HETATM   14  C   UNL     1     -45.237  59.836 -50.722  1.00  0.00     0.102 A 
HETATM   15  N   UNL     1     -44.848  60.054 -49.416  1.00  0.00    -0.361 N 
HETATM   16  H   UNL     1     -44.228  59.436 -48.905  1.00  0.00     0.165 HD
HETATM   17  C   UNL     1     -45.412  61.203 -48.936  1.00  0.00     0.088 A 
HETATM   18  C   UNL     1     -46.181  61.745 -49.939  1.00  0.00     0.019 A 
HETATM   19  C   UNL     1     -46.073  60.888 -51.063  1.00  0.00     0.036 A 
ENDBRANCH  11  14
ENDBRANCH   7  10
ENDBRANCH   5   6
BRANCH   1  20
HETATM   20  C   UNL     1     -41.829  56.397 -54.695  1.00  0.00    -0.002 A 
HETATM   21  C   UNL     1     -41.674  57.762 -54.418  1.00  0.00     0.050 A 
HETATM   22  C   UNL     1     -41.964  58.733 -55.385  1.00  0.00     0.069 A 
HETATM   23  C   UNL     1     -42.437  58.338 -56.636  1.00  0.00     0.037 A 
HETATM   24  C   UNL     1     -42.614  56.983 -56.920  1.00  0.00     0.004 A 
HETATM   25  C   UNL     1     -42.312  56.020 -55.957  1.00  0.00     0.014 A 
BRANCH  22  26
HETATM   26  O   UNL     1     -41.755  60.023 -54.978  1.00  0.00    -0.356 OA
HETATM   27  C   UNL     1     -42.067  60.325 -53.624  1.00  0.00     0.210 C 
ENDBRANCH  22  26
ENDBRANCH   1  20
BRANCH   3  28
HETATM   28  C   UNL     1     -40.374  52.127 -53.023  1.00  0.00     0.058 A 
HETATM   29  C   UNL     1     -40.369  51.444 -54.250  1.00  0.00     0.031 A 
HETATM   30  C   UNL     1     -39.855  50.147 -54.333  1.00  0.00     0.002 A 
HETATM   31  C   UNL     1     -39.349  49.522 -53.194  1.00  0.00     0.000 A 
HETATM   32  C   UNL     1     -39.354  50.193 -51.972  1.00  0.00     0.002 A 
HETATM   33  C   UNL     1     -39.864  51.492 -51.882  1.00  0.00     0.031 A 
ENDBRANCH   3  28
TORSDOF 6
ENDMDL
MODEL 3
REMARK VINA RESULT:      -8.4      3.476      6.067
REMARK  6 active torsions:
REMARK  status: ('A' for Active; 'I' for Inactive)
REMARK    1  A    between atoms: O_2  and  C_3 
REMARK    2  A    between atoms: C_5  and  C_6 
REMARK    3  A    between atoms: N_8  and  C_9 
REMARK    4  A    between atoms: C_16  and  C_17 
REMARK       I    between atoms: C_17  and  N_18 
REMARK    5  A    between atoms: N_18  and  N_19 
REMARK       I    between atoms: N_19  and  C_20 
REMARK    6  A    between atoms: C_20  and  C_21 
ROOT
HETATM    1  C   UNL     1     -41.655  56.124 -53.643  1.00  0.00     0.105 A 
HETATM    2  N   UNL     1     -41.215  54.919 -54.038  1.00  0.00    -0.166 NA
HETATM    3  N   UNL     1     -40.986  54.214 -52.911  1.00  0.00    -0.244 N 
HETATM    4  C   UNL     1     -41.263  54.964 -51.793  1.00  0.00     0.138 A 
HETATM    5  C   UNL     1     -41.685  56.213 -52.218  1.00  0.00     0.082 A 
ENDROOT
BRANCH   5   6
HETATM    6  C   UNL     1     -42.027  57.340 -51.364  1.00  0.00     0.274 C 
HETATM    7  N   UNL     1     -43.378  57.624 -51.297  1.00  0.00    -0.263 N 
HETATM    8  H   UNL     1     -44.057  57.216 -51.936  1.00  0.00     0.190 HD
HETATM    9  O   UNL     1     -41.198  58.002 -50.744  1.00  0.00    -0.266 OA
BRANCH   7  10
HETATM   10  N   UNL     1     -43.791  58.781 -50.622  1.00  0.00    -0.262 N 
HETATM   11  C   UNL     1     -45.143  58.986 -50.440  1.00  0.00     0.286 C 
HETATM   12  O   UNL     1     -45.973  58.145 -50.788  1.00  0.00    -0.264 OA
HETATM   13  H   UNL     1     -43.086  59.492 -50.451  1.00  0.00     0.190 HD
BRANCH  11  14
HETATM   14  C   UNL     1     -45.513  60.241 -49.827  1.00  0.00     0.102 A 
HETATM   15  N   UNL     1     -45.423  60.426 -48.462  1.00  0.00    -0.361 N 
HETATM   16  H   UNL     1     -45.100  59.712 -47.820  1.00  0.00     0.165 HD
HETATM   17  C   UNL     1     -45.825  61.689 -48.126  1.00  0.00     0.088 A 
HETATM   18  C   UNL     1     -46.182  62.340 -49.283  1.00  0.00     0.019 A 
HETATM   19  C   UNL     1     -45.988  61.432 -50.354  1.00  0.00     0.036 A 
ENDBRANCH  11  14
ENDBRANCH   7  10
ENDBRANCH   5   6
BRANCH   1  20
HETATM   20  C   UNL     1     -42.030  57.114 -54.658  1.00  0.00    -0.002 A 
HETATM   21  C   UNL     1     -42.674  56.741 -55.845  1.00  0.00     0.050 A 
HETATM   22  C   UNL     1     -43.013  57.693 -56.814  1.00  0.00     0.069 A 
HETATM   23  C   UNL     1     -42.683  59.033 -56.607  1.00  0.00     0.037 A 
HETATM   24  C   UNL     1     -42.024  59.417 -55.437  1.00  0.00     0.004 A 
HETATM   25  C   UNL     1     -41.700  58.465 -54.470  1.00  0.00     0.014 A 
BRANCH  22  26
HETATM   26  O   UNL     1     -43.649  57.186 -57.914  1.00  0.00    -0.356 OA
HETATM   27  C   UNL     1     -43.156  55.954 -58.427  1.00  0.00     0.210 C 
ENDBRANCH  22  26
ENDBRANCH   1  20
BRANCH   3  28
HETATM   28  C   UNL     1     -40.512  52.872 -52.970  1.00  0.00     0.058 A 
HETATM   29  C   UNL     1     -39.994  52.274 -51.811  1.00  0.00     0.031 A 
HETATM   30  C   UNL     1     -39.525  50.958 -51.845  1.00  0.00     0.002 A 
HETATM   31  C   UNL     1     -39.565  50.234 -53.034  1.00  0.00     0.000 A 
HETATM   32  C   UNL     1     -40.075  50.821 -54.191  1.00  0.00     0.002 A 
HETATM   33  C   UNL     1     -40.549  52.137 -54.163  1.00  0.00     0.031 A 
ENDBRANCH   3  28
TORSDOF 6
ENDMDL
MODEL 4
REMARK VINA RESULT:      -8.2      2.810      6.308
REMARK  6 active torsions:
REMARK  status: ('A' for Active; 'I' for Inactive)
REMARK    1  A    between atoms: O_2  and  C_3 
REMARK    2  A    between atoms: C_5  and  C_6 
REMARK    3  A    between atoms: N_8  and  C_9 
REMARK    4  A    between atoms: C_16  and  C_17 
REMARK       I    between atoms: C_17  and  N_18 
REMARK    5  A    between atoms: N_18  and  N_19 
REMARK       I    between atoms: N_19  and  C_20 
REMARK    6  A    between atoms: C_20  and  C_21 
ROOT
HETATM    1  C   UNL     1     -42.284  55.433 -55.154  1.00  0.00     0.105 A 
HETATM    2  N   UNL     1     -41.579  54.291 -55.153  1.00  0.00    -0.166 NA
HETATM    3  N   UNL     1     -41.470  53.917 -53.861  1.00  0.00    -0.244 N 
HETATM    4  C   UNL     1     -42.089  54.820 -53.030  1.00  0.00     0.138 A 
HETATM    5  C   UNL     1     -42.618  55.826 -53.822  1.00  0.00     0.082 A 
ENDROOT
BRANCH   5   6
HETATM    6  C   UNL     1     -43.308  57.016 -53.350  1.00  0.00     0.274 C 
HETATM    7  N   UNL     1     -42.525  57.880 -52.606  1.00  0.00    -0.263 N 
HETATM    8  H   UNL     1     -41.608  57.621 -52.251  1.00  0.00     0.190 HD
HETATM    9  O   UNL     1     -44.492  57.255 -53.578  1.00  0.00    -0.266 OA
BRANCH   7  10
HETATM   10  N   UNL     1     -43.136  58.976 -51.982  1.00  0.00    -0.262 N 
HETATM   11  C   UNL     1     -42.361  59.793 -51.186  1.00  0.00     0.286 C 
HETATM   12  O   UNL     1     -41.146  59.621 -51.080  1.00  0.00    -0.264 OA
HETATM   13  H   UNL     1     -44.151  59.016 -52.010  1.00  0.00     0.190 HD
BRANCH  11  14
HETATM   14  C   UNL     1     -43.063  60.846 -50.491  1.00  0.00     0.102 A 
HETATM   15  N   UNL     1     -44.087  60.564 -49.608  1.00  0.00    -0.361 N 
HETATM   16  H   UNL     1     -44.402  59.625 -49.397  1.00  0.00     0.165 HD
HETATM   17  C   UNL     1     -44.589  61.720 -49.076  1.00  0.00     0.088 A 
HETATM   18  C   UNL     1     -43.888  62.772 -49.617  1.00  0.00     0.019 A 
HETATM   19  C   UNL     1     -42.929  62.226 -50.506  1.00  0.00     0.036 A 
ENDBRANCH  11  14
ENDBRANCH   7  10
ENDBRANCH   5   6
BRANCH   1  20
HETATM   20  C   UNL     1     -42.605  56.072 -56.434  1.00  0.00    -0.002 A 
HETATM   21  C   UNL     1     -43.108  55.337 -57.516  1.00  0.00     0.050 A 
HETATM   22  C   UNL     1     -43.395  55.956 -58.739  1.00  0.00     0.069 A 
HETATM   23  C   UNL     1     -43.153  57.321 -58.893  1.00  0.00     0.037 A 
HETATM   24  C   UNL     1     -42.634  58.063 -57.830  1.00  0.00     0.004 A 
HETATM   25  C   UNL     1     -42.361  57.442 -56.610  1.00  0.00     0.014 A 
BRANCH  22  26
HETATM   26  O   UNL     1     -43.892  55.118 -59.700  1.00  0.00    -0.356 OA
HETATM   27  C   UNL     1     -44.702  55.710 -60.708  1.00  0.00     0.210 C 
ENDBRANCH  22  26
ENDBRANCH   1  20
BRANCH   3  28
HETATM   28  C   UNL     1     -40.778  52.726 -53.499  1.00  0.00     0.058 A 
HETATM   29  C   UNL     1     -40.227  52.615 -52.213  1.00  0.00     0.031 A 
HETATM   30  C   UNL     1     -39.545  51.455 -51.836  1.00  0.00     0.002 A 
HETATM   31  C   UNL     1     -39.404  50.403 -52.739  1.00  0.00     0.000 A 
HETATM   32  C   UNL     1     -39.946  50.506 -54.019  1.00  0.00     0.002 A 
HETATM   33  C   UNL     1     -40.633  51.664 -54.402  1.00  0.00     0.031 A 
ENDBRANCH   3  28
TORSDOF 6
ENDMDL
MODEL 5
REMARK VINA RESULT:      -8.2      1.582      2.064
REMARK  6 active torsions:
REMARK  status: ('A' for Active; 'I' for Inactive)
REMARK    1  A    between atoms: O_2  and  C_3 
REMARK    2  A    between atoms: C_5  and  C_6 
REMARK    3  A    between atoms: N_8  and  C_9 
REMARK    4  A    between atoms: C_16  and  C_17 
REMARK       I    between atoms: C_17  and  N_18 
REMARK    5  A    between atoms: N_18  and  N_19 
REMARK       I    between atoms: N_19  and  C_20 
REMARK    6  A    between atoms: C_20  and  C_21 
ROOT
HETATM    1  C   UNL     1     -41.670  56.579 -52.975  1.00  0.00     0.105 A 
HETATM    2  N   UNL     1     -41.117  55.473 -52.451  1.00  0.00    -0.166 NA
HETATM    3  N   UNL     1     -41.122  54.548 -53.434  1.00  0.00    -0.244 N 
HETATM    4  C   UNL     1     -41.689  55.048 -54.581  1.00  0.00     0.138 A 
HETATM    5  C   UNL     1     -42.071  56.355 -54.326  1.00  0.00     0.082 A 
ENDROOT
BRANCH   5   6
HETATM    6  C   UNL     1     -42.764  57.242 -55.248  1.00  0.00     0.274 C 
HETATM    7  N   UNL     1     -43.913  56.710 -55.805  1.00  0.00    -0.263 N 
HETATM    8  H   UNL     1     -44.151  55.724 -55.735  1.00  0.00     0.190 HD
HETATM    9  O   UNL     1     -42.378  58.374 -55.528  1.00  0.00    -0.266 OA
BRANCH   7  10
HETATM   10  N   UNL     1     -44.566  57.428 -56.817  1.00  0.00    -0.262 N 
HETATM   11  C   UNL     1     -44.311  57.089 -58.130  1.00  0.00     0.286 C 
HETATM   12  O   UNL     1     -43.591  56.133 -58.418  1.00  0.00    -0.264 OA
HETATM   13  H   UNL     1     -45.062  58.270 -56.539  1.00  0.00     0.190 HD
BRANCH  11  14
HETATM   14  C   UNL     1     -44.934  57.926 -59.129  1.00  0.00     0.102 A 
HETATM   15  N   UNL     1     -44.231  58.931 -59.762  1.00  0.00    -0.361 N 
HETATM   16  H   UNL     1     -43.258  59.141 -59.571  1.00  0.00     0.165 HD
HETATM   17  C   UNL     1     -45.031  59.577 -60.663  1.00  0.00     0.088 A 
HETATM   18  C   UNL     1     -46.273  58.989 -60.621  1.00  0.00     0.019 A 
HETATM   19  C   UNL     1     -46.216  57.952 -59.657  1.00  0.00     0.036 A 
ENDBRANCH  11  14
ENDBRANCH   7  10
ENDBRANCH   5   6
BRANCH   1  20
HETATM   20  C   UNL     1     -41.769  57.786 -52.148  1.00  0.00    -0.002 A 
HETATM   21  C   UNL     1     -40.640  58.363 -51.552  1.00  0.00     0.050 A 
HETATM   22  C   UNL     1     -40.750  59.507 -50.751  1.00  0.00     0.069 A 
HETATM   23  C   UNL     1     -42.007  60.068 -50.522  1.00  0.00     0.037 A 
HETATM   24  C   UNL     1     -43.143  59.493 -51.094  1.00  0.00     0.004 A 
HETATM   25  C   UNL     1     -43.025  58.360 -51.900  1.00  0.00     0.014 A 
BRANCH  22  26
HETATM   26  O   UNL     1     -39.564  59.966 -50.247  1.00  0.00    -0.356 OA
HETATM   27  C   UNL     1     -38.378  59.376 -50.764  1.00  0.00     0.210 C 
ENDBRANCH  22  26
ENDBRANCH   1  20
BRANCH   3  28
HETATM   28  C   UNL     1     -40.592  53.244 -53.214  1.00  0.00     0.058 A 
HETATM   29  C   UNL     1     -40.522  52.342 -54.287  1.00  0.00     0.031 A 
HETATM   30  C   UNL     1     -40.005  51.058 -54.096  1.00  0.00     0.002 A 
HETATM   31  C   UNL     1     -39.560  50.665 -52.835  1.00  0.00     0.000 A 
HETATM   32  C   UNL     1     -39.628  51.555 -51.764  1.00  0.00     0.002 A 
HETATM   33  C   UNL     1     -40.142  52.843 -51.949  1.00  0.00     0.031 A 
ENDBRANCH   3  28
TORSDOF 6
ENDMDL
MODEL 6
REMARK VINA RESULT:      -8.1      1.953      2.452
REMARK  6 active torsions:
REMARK  status: ('A' for Active; 'I' for Inactive)
REMARK    1  A    between atoms: O_2  and  C_3 
REMARK    2  A    between atoms: C_5  and  C_6 
REMARK    3  A    between atoms: N_8  and  C_9 
REMARK    4  A    between atoms: C_16  and  C_17 
REMARK       I    between atoms: C_17  and  N_18 
REMARK    5  A    between atoms: N_18  and  N_19 
REMARK       I    between atoms: N_19  and  C_20 
REMARK    6  A    between atoms: C_20  and  C_21 
ROOT
HETATM    1  C   UNL     1     -41.542  56.013 -53.420  1.00  0.00     0.105 A 
HETATM    2  N   UNL     1     -41.013  54.931 -52.826  1.00  0.00    -0.166 NA
HETATM    3  N   UNL     1     -41.020  53.951 -53.753  1.00  0.00    -0.244 N 
HETATM    4  C   UNL     1     -41.564  54.393 -54.936  1.00  0.00     0.138 A 
HETATM    5  C   UNL     1     -41.928  55.718 -54.762  1.00  0.00     0.082 A 
ENDROOT
BRANCH   5   6
HETATM    6  C   UNL     1     -42.595  56.560 -55.744  1.00  0.00     0.274 C 
HETATM    7  N   UNL     1     -43.974  56.465 -55.744  1.00  0.00    -0.263 N 
HETATM    8  H   UNL     1     -44.473  55.732 -55.245  1.00  0.00     0.190 HD
HETATM    9  O   UNL     1     -42.000  57.303 -56.523  1.00  0.00    -0.266 OA
BRANCH   7  10
HETATM   10  N   UNL     1     -44.695  57.121 -56.751  1.00  0.00    -0.262 N 
HETATM   11  C   UNL     1     -45.396  58.262 -56.418  1.00  0.00     0.286 C 
HETATM   12  O   UNL     1     -45.334  58.746 -55.287  1.00  0.00    -0.264 OA
HETATM   13  H   UNL     1     -44.805  56.631 -57.634  1.00  0.00     0.190 HD
BRANCH  11  14
HETATM   14  C   UNL     1     -46.199  58.838 -57.471  1.00  0.00     0.102 A 
HETATM   15  N   UNL     1     -47.491  59.265 -57.235  1.00  0.00    -0.361 N 
HETATM   16  H   UNL     1     -47.945  59.203 -56.332  1.00  0.00     0.165 HD
HETATM   17  C   UNL     1     -48.041  59.773 -58.379  1.00  0.00     0.088 A 
HETATM   18  C   UNL     1     -47.099  59.678 -59.377  1.00  0.00     0.019 A 
HETATM   19  C   UNL     1     -45.941  59.091 -58.810  1.00  0.00     0.036 A 
ENDBRANCH  11  14
ENDBRANCH   7  10
ENDBRANCH   5   6
BRANCH   1  20
HETATM   20  C   UNL     1     -41.633  57.268 -52.666  1.00  0.00    -0.002 A 
HETATM   21  C   UNL     1     -42.846  57.714 -52.128  1.00  0.00     0.050 A 
HETATM   22  C   UNL     1     -42.924  58.922 -51.422  1.00  0.00     0.069 A 
HETATM   23  C   UNL     1     -41.779  59.706 -51.274  1.00  0.00     0.037 A 
HETATM   24  C   UNL     1     -40.567  59.283 -51.820  1.00  0.00     0.004 A 
HETATM   25  C   UNL     1     -40.494  58.072 -52.511  1.00  0.00     0.014 A 
BRANCH  22  26
HETATM   26  O   UNL     1     -44.170  59.225 -50.944  1.00  0.00    -0.356 OA
HETATM   27  C   UNL     1     -45.204  58.288 -51.217  1.00  0.00     0.210 C 
ENDBRANCH  22  26
ENDBRANCH   1  20
BRANCH   3  28
HETATM   28  C   UNL     1     -40.515  52.654 -53.452  1.00  0.00     0.058 A 
HETATM   29  C   UNL     1     -39.999  52.398 -52.172  1.00  0.00     0.031 A 
HETATM   30  C   UNL     1     -39.500  51.132 -51.854  1.00  0.00     0.002 A 
HETATM   31  C   UNL     1     -39.507  50.118 -52.809  1.00  0.00     0.000 A 
HETATM   32  C   UNL     1     -40.016  50.365 -54.083  1.00  0.00     0.002 A 
HETATM   33  C   UNL     1     -40.520  51.629 -54.408  1.00  0.00     0.031 A 
ENDBRANCH   3  28
TORSDOF 6
ENDMDL
MODEL 7
REMARK VINA RESULT:      -8.1      3.771      6.374
REMARK  6 active torsions:
REMARK  status: ('A' for Active; 'I' for Inactive)
REMARK    1  A    between atoms: O_2  and  C_3 
REMARK    2  A    between atoms: C_5  and  C_6 
REMARK    3  A    between atoms: N_8  and  C_9 
REMARK    4  A    between atoms: C_16  and  C_17 
REMARK       I    between atoms: C_17  and  N_18 
REMARK    5  A    between atoms: N_18  and  N_19 
REMARK       I    between atoms: N_19  and  C_20 
REMARK    6  A    between atoms: C_20  and  C_21 
ROOT
HETATM    1  C   UNL     1     -43.047  56.180 -53.619  1.00  0.00     0.105 A 
HETATM    2  N   UNL     1     -42.257  55.168 -54.010  1.00  0.00    -0.166 NA
HETATM    3  N   UNL     1     -41.946  54.478 -52.892  1.00  0.00    -0.244 N 
HETATM    4  C   UNL     1     -42.520  55.051 -51.783  1.00  0.00     0.138 A 
HETATM    5  C   UNL     1     -43.231  56.164 -52.203  1.00  0.00     0.082 A 
ENDROOT
BRANCH   5   6
HETATM    6  C   UNL     1     -43.947  57.098 -51.348  1.00  0.00     0.274 C 
HETATM    7  N   UNL     1     -43.443  58.385 -51.352  1.00  0.00    -0.263 N 
HETATM    8  H   UNL     1     -42.540  58.620 -51.757  1.00  0.00     0.190 HD
HETATM    9  O   UNL     1     -44.922  56.789 -50.666  1.00  0.00    -0.266 OA
BRANCH   7  10
HETATM   10  N   UNL     1     -43.970  59.318 -50.448  1.00  0.00    -0.262 N 
HETATM   11  C   UNL     1     -43.547  60.628 -50.537  1.00  0.00     0.286 C 
HETATM   12  O   UNL     1     -42.786  60.997 -51.431  1.00  0.00    -0.264 OA
HETATM   13  H   UNL     1     -44.506  58.951 -49.666  1.00  0.00     0.190 HD
BRANCH  11  14
HETATM   14  C   UNL     1     -44.047  61.522 -49.519  1.00  0.00     0.102 A 
HETATM   15  N   UNL     1     -43.822  62.883 -49.586  1.00  0.00    -0.361 N 
HETATM   16  H   UNL     1     -43.304  63.328 -50.334  1.00  0.00     0.165 HD
HETATM   17  C   UNL     1     -44.394  63.513 -48.516  1.00  0.00     0.088 A 
HETATM   18  C   UNL     1     -45.000  62.556 -47.737  1.00  0.00     0.019 A 
HETATM   19  C   UNL     1     -44.784  61.304 -48.365  1.00  0.00     0.036 A 
ENDBRANCH  11  14
ENDBRANCH   7  10
ENDBRANCH   5   6
BRANCH   1  20
HETATM   20  C   UNL     1     -43.586  57.095 -54.630  1.00  0.00    -0.002 A 
HETATM   21  C   UNL     1     -42.749  57.795 -55.508  1.00  0.00     0.050 A 
HETATM   22  C   UNL     1     -43.275  58.679 -56.459  1.00  0.00     0.069 A 
HETATM   23  C   UNL     1     -44.653  58.884 -56.518  1.00  0.00     0.037 A 
HETATM   24  C   UNL     1     -45.499  58.208 -55.637  1.00  0.00     0.004 A 
HETATM   25  C   UNL     1     -44.969  57.320 -54.700  1.00  0.00     0.014 A 
BRANCH  22  26
HETATM   26  O   UNL     1     -42.340  59.282 -57.256  1.00  0.00    -0.356 OA
HETATM   27  C   UNL     1     -41.956  58.582 -58.433  1.00  0.00     0.210 C 
ENDBRANCH  22  26
ENDBRANCH   1  20
BRANCH   3  28
HETATM   28  C   UNL     1     -41.116  53.322 -52.952  1.00  0.00     0.058 A 
HETATM   29  C   UNL     1     -41.053  52.582 -54.142  1.00  0.00     0.031 A 
HETATM   30  C   UNL     1     -40.244  51.445 -54.224  1.00  0.00     0.002 A 
HETATM   31  C   UNL     1     -39.499  51.038 -53.119  1.00  0.00     0.000 A 
HETATM   32  C   UNL     1     -39.559  51.766 -51.932  1.00  0.00     0.002 A 
HETATM   33  C   UNL     1     -40.364  52.907 -51.844  1.00  0.00     0.031 A 
ENDBRANCH   3  28
TORSDOF 6
ENDMDL
MODEL 8
REMARK VINA RESULT:      -8.1      2.930      6.020
REMARK  6 active torsions:
REMARK  status: ('A' for Active; 'I' for Inactive)
REMARK    1  A    between atoms: O_2  and  C_3 
REMARK    2  A    between atoms: C_5  and  C_6 
REMARK    3  A    between atoms: N_8  and  C_9 
REMARK    4  A    between atoms: C_16  and  C_17 
REMARK       I    between atoms: C_17  and  N_18 
REMARK    5  A    between atoms: N_18  and  N_19 
REMARK       I    between atoms: N_19  and  C_20 
REMARK    6  A    between atoms: C_20  and  C_21 
ROOT
HETATM    1  C   UNL     1     -42.176  55.517 -55.070  1.00  0.00     0.105 A 
HETATM    2  N   UNL     1     -41.477  54.370 -55.072  1.00  0.00    -0.166 NA
HETATM    3  N   UNL     1     -41.426  53.958 -53.788  1.00  0.00    -0.244 N 
HETATM    4  C   UNL     1     -42.075  54.841 -52.958  1.00  0.00     0.138 A 
HETATM    5  C   UNL     1     -42.565  55.873 -53.743  1.00  0.00     0.082 A 
ENDROOT
BRANCH   5   6
HETATM    6  C   UNL     1     -43.269  57.054 -53.267  1.00  0.00     0.274 C 
HETATM    7  N   UNL     1     -42.488  57.938 -52.544  1.00  0.00    -0.263 N 
HETATM    8  H   UNL     1     -41.560  57.699 -52.205  1.00  0.00     0.190 HD
HETATM    9  O   UNL     1     -44.461  57.268 -53.474  1.00  0.00    -0.266 OA
BRANCH   7  10
HETATM   10  N   UNL     1     -43.108  59.027 -51.917  1.00  0.00    -0.262 N 
HETATM   11  C   UNL     1     -42.338  59.852 -51.124  1.00  0.00     0.286 C 
HETATM   12  O   UNL     1     -41.121  59.693 -51.024  1.00  0.00    -0.264 OA
HETATM   13  H   UNL     1     -44.124  59.056 -51.940  1.00  0.00     0.190 HD
BRANCH  11  14
HETATM   14  C   UNL     1     -43.049  60.897 -50.425  1.00  0.00     0.102 A 
HETATM   15  N   UNL     1     -43.969  60.603 -49.439  1.00  0.00    -0.361 N 
HETATM   16  H   UNL     1     -44.199  59.659 -49.151  1.00  0.00     0.165 HD
HETATM   17  C   UNL     1     -44.503  61.753 -48.926  1.00  0.00     0.088 A 
HETATM   18  C   UNL     1     -43.926  62.814 -49.584  1.00  0.00     0.019 A 
HETATM   19  C   UNL     1     -43.012  62.280 -50.526  1.00  0.00     0.036 A 
ENDBRANCH  11  14
ENDBRANCH   7  10
ENDBRANCH   5   6
BRANCH   1  20
HETATM   20  C   UNL     1     -42.437  56.194 -56.344  1.00  0.00    -0.002 A 
HETATM   21  C   UNL     1     -42.089  57.536 -56.547  1.00  0.00     0.050 A 
HETATM   22  C   UNL     1     -42.358  58.176 -57.763  1.00  0.00     0.069 A 
HETATM   23  C   UNL     1     -43.005  57.476 -58.781  1.00  0.00     0.037 A 
HETATM   24  C   UNL     1     -43.374  56.144 -58.587  1.00  0.00     0.004 A 
HETATM   25  C   UNL     1     -43.093  55.508 -57.377  1.00  0.00     0.014 A 
BRANCH  22  26
HETATM   26  O   UNL     1     -41.951  59.482 -57.823  1.00  0.00    -0.356 OA
HETATM   27  C   UNL     1     -42.229  60.290 -56.686  1.00  0.00     0.210 C 
ENDBRANCH  22  26
ENDBRANCH   1  20
BRANCH   3  28
HETATM   28  C   UNL     1     -40.756  52.753 -53.431  1.00  0.00     0.058 A 
HETATM   29  C   UNL     1     -40.236  52.613 -52.135  1.00  0.00     0.031 A 
HETATM   30  C   UNL     1     -39.576  51.439 -51.763  1.00  0.00     0.002 A 
HETATM   31  C   UNL     1     -39.427  50.401 -52.680  1.00  0.00     0.000 A 
HETATM   32  C   UNL     1     -39.939  50.533 -53.970  1.00  0.00     0.002 A 
HETATM   33  C   UNL     1     -40.603  51.705 -54.349  1.00  0.00     0.031 A 
ENDBRANCH   3  28
TORSDOF 6
ENDMDL
MODEL 9
REMARK VINA RESULT:      -8.1      1.930      7.614
REMARK  6 active torsions:
REMARK  status: ('A' for Active; 'I' for Inactive)
REMARK    1  A    between atoms: O_2  and  C_3 
REMARK    2  A    between atoms: C_5  and  C_6 
REMARK    3  A    between atoms: N_8  and  C_9 
REMARK    4  A    between atoms: C_16  and  C_17 
REMARK       I    between atoms: C_17  and  N_18 
REMARK    5  A    between atoms: N_18  and  N_19 
REMARK       I    between atoms: N_19  and  C_20 
REMARK    6  A    between atoms: C_20  and  C_21 
ROOT
HETATM    1  C   UNL     1     -42.159  57.487 -54.606  1.00  0.00     0.105 A 
HETATM    2  N   UNL     1     -42.374  58.202 -55.721  1.00  0.00    -0.166 NA
HETATM    3  N   UNL     1     -42.660  57.310 -56.692  1.00  0.00    -0.244 N 
HETATM    4  C   UNL     1     -42.616  56.023 -56.210  1.00  0.00     0.138 A 
HETATM    5  C   UNL     1     -42.281  56.089 -54.867  1.00  0.00     0.082 A 
ENDROOT
BRANCH   5   6
HETATM    6  C   UNL     1     -42.069  54.955 -53.980  1.00  0.00     0.274 C 
HETATM    7  N   UNL     1     -40.748  54.729 -53.639  1.00  0.00    -0.263 N 
HETATM    8  H   UNL     1     -39.973  55.184 -54.115  1.00  0.00     0.190 HD
HETATM    9  O   UNL     1     -42.974  54.240 -53.557  1.00  0.00    -0.266 OA
BRANCH   7  10
HETATM   10  N   UNL     1     -40.427  53.575 -52.913  1.00  0.00    -0.262 N 
HETATM   11  C   UNL     1     -40.095  52.432 -53.611  1.00  0.00     0.286 C 
HETATM   12  O   UNL     1     -40.003  52.434 -54.839  1.00  0.00    -0.264 OA
HETATM   13  H   UNL     1     -40.620  53.588 -51.915  1.00  0.00     0.190 HD
BRANCH  11  14
HETATM   14  C   UNL     1     -39.871  51.248 -52.814  1.00  0.00     0.102 A 
HETATM   15  N   UNL     1     -39.771  51.318 -51.438  1.00  0.00    -0.361 N 
HETATM   16  H   UNL     1     -39.846  52.182 -50.915  1.00  0.00     0.165 HD
HETATM   17  C   UNL     1     -39.565  50.073 -50.912  1.00  0.00     0.088 A 
HETATM   18  C   UNL     1     -39.528  49.177 -51.954  1.00  0.00     0.019 A 
HETATM   19  C   UNL     1     -39.720  49.912 -53.150  1.00  0.00     0.036 A 
ENDBRANCH  11  14
ENDBRANCH   7  10
ENDBRANCH   5   6
BRANCH   1  20
HETATM   20  C   UNL     1     -41.860  58.190 -53.354  1.00  0.00    -0.002 A 
HETATM   21  C   UNL     1     -40.547  58.517 -52.992  1.00  0.00     0.050 A 
HETATM   22  C   UNL     1     -40.273  59.176 -51.786  1.00  0.00     0.069 A 
HETATM   23  C   UNL     1     -41.320  59.490 -50.920  1.00  0.00     0.037 A 
HETATM   24  C   UNL     1     -42.632  59.153 -51.260  1.00  0.00     0.004 A 
HETATM   25  C   UNL     1     -42.899  58.508 -52.468  1.00  0.00     0.014 A 
BRANCH  22  26
HETATM   26  O   UNL     1     -38.947  59.442 -51.570  1.00  0.00    -0.356 OA
HETATM   27  C   UNL     1     -38.579  59.822 -50.250  1.00  0.00     0.210 C 
ENDBRANCH  22  26
ENDBRANCH   1  20
BRANCH   3  28
HETATM   28  C   UNL     1     -42.951  57.738 -58.019  1.00  0.00     0.058 A 
HETATM   29  C   UNL     1     -44.164  57.358 -58.613  1.00  0.00     0.031 A 
HETATM   30  C   UNL     1     -44.471  57.768 -59.913  1.00  0.00     0.002 A 
HETATM   31  C   UNL     1     -43.571  58.555 -60.628  1.00  0.00     0.000 A 
HETATM   32  C   UNL     1     -42.362  58.935 -60.046  1.00  0.00     0.002 A 
HETATM   33  C   UNL     1     -42.049  58.530 -58.744  1.00  0.00     0.031 A 
ENDBRANCH   3  28
TORSDOF 6
ENDMDL
MODEL 10
REMARK VINA RESULT:      -8.0      2.575      5.071
REMARK  6 active torsions:
REMARK  status: ('A' for Active; 'I' for Inactive)
REMARK    1  A    between atoms: O_2  and  C_3 
REMARK    2  A    between atoms: C_5  and  C_6 
REMARK    3  A    between atoms: N_8  and  C_9 
REMARK    4  A    between atoms: C_16  and  C_17 
REMARK       I    between atoms: C_17  and  N_18 
REMARK    5  A    between atoms: N_18  and  N_19 
REMARK       I    between atoms: N_19  and  C_20 
REMARK    6  A    between atoms: C_20  and  C_21 
ROOT
HETATM    1  C   UNL     1     -42.896  56.160 -56.180  1.00  0.00     0.105 A 
HETATM    2  N   UNL     1     -42.013  55.251 -55.736  1.00  0.00    -0.166 NA
HETATM    3  N   UNL     1     -42.288  55.068 -54.427  1.00  0.00    -0.244 N 
HETATM    4  C   UNL     1     -43.333  55.864 -54.025  1.00  0.00     0.138 A 
HETATM    5  C   UNL     1     -43.750  56.599 -55.124  1.00  0.00     0.082 A 
ENDROOT
BRANCH   5   6
HETATM    6  C   UNL     1     -44.795  57.611 -55.133  1.00  0.00     0.274 C 
HETATM    7  N   UNL     1     -45.573  57.626 -56.276  1.00  0.00    -0.263 N 
HETATM    8  H   UNL     1     -45.320  57.115 -57.118  1.00  0.00     0.190 HD
HETATM    9  O   UNL     1     -44.988  58.402 -54.212  1.00  0.00    -0.266 OA
BRANCH   7  10
HETATM   10  N   UNL     1     -46.505  58.659 -56.443  1.00  0.00    -0.262 N 
HETATM   11  C   UNL     1     -47.106  58.807 -57.676  1.00  0.00     0.286 C 
HETATM   12  O   UNL     1     -46.896  58.010 -58.592  1.00  0.00    -0.264 OA
HETATM   13  H   UNL     1     -46.565  59.351 -55.701  1.00  0.00     0.190 HD
BRANCH  11  14
HETATM   14  C   UNL     1     -47.982  59.946 -57.818  1.00  0.00     0.102 A 
HETATM   15  N   UNL     1     -49.287  59.909 -57.369  1.00  0.00    -0.361 N 
HETATM   16  H   UNL     1     -49.702  59.100 -56.922  1.00  0.00     0.165 HD
HETATM   17  C   UNL     1     -49.909  61.102 -57.612  1.00  0.00     0.088 A 
HETATM   18  C   UNL     1     -49.002  61.931 -58.229  1.00  0.00     0.019 A 
HETATM   19  C   UNL     1     -47.791  61.208 -58.360  1.00  0.00     0.036 A 
ENDBRANCH  11  14
ENDBRANCH   7  10
ENDBRANCH   5   6
BRANCH   1  20
HETATM   20  C   UNL     1     -42.873  56.542 -57.596  1.00  0.00    -0.002 A 
HETATM   21  C   UNL     1     -43.457  55.738 -58.583  1.00  0.00     0.050 A 
HETATM   22  C   UNL     1     -43.414  56.106 -59.934  1.00  0.00     0.069 A 
HETATM   23  C   UNL     1     -42.760  57.280 -60.307  1.00  0.00     0.037 A 
HETATM   24  C   UNL     1     -42.158  58.082 -59.336  1.00  0.00     0.004 A 
HETATM   25  C   UNL     1     -42.214  57.716 -57.990  1.00  0.00     0.014 A 
BRANCH  22  26
HETATM   26  O   UNL     1     -44.036  55.231 -60.784  1.00  0.00    -0.356 OA
HETATM   27  C   UNL     1     -45.436  55.401 -60.964  1.00  0.00     0.210 C 
ENDBRANCH  22  26
ENDBRANCH   1  20
BRANCH   3  28
HETATM   28  C   UNL     1     -41.533  54.150 -53.642  1.00  0.00     0.058 A 
HETATM   29  C   UNL     1     -40.848  53.104 -54.277  1.00  0.00     0.031 A 
HETATM   30  C   UNL     1     -40.099  52.193 -53.527  1.00  0.00     0.002 A 
HETATM   31  C   UNL     1     -40.034  52.317 -52.141  1.00  0.00     0.000 A 
HETATM   32  C   UNL     1     -40.715  53.352 -51.502  1.00  0.00     0.002 A 
HETATM   33  C   UNL     1     -41.464  54.270 -52.247  1.00  0.00     0.031 A 
ENDBRANCH   3  28
TORSDOF 6
ENDMDL
