MODEL 1
REMARK VINA RESULT:      -8.2      0.000      0.000
REMARK  8 active torsions:
REMARK  status: ('A' for Active; 'I' for Inactive)
REMARK    1  A    between atoms: C_4  and  S_5 
REMARK    2  A    between atoms: S_5  and  C_6 
REMARK    3  A    between atoms: C_6  and  C_7 
REMARK       I    between atoms: C_7  and  N_8 
REMARK    4  A    between atoms: N_8  and  C_9 
REMARK    5  A    between atoms: C_20  and  C_21 
REMARK    6  A    between atoms: C_27  and  C_28 
REMARK       I    between atoms: C_28  and  N_29 
REMARK    7  A    between atoms: N_29  and  C_30 
REMARK    8  A    between atoms: C_31  and  O_32 
ROOT
HETATM    1  C   UNL     1     -43.043  61.594 -55.500  1.00  0.00     0.069 C 
HETATM    2  C   UNL     1     -43.333  60.395 -54.634  1.00  0.00     0.019 C 
HETATM    3  N   UNL     1     -42.902  60.474 -53.316  1.00  0.00    -0.353 N 
HETATM    4  C   UNL     1     -43.380  59.656 -52.301  1.00  0.00     0.088 C 
HETATM    5  C   UNL     1     -44.073  58.536 -52.623  1.00  0.00     0.069 C 
HETATM    6  C   UNL     1     -44.723  57.719 -51.653  1.00  0.00     0.099 C 
HETATM    7  N   UNL     1     -45.255  57.054 -50.864  1.00  0.00    -0.192 NA
HETATM    8  C   UNL     1     -44.222  58.125 -54.092  1.00  0.00     0.106 C 
HETATM    9  C   UNL     1     -43.983  59.283 -55.047  1.00  0.00     0.046 C 
HETATM   10  H   UNL     1     -42.578  61.384 -52.995  1.00  0.00     0.166 HD
ENDROOT
BRANCH   4  11
HETATM   11  S   UNL     1     -43.139  60.145 -50.633  1.00  0.00    -0.102 SA
BRANCH  11  12
HETATM   12  C   UNL     1     -41.327  59.937 -50.501  1.00  0.00     0.184 C 
BRANCH  12  13
HETATM   13  C   UNL     1     -40.881  58.544 -50.927  1.00  0.00     0.231 C 
HETATM   14  N   UNL     1     -41.403  57.523 -50.152  1.00  0.00    -0.327 N 
HETATM   15  H   UNL     1     -41.916  57.821 -49.327  1.00  0.00     0.169 HD
HETATM   16  O   UNL     1     -40.180  58.404 -51.927  1.00  0.00    -0.272 OA
BRANCH  14  17
HETATM   17  C   UNL     1     -41.220  56.135 -50.307  1.00  0.00     0.034 A 
HETATM   18  C   UNL     1     -41.939  55.350 -51.210  1.00  0.00     0.031 A 
HETATM   19  C   UNL     1     -41.691  53.976 -51.310  1.00  0.00     0.026 A 
HETATM   20  C   UNL     1     -40.723  53.384 -50.504  1.00  0.00     0.034 A 
HETATM   21 CL   UNL     1     -40.415  51.697 -50.633  1.00  0.00    -0.084 Cl
HETATM   22  C   UNL     1     -40.003  54.153 -49.595  1.00  0.00     0.026 A 
HETATM   23  C   UNL     1     -40.254  55.525 -49.495  1.00  0.00     0.031 A 
ENDBRANCH  14  17
ENDBRANCH  12  13
ENDBRANCH  11  12
ENDBRANCH   4  11
BRANCH   8  24
HETATM   24  C   UNL     1     -43.328  56.907 -54.370  1.00  0.00    -0.044 A 
HETATM   25  C   UNL     1     -41.953  57.089 -54.601  1.00  0.00     0.008 A 
HETATM   26  C   UNL     1     -41.124  56.000 -54.875  1.00  0.00     0.001 A 
HETATM   27  C   UNL     1     -41.653  54.714 -54.927  1.00  0.00     0.000 A 
HETATM   28  C   UNL     1     -43.015  54.516 -54.719  1.00  0.00     0.001 A 
HETATM   29  C   UNL     1     -43.849  55.604 -54.454  1.00  0.00     0.008 A 
ENDBRANCH   8  24
BRANCH   9  30
HETATM   30  C   UNL     1     -44.619  59.239 -56.391  1.00  0.00     0.255 C 
HETATM   31  N   UNL     1     -43.724  59.285 -57.423  1.00  0.00    -0.321 N 
HETATM   32  H   UNL     1     -43.792  60.113 -58.006  1.00  0.00     0.169 HD
HETATM   33  O   UNL     1     -45.832  59.332 -56.528  1.00  0.00    -0.268 OA
BRANCH  31  34
HETATM   34  C   UNL     1     -43.408  58.156 -58.227  1.00  0.00     0.068 A 
HETATM   35  C   UNL     1     -42.550  58.351 -59.321  1.00  0.00     0.095 A 
HETATM   36  C   UNL     1     -42.103  57.255 -60.065  1.00  0.00     0.039 A 
HETATM   37  C   UNL     1     -42.559  55.972 -59.758  1.00  0.00     0.003 A 
HETATM   38  C   UNL     1     -43.472  55.786 -58.722  1.00  0.00     0.002 A 
HETATM   39  C   UNL     1     -43.899  56.875 -57.960  1.00  0.00     0.032 A 
BRANCH  35  40
HETATM   40  O   UNL     1     -42.143  59.639 -59.578  1.00  0.00    -0.354 OA
HETATM   41  C   UNL     1     -42.076  59.938 -60.971  1.00  0.00     0.210 C 
ENDBRANCH  35  40
ENDBRANCH  31  34
ENDBRANCH   9  30
TORSDOF 8
ENDMDL
MODEL 2
REMARK VINA RESULT:      -8.1      2.414      4.168
REMARK  8 active torsions:
REMARK  status: ('A' for Active; 'I' for Inactive)
REMARK    1  A    between atoms: C_4  and  S_5 
REMARK    2  A    between atoms: S_5  and  C_6 
REMARK    3  A    between atoms: C_6  and  C_7 
REMARK       I    between atoms: C_7  and  N_8 
REMARK    4  A    between atoms: N_8  and  C_9 
REMARK    5  A    between atoms: C_20  and  C_21 
REMARK    6  A    between atoms: C_27  and  C_28 
REMARK       I    between atoms: C_28  and  N_29 
REMARK    7  A    between atoms: N_29  and  C_30 
REMARK    8  A    between atoms: C_31  and  O_32 
ROOT
HETATM    1  C   UNL     1     -44.346  54.331 -54.369  1.00  0.00     0.069 C 
HETATM    2  C   UNL     1     -43.648  55.647 -54.143  1.00  0.00     0.019 C 
HETATM    3  N   UNL     1     -43.774  56.195 -52.872  1.00  0.00    -0.353 N 
HETATM    4  C   UNL     1     -42.935  57.181 -52.375  1.00  0.00     0.088 C 
HETATM    5  C   UNL     1     -42.137  57.868 -53.230  1.00  0.00     0.069 C 
HETATM    6  C   UNL     1     -41.142  58.790 -52.794  1.00  0.00     0.099 C 
HETATM    7  N   UNL     1     -40.330  59.541 -52.440  1.00  0.00    -0.192 NA
HETATM    8  C   UNL     1     -42.252  57.630 -54.740  1.00  0.00     0.106 C 
HETATM    9  C   UNL     1     -42.914  56.302 -55.071  1.00  0.00     0.046 C 
HETATM   10  H   UNL     1     -44.181  55.598 -52.156  1.00  0.00     0.166 HD
ENDROOT
BRANCH   4  11
HETATM   11  S   UNL     1     -42.875  57.450 -50.641  1.00  0.00    -0.102 SA
BRANCH  11  12
HETATM   12  C   UNL     1     -41.470  56.366 -50.201  1.00  0.00     0.184 C 
BRANCH  12  13
HETATM   13  C   UNL     1     -41.592  54.988 -50.842  1.00  0.00     0.231 C 
HETATM   14  N   UNL     1     -40.496  54.622 -51.604  1.00  0.00    -0.327 N 
HETATM   15  H   UNL     1     -39.802  55.350 -51.746  1.00  0.00     0.169 HD
HETATM   16  O   UNL     1     -42.570  54.285 -50.601  1.00  0.00    -0.272 OA
BRANCH  14  17
HETATM   17  C   UNL     1     -40.280  53.410 -52.287  1.00  0.00     0.034 A 
HETATM   18  C   UNL     1     -39.739  52.267 -51.696  1.00  0.00     0.031 A 
HETATM   19  C   UNL     1     -39.563  51.096 -52.444  1.00  0.00     0.026 A 
HETATM   20  C   UNL     1     -39.930  51.067 -53.786  1.00  0.00     0.034 A 
HETATM   21 CL   UNL     1     -39.720  49.626 -54.701  1.00  0.00    -0.084 Cl
HETATM   22  C   UNL     1     -40.465  52.200 -54.390  1.00  0.00     0.026 A 
HETATM   23  C   UNL     1     -40.636  53.370 -53.643  1.00  0.00     0.031 A 
ENDBRANCH  14  17
ENDBRANCH  12  13
ENDBRANCH  11  12
ENDBRANCH   4  11
BRANCH   8  24
HETATM   24  C   UNL     1     -42.943  58.838 -55.391  1.00  0.00    -0.044 A 
HETATM   25  C   UNL     1     -42.245  59.618 -56.330  1.00  0.00     0.008 A 
HETATM   26  C   UNL     1     -42.845  60.732 -56.919  1.00  0.00     0.001 A 
HETATM   27  C   UNL     1     -44.146  61.089 -56.579  1.00  0.00     0.000 A 
HETATM   28  C   UNL     1     -44.846  60.339 -55.638  1.00  0.00     0.001 A 
HETATM   29  C   UNL     1     -44.246  59.229 -55.039  1.00  0.00     0.008 A 
ENDBRANCH   8  24
BRANCH   9  30
HETATM   30  C   UNL     1     -42.604  55.659 -56.375  1.00  0.00     0.255 C 
HETATM   31  N   UNL     1     -43.565  55.860 -57.327  1.00  0.00    -0.321 N 
HETATM   32  H   UNL     1     -44.042  55.016 -57.631  1.00  0.00     0.169 HD
HETATM   33  O   UNL     1     -41.662  54.887 -56.501  1.00  0.00    -0.268 OA
BRANCH  31  34
HETATM   34  C   UNL     1     -43.392  56.738 -58.431  1.00  0.00     0.068 A 
HETATM   35  C   UNL     1     -44.390  57.696 -58.669  1.00  0.00     0.095 A 
HETATM   36  C   UNL     1     -44.209  58.667 -59.657  1.00  0.00     0.039 A 
HETATM   37  C   UNL     1     -43.062  58.646 -60.452  1.00  0.00     0.003 A 
HETATM   38  C   UNL     1     -42.106  57.649 -60.270  1.00  0.00     0.002 A 
HETATM   39  C   UNL     1     -42.271  56.694 -59.266  1.00  0.00     0.032 A 
BRANCH  35  40
HETATM   40  O   UNL     1     -45.500  57.659 -57.858  1.00  0.00    -0.354 OA
HETATM   41  C   UNL     1     -46.589  58.431 -58.364  1.00  0.00     0.210 C 
ENDBRANCH  35  40
ENDBRANCH  31  34
ENDBRANCH   9  30
TORSDOF 8
ENDMDL
MODEL 3
REMARK VINA RESULT:      -8.0      3.347      7.221
REMARK  8 active torsions:
REMARK  status: ('A' for Active; 'I' for Inactive)
REMARK    1  A    between atoms: C_4  and  S_5 
REMARK    2  A    between atoms: S_5  and  C_6 
REMARK    3  A    between atoms: C_6  and  C_7 
REMARK       I    between atoms: C_7  and  N_8 
REMARK    4  A    between atoms: N_8  and  C_9 
REMARK    5  A    between atoms: C_20  and  C_21 
REMARK    6  A    between atoms: C_27  and  C_28 
REMARK       I    between atoms: C_28  and  N_29 
REMARK    7  A    between atoms: N_29  and  C_30 
REMARK    8  A    between atoms: C_31  and  O_32 
ROOT
HETATM    1  C   UNL     1     -46.344  60.581 -52.659  1.00  0.00     0.069 C 
HETATM    2  C   UNL     1     -44.970  59.964 -52.673  1.00  0.00     0.019 C 
HETATM    3  N   UNL     1     -44.336  59.911 -53.909  1.00  0.00    -0.353 N 
HETATM    4  C   UNL     1     -42.971  59.721 -54.064  1.00  0.00     0.088 C 
HETATM    5  C   UNL     1     -42.239  59.273 -53.013  1.00  0.00     0.069 C 
HETATM    6  C   UNL     1     -40.817  59.189 -53.036  1.00  0.00     0.099 C 
HETATM    7  N   UNL     1     -39.658  59.122 -53.053  1.00  0.00    -0.192 NA
HETATM    8  C   UNL     1     -42.940  58.876 -51.708  1.00  0.00     0.106 C 
HETATM    9  C   UNL     1     -44.327  59.484 -51.584  1.00  0.00     0.046 C 
HETATM   10  H   UNL     1     -44.770  60.434 -54.667  1.00  0.00     0.166 HD
ENDROOT
BRANCH   4  11
HETATM   11  S   UNL     1     -42.223  60.144 -55.594  1.00  0.00    -0.102 SA
BRANCH  11  12
HETATM   12  C   UNL     1     -43.116  59.002 -56.709  1.00  0.00     0.184 C 
BRANCH  12  13
HETATM   13  C   UNL     1     -43.220  57.599 -56.123  1.00  0.00     0.231 C 
HETATM   14  N   UNL     1     -42.003  56.955 -55.985  1.00  0.00    -0.327 N 
HETATM   15  H   UNL     1     -41.207  57.434 -56.396  1.00  0.00     0.169 HD
HETATM   16  O   UNL     1     -44.311  57.167 -55.756  1.00  0.00    -0.272 OA
BRANCH  14  17
HETATM   17  C   UNL     1     -41.753  55.678 -55.444  1.00  0.00     0.034 A 
HETATM   18  C   UNL     1     -42.521  54.547 -55.726  1.00  0.00     0.031 A 
HETATM   19  C   UNL     1     -42.202  53.311 -55.153  1.00  0.00     0.026 A 
HETATM   20  C   UNL     1     -41.111  53.204 -54.296  1.00  0.00     0.034 A 
HETATM   21 CL   UNL     1     -40.715  51.682 -53.598  1.00  0.00    -0.084 Cl
HETATM   22  C   UNL     1     -40.339  54.323 -54.001  1.00  0.00     0.026 A 
HETATM   23  C   UNL     1     -40.662  55.558 -54.572  1.00  0.00     0.031 A 
ENDBRANCH  14  17
ENDBRANCH  12  13
ENDBRANCH  11  12
ENDBRANCH   4  11
BRANCH   8  24
HETATM   24  C   UNL     1     -42.927  57.346 -51.574  1.00  0.00    -0.044 A 
HETATM   25  C   UNL     1     -42.045  56.731 -50.668  1.00  0.00     0.008 A 
HETATM   26  C   UNL     1     -42.001  55.342 -50.543  1.00  0.00     0.001 A 
HETATM   27  C   UNL     1     -42.832  54.543 -51.322  1.00  0.00     0.000 A 
HETATM   28  C   UNL     1     -43.699  55.132 -52.238  1.00  0.00     0.001 A 
HETATM   29  C   UNL     1     -43.739  56.521 -52.373  1.00  0.00     0.008 A 
ENDBRANCH   8  24
BRANCH   9  30
HETATM   30  C   UNL     1     -44.893  59.691 -50.225  1.00  0.00     0.255 C 
HETATM   31  N   UNL     1     -44.073  60.399 -49.391  1.00  0.00    -0.321 N 
HETATM   32  H   UNL     1     -43.734  59.878 -48.588  1.00  0.00     0.169 HD
HETATM   33  O   UNL     1     -45.915  59.122 -49.864  1.00  0.00    -0.268 OA
BRANCH  31  34
HETATM   34  C   UNL     1     -44.322  61.748 -49.018  1.00  0.00     0.068 A 
HETATM   35  C   UNL     1     -44.853  61.986 -47.740  1.00  0.00     0.095 A 
HETATM   36  C   UNL     1     -44.994  63.296 -47.273  1.00  0.00     0.039 A 
HETATM   37  C   UNL     1     -44.666  64.370 -48.101  1.00  0.00     0.003 A 
HETATM   38  C   UNL     1     -44.214  64.137 -49.398  1.00  0.00     0.002 A 
HETATM   39  C   UNL     1     -44.046  62.830 -49.858  1.00  0.00     0.032 A 
BRANCH  35  40
HETATM   40  O   UNL     1     -45.165  60.887 -46.975  1.00  0.00    -0.354 OA
HETATM   41  C   UNL     1     -44.878  61.069 -45.589  1.00  0.00     0.210 C 
ENDBRANCH  35  40
ENDBRANCH  31  34
ENDBRANCH   9  30
TORSDOF 8
ENDMDL
MODEL 4
REMARK VINA RESULT:      -7.8      1.832      2.593
REMARK  8 active torsions:
REMARK  status: ('A' for Active; 'I' for Inactive)
REMARK    1  A    between atoms: C_4  and  S_5 
REMARK    2  A    between atoms: S_5  and  C_6 
REMARK    3  A    between atoms: C_6  and  C_7 
REMARK       I    between atoms: C_7  and  N_8 
REMARK    4  A    between atoms: N_8  and  C_9 
REMARK    5  A    between atoms: C_20  and  C_21 
REMARK    6  A    between atoms: C_27  and  C_28 
REMARK       I    between atoms: C_28  and  N_29 
REMARK    7  A    between atoms: N_29  and  C_30 
REMARK    8  A    between atoms: C_31  and  O_32 
ROOT
HETATM    1  C   UNL     1     -42.252  60.250 -56.274  1.00  0.00     0.069 C 
HETATM    2  C   UNL     1     -42.703  59.325 -55.173  1.00  0.00     0.019 C 
HETATM    3  N   UNL     1     -42.473  59.763 -53.875  1.00  0.00    -0.353 N 
HETATM    4  C   UNL     1     -43.120  59.243 -52.763  1.00  0.00     0.088 C 
HETATM    5  C   UNL     1     -43.788  58.067 -52.874  1.00  0.00     0.069 C 
HETATM    6  C   UNL     1     -44.599  57.534 -51.830  1.00  0.00     0.099 C 
HETATM    7  N   UNL     1     -45.262  57.099 -50.982  1.00  0.00    -0.192 NA
HETATM    8  C   UNL     1     -43.726  57.273 -54.183  1.00  0.00     0.106 C 
HETATM    9  C   UNL     1     -43.314  58.134 -55.366  1.00  0.00     0.046 C 
HETATM   10  H   UNL     1     -42.176  60.730 -53.765  1.00  0.00     0.166 HD
ENDROOT
BRANCH   4  11
HETATM   11  S   UNL     1     -43.121  60.167 -51.271  1.00  0.00    -0.102 SA
BRANCH  11  12
HETATM   12  C   UNL     1     -41.385  59.924 -50.748  1.00  0.00     0.184 C 
BRANCH  12  13
HETATM   13  C   UNL     1     -40.915  58.493 -50.984  1.00  0.00     0.231 C 
HETATM   14  N   UNL     1     -41.496  57.563 -50.140  1.00  0.00    -0.327 N 
HETATM   15  H   UNL     1     -42.066  57.948 -49.394  1.00  0.00     0.169 HD
HETATM   16  O   UNL     1     -40.143  58.247 -51.908  1.00  0.00    -0.272 OA
BRANCH  14  17
HETATM   17  C   UNL     1     -41.308  56.167 -50.127  1.00  0.00     0.034 A 
HETATM   18  C   UNL     1     -42.343  55.239 -50.255  1.00  0.00     0.031 A 
HETATM   19  C   UNL     1     -42.072  53.866 -50.240  1.00  0.00     0.026 A 
HETATM   20  C   UNL     1     -40.762  53.418 -50.097  1.00  0.00     0.034 A 
HETATM   21 CL   UNL     1     -40.429  51.730 -50.087  1.00  0.00    -0.084 Cl
HETATM   22  C   UNL     1     -39.720  54.331 -49.964  1.00  0.00     0.026 A 
HETATM   23  C   UNL     1     -39.994  55.702 -49.975  1.00  0.00     0.031 A 
ENDBRANCH  14  17
ENDBRANCH  12  13
ENDBRANCH  11  12
ENDBRANCH   4  11
BRANCH   8  24
HETATM   24  C   UNL     1     -42.834  56.039 -53.983  1.00  0.00    -0.044 A 
HETATM   25  C   UNL     1     -41.438  56.190 -53.907  1.00  0.00     0.008 A 
HETATM   26  C   UNL     1     -40.606  55.082 -53.745  1.00  0.00     0.001 A 
HETATM   27  C   UNL     1     -41.152  53.804 -53.663  1.00  0.00     0.000 A 
HETATM   28  C   UNL     1     -42.529  53.632 -53.754  1.00  0.00     0.001 A 
HETATM   29  C   UNL     1     -43.364  54.738 -53.926  1.00  0.00     0.008 A 
ENDBRANCH   8  24
BRANCH   9  30
HETATM   30  C   UNL     1     -43.741  57.720 -56.729  1.00  0.00     0.255 C 
HETATM   31  N   UNL     1     -45.096  57.606 -56.868  1.00  0.00    -0.321 N 
HETATM   32  H   UNL     1     -45.424  56.664 -57.060  1.00  0.00     0.169 HD
HETATM   33  O   UNL     1     -42.930  57.355 -57.571  1.00  0.00    -0.268 OA
BRANCH  31  34
HETATM   34  C   UNL     1     -45.884  58.544 -57.587  1.00  0.00     0.068 A 
HETATM   35  C   UNL     1     -46.425  58.139 -58.818  1.00  0.00     0.095 A 
HETATM   36  C   UNL     1     -47.314  58.974 -59.502  1.00  0.00     0.039 A 
HETATM   37  C   UNL     1     -47.615  60.237 -58.992  1.00  0.00     0.003 A 
HETATM   38  C   UNL     1     -47.018  60.673 -57.811  1.00  0.00     0.002 A 
HETATM   39  C   UNL     1     -46.151  59.831 -57.111  1.00  0.00     0.032 A 
BRANCH  35  40
HETATM   40  O   UNL     1     -46.084  56.886 -59.271  1.00  0.00    -0.354 OA
HETATM   41  C   UNL     1     -46.999  56.373 -60.238  1.00  0.00     0.210 C 
ENDBRANCH  35  40
ENDBRANCH  31  34
ENDBRANCH   9  30
TORSDOF 8
ENDMDL
MODEL 5
REMARK VINA RESULT:      -7.5      4.555      8.223
REMARK  8 active torsions:
REMARK  status: ('A' for Active; 'I' for Inactive)
REMARK    1  A    between atoms: C_4  and  S_5 
REMARK    2  A    between atoms: S_5  and  C_6 
REMARK    3  A    between atoms: C_6  and  C_7 
REMARK       I    between atoms: C_7  and  N_8 
REMARK    4  A    between atoms: N_8  and  C_9 
REMARK    5  A    between atoms: C_20  and  C_21 
REMARK    6  A    between atoms: C_27  and  C_28 
REMARK       I    between atoms: C_28  and  N_29 
REMARK    7  A    between atoms: N_29  and  C_30 
REMARK    8  A    between atoms: C_31  and  O_32 
ROOT
HETATM    1  C   UNL     1     -45.073  58.154 -50.813  1.00  0.00     0.069 C 
HETATM    2  C   UNL     1     -44.281  58.263 -52.090  1.00  0.00     0.019 C 
HETATM    3  N   UNL     1     -44.981  58.697 -53.209  1.00  0.00    -0.353 N 
HETATM    4  C   UNL     1     -44.371  59.195 -54.351  1.00  0.00     0.088 C 
HETATM    5  C   UNL     1     -43.042  58.993 -54.536  1.00  0.00     0.069 C 
HETATM    6  C   UNL     1     -42.306  59.590 -55.600  1.00  0.00     0.099 C 
HETATM    7  N   UNL     1     -41.704  60.078 -56.465  1.00  0.00    -0.192 NA
HETATM    8  C   UNL     1     -42.256  58.125 -53.546  1.00  0.00     0.106 C 
HETATM    9  C   UNL     1     -42.962  57.986 -52.207  1.00  0.00     0.046 C 
HETATM   10  H   UNL     1     -45.917  59.061 -53.049  1.00  0.00     0.166 HD
ENDROOT
BRANCH   4  11
HETATM   11  S   UNL     1     -45.325  60.140 -55.480  1.00  0.00    -0.102 SA
BRANCH  11  12
HETATM   12  C   UNL     1     -45.506  61.688 -54.523  1.00  0.00     0.184 C 
BRANCH  12  13
HETATM   13  C   UNL     1     -46.725  61.652 -53.608  1.00  0.00     0.231 C 
HETATM   14  N   UNL     1     -47.805  62.375 -54.081  1.00  0.00    -0.327 N 
HETATM   15  H   UNL     1     -47.626  62.936 -54.909  1.00  0.00     0.169 HD
HETATM   16  O   UNL     1     -46.707  60.962 -52.591  1.00  0.00    -0.272 OA
BRANCH  14  17
HETATM   17  C   UNL     1     -49.081  62.510 -53.500  1.00  0.00     0.034 A 
HETATM   18  C   UNL     1     -50.242  61.940 -54.026  1.00  0.00     0.031 A 
HETATM   19  C   UNL     1     -51.473  62.114 -53.382  1.00  0.00     0.026 A 
HETATM   20  C   UNL     1     -51.544  62.859 -52.209  1.00  0.00     0.034 A 
HETATM   21 CL   UNL     1     -53.056  63.065 -51.415  1.00  0.00    -0.084 Cl
HETATM   22  C   UNL     1     -50.396  63.437 -51.676  1.00  0.00     0.026 A 
HETATM   23  C   UNL     1     -49.169  63.265 -52.322  1.00  0.00     0.031 A 
ENDBRANCH  14  17
ENDBRANCH  12  13
ENDBRANCH  11  12
ENDBRANCH   4  11
BRANCH   8  24
HETATM   24  C   UNL     1     -41.924  56.779 -54.207  1.00  0.00    -0.044 A 
HETATM   25  C   UNL     1     -42.932  56.062 -54.876  1.00  0.00     0.008 A 
HETATM   26  C   UNL     1     -42.660  54.828 -55.467  1.00  0.00     0.001 A 
HETATM   27  C   UNL     1     -41.380  54.286 -55.397  1.00  0.00     0.000 A 
HETATM   28  C   UNL     1     -40.373  54.972 -54.725  1.00  0.00     0.001 A 
HETATM   29  C   UNL     1     -40.645  56.203 -54.123  1.00  0.00     0.008 A 
ENDBRANCH   8  24
BRANCH   9  30
HETATM   30  C   UNL     1     -42.144  57.700 -50.999  1.00  0.00     0.255 C 
HETATM   31  N   UNL     1     -42.437  56.502 -50.409  1.00  0.00    -0.321 N 
HETATM   32  H   UNL     1     -42.826  56.575 -49.474  1.00  0.00     0.169 HD
HETATM   33  O   UNL     1     -41.413  58.550 -50.505  1.00  0.00    -0.268 OA
BRANCH  31  34
HETATM   34  C   UNL     1     -41.583  55.369 -50.487  1.00  0.00     0.068 A 
HETATM   35  C   UNL     1     -41.990  54.296 -51.296  1.00  0.00     0.095 A 
HETATM   36  C   UNL     1     -41.130  53.215 -51.512  1.00  0.00     0.039 A 
HETATM   37  C   UNL     1     -39.890  53.174 -50.874  1.00  0.00     0.003 A 
HETATM   38  C   UNL     1     -39.516  54.200 -50.009  1.00  0.00     0.002 A 
HETATM   39  C   UNL     1     -40.362  55.293 -49.811  1.00  0.00     0.032 A 
BRANCH  35  40
HETATM   40  O   UNL     1     -43.226  54.393 -51.891  1.00  0.00    -0.354 OA
HETATM   41  C   UNL     1     -44.270  53.810 -51.110  1.00  0.00     0.210 C 
ENDBRANCH  35  40
ENDBRANCH  31  34
ENDBRANCH   9  30
TORSDOF 8
ENDMDL
MODEL 6
REMARK VINA RESULT:      -7.4      3.301      6.889
REMARK  8 active torsions:
REMARK  status: ('A' for Active; 'I' for Inactive)
REMARK    1  A    between atoms: C_4  and  S_5 
REMARK    2  A    between atoms: S_5  and  C_6 
REMARK    3  A    between atoms: C_6  and  C_7 
REMARK       I    between atoms: C_7  and  N_8 
REMARK    4  A    between atoms: N_8  and  C_9 
REMARK    5  A    between atoms: C_20  and  C_21 
REMARK    6  A    between atoms: C_27  and  C_28 
REMARK       I    between atoms: C_28  and  N_29 
REMARK    7  A    between atoms: N_29  and  C_30 
REMARK    8  A    between atoms: C_31  and  O_32 
ROOT
HETATM    1  C   UNL     1     -46.530  60.625 -52.343  1.00  0.00     0.069 C 
HETATM    2  C   UNL     1     -45.143  60.040 -52.419  1.00  0.00     0.019 C 
HETATM    3  N   UNL     1     -44.549  60.039 -53.675  1.00  0.00    -0.353 N 
HETATM    4  C   UNL     1     -43.185  59.884 -53.879  1.00  0.00     0.088 C 
HETATM    5  C   UNL     1     -42.411  59.422 -52.866  1.00  0.00     0.069 C 
HETATM    6  C   UNL     1     -40.988  59.371 -52.936  1.00  0.00     0.099 C 
HETATM    7  N   UNL     1     -39.829  59.331 -52.992  1.00  0.00    -0.192 NA
HETATM    8  C   UNL     1     -43.060  58.970 -51.553  1.00  0.00     0.106 C 
HETATM    9  C   UNL     1     -44.455  59.542 -51.366  1.00  0.00     0.046 C 
HETATM   10  H   UNL     1     -45.017  60.574 -54.403  1.00  0.00     0.166 HD
ENDROOT
BRANCH   4  11
HETATM   11  S   UNL     1     -42.496  60.370 -55.418  1.00  0.00    -0.102 SA
BRANCH  11  12
HETATM   12  C   UNL     1     -43.325  59.175 -56.527  1.00  0.00     0.184 C 
BRANCH  12  13
HETATM   13  C   UNL     1     -42.616  57.826 -56.542  1.00  0.00     0.231 C 
HETATM   14  N   UNL     1     -42.629  57.169 -55.324  1.00  0.00    -0.327 N 
HETATM   15  H   UNL     1     -42.996  57.705 -54.544  1.00  0.00     0.169 HD
HETATM   16  O   UNL     1     -42.160  57.385 -57.595  1.00  0.00    -0.272 OA
BRANCH  14  17
HETATM   17  C   UNL     1     -42.102  55.899 -55.018  1.00  0.00     0.034 A 
HETATM   18  C   UNL     1     -40.826  55.690 -54.490  1.00  0.00     0.031 A 
HETATM   19  C   UNL     1     -40.379  54.395 -54.204  1.00  0.00     0.026 A 
HETATM   20  C   UNL     1     -41.209  53.304 -54.447  1.00  0.00     0.034 A 
HETATM   21 CL   UNL     1     -40.661  51.714 -54.089  1.00  0.00    -0.084 Cl
HETATM   22  C   UNL     1     -42.481  53.496 -54.978  1.00  0.00     0.026 A 
HETATM   23  C   UNL     1     -42.924  54.791 -55.266  1.00  0.00     0.031 A 
ENDBRANCH  14  17
ENDBRANCH  12  13
ENDBRANCH  11  12
ENDBRANCH   4  11
BRANCH   8  24
HETATM   24  C   UNL     1     -43.010  57.437 -51.466  1.00  0.00    -0.044 A 
HETATM   25  C   UNL     1     -44.082  56.674 -51.962  1.00  0.00     0.008 A 
HETATM   26  C   UNL     1     -44.068  55.281 -51.877  1.00  0.00     0.001 A 
HETATM   27  C   UNL     1     -42.988  54.627 -51.292  1.00  0.00     0.000 A 
HETATM   28  C   UNL     1     -41.926  55.366 -50.779  1.00  0.00     0.001 A 
HETATM   29  C   UNL     1     -41.941  56.760 -50.854  1.00  0.00     0.008 A 
ENDBRANCH   8  24
BRANCH   9  30
HETATM   30  C   UNL     1     -44.982  59.696 -49.984  1.00  0.00     0.255 C 
HETATM   31  N   UNL     1     -44.274  60.584 -49.223  1.00  0.00    -0.321 N 
HETATM   32  H   UNL     1     -43.800  60.173 -48.424  1.00  0.00     0.169 HD
HETATM   33  O   UNL     1     -45.855  58.958 -49.546  1.00  0.00    -0.268 OA
BRANCH  31  34
HETATM   34  C   UNL     1     -44.762  61.874 -48.881  1.00  0.00     0.068 A 
HETATM   35  C   UNL     1     -44.373  62.957 -49.687  1.00  0.00     0.095 A 
HETATM   36  C   UNL     1     -44.926  64.223 -49.475  1.00  0.00     0.039 A 
HETATM   37  C   UNL     1     -45.819  64.425 -48.422  1.00  0.00     0.003 A 
HETATM   38  C   UNL     1     -46.146  63.370 -47.573  1.00  0.00     0.002 A 
HETATM   39  C   UNL     1     -45.616  62.098 -47.798  1.00  0.00     0.032 A 
BRANCH  35  40
HETATM   40  O   UNL     1     -43.483  62.695 -50.702  1.00  0.00    -0.354 OA
HETATM   41  C   UNL     1     -43.073  63.869 -51.403  1.00  0.00     0.210 C 
ENDBRANCH  35  40
ENDBRANCH  31  34
ENDBRANCH   9  30
TORSDOF 8
ENDMDL
MODEL 7
REMARK VINA RESULT:      -7.2      3.364      8.365
REMARK  8 active torsions:
REMARK  status: ('A' for Active; 'I' for Inactive)
REMARK    1  A    between atoms: C_4  and  S_5 
REMARK    2  A    between atoms: S_5  and  C_6 
REMARK    3  A    between atoms: C_6  and  C_7 
REMARK       I    between atoms: C_7  and  N_8 
REMARK    4  A    between atoms: N_8  and  C_9 
REMARK    5  A    between atoms: C_20  and  C_21 
REMARK    6  A    between atoms: C_27  and  C_28 
REMARK       I    between atoms: C_28  and  N_29 
REMARK    7  A    between atoms: N_29  and  C_30 
REMARK    8  A    between atoms: C_31  and  O_32 
ROOT
HETATM    1  C   UNL     1     -45.073  58.377 -50.987  1.00  0.00     0.069 C 
HETATM    2  C   UNL     1     -44.283  58.290 -52.268  1.00  0.00     0.019 C 
HETATM    3  N   UNL     1     -44.967  58.623 -53.431  1.00  0.00    -0.353 N 
HETATM    4  C   UNL     1     -44.339  58.947 -54.625  1.00  0.00     0.088 C 
HETATM    5  C   UNL     1     -43.024  58.655 -54.783  1.00  0.00     0.069 C 
HETATM    6  C   UNL     1     -42.264  59.081 -55.912  1.00  0.00     0.099 C 
HETATM    7  N   UNL     1     -41.644  59.429 -56.829  1.00  0.00    -0.192 NA
HETATM    8  C   UNL     1     -42.278  57.873 -53.696  1.00  0.00     0.106 C 
HETATM    9  C   UNL     1     -42.981  57.933 -52.350  1.00  0.00     0.046 C 
HETATM   10  H   UNL     1     -45.882  59.051 -53.316  1.00  0.00     0.166 HD
ENDROOT
BRANCH   4  11
HETATM   11  S   UNL     1     -45.250  59.798 -55.859  1.00  0.00    -0.102 SA
BRANCH  11  12
HETATM   12  C   UNL     1     -45.798  58.383 -56.881  1.00  0.00     0.184 C 
BRANCH  12  13
HETATM   13  C   UNL     1     -45.366  58.530 -58.335  1.00  0.00     0.231 C 
HETATM   14  N   UNL     1     -44.568  59.635 -58.577  1.00  0.00    -0.327 N 
HETATM   15  H   UNL     1     -44.464  60.276 -57.797  1.00  0.00     0.169 HD
HETATM   16  O   UNL     1     -45.673  57.668 -59.155  1.00  0.00    -0.272 OA
BRANCH  14  17
HETATM   17  C   UNL     1     -43.977  60.028 -59.793  1.00  0.00     0.034 A 
HETATM   18  C   UNL     1     -42.634  59.818 -60.112  1.00  0.00     0.031 A 
HETATM   19  C   UNL     1     -42.124  60.232 -61.348  1.00  0.00     0.026 A 
HETATM   20  C   UNL     1     -42.958  60.858 -62.269  1.00  0.00     0.034 A 
HETATM   21 CL   UNL     1     -42.331  61.360 -63.790  1.00  0.00    -0.084 Cl
HETATM   22  C   UNL     1     -44.297  61.080 -61.964  1.00  0.00     0.026 A 
HETATM   23  C   UNL     1     -44.804  60.668 -60.727  1.00  0.00     0.031 A 
ENDBRANCH  14  17
ENDBRANCH  12  13
ENDBRANCH  11  12
ENDBRANCH   4  11
BRANCH   8  24
HETATM   24  C   UNL     1     -42.020  56.442 -54.190  1.00  0.00    -0.044 A 
HETATM   25  C   UNL     1     -43.091  55.663 -54.662  1.00  0.00     0.008 A 
HETATM   26  C   UNL     1     -42.885  54.353 -55.097  1.00  0.00     0.001 A 
HETATM   27  C   UNL     1     -41.609  53.798 -55.065  1.00  0.00     0.000 A 
HETATM   28  C   UNL     1     -40.540  54.547 -54.586  1.00  0.00     0.001 A 
HETATM   29  C   UNL     1     -40.744  55.855 -54.140  1.00  0.00     0.008 A 
ENDBRANCH   8  24
BRANCH   9  30
HETATM   30  C   UNL     1     -42.172  57.752 -51.116  1.00  0.00     0.255 C 
HETATM   31  N   UNL     1     -42.473  56.612 -50.425  1.00  0.00    -0.321 N 
HETATM   32  H   UNL     1     -42.868  56.768 -49.502  1.00  0.00     0.169 HD
HETATM   33  O   UNL     1     -41.441  58.640 -50.694  1.00  0.00    -0.268 OA
BRANCH  31  34
HETATM   34  C   UNL     1     -41.623  55.474 -50.397  1.00  0.00     0.068 A 
HETATM   35  C   UNL     1     -42.066  54.309 -51.044  1.00  0.00     0.095 A 
HETATM   36  C   UNL     1     -41.217  53.205 -51.160  1.00  0.00     0.039 A 
HETATM   37  C   UNL     1     -39.949  53.238 -50.578  1.00  0.00     0.003 A 
HETATM   38  C   UNL     1     -39.537  54.363 -49.868  1.00  0.00     0.002 A 
HETATM   39  C   UNL     1     -40.373  55.478 -49.773  1.00  0.00     0.032 A 
BRANCH  35  40
HETATM   40  O   UNL     1     -43.328  54.336 -51.590  1.00  0.00    -0.354 OA
HETATM   41  C   UNL     1     -44.328  53.817 -50.714  1.00  0.00     0.210 C 
ENDBRANCH  35  40
ENDBRANCH  31  34
ENDBRANCH   9  30
TORSDOF 8
ENDMDL
MODEL 8
REMARK VINA RESULT:      -7.1      3.763      8.494
REMARK  8 active torsions:
REMARK  status: ('A' for Active; 'I' for Inactive)
REMARK    1  A    between atoms: C_4  and  S_5 
REMARK    2  A    between atoms: S_5  and  C_6 
REMARK    3  A    between atoms: C_6  and  C_7 
REMARK       I    between atoms: C_7  and  N_8 
REMARK    4  A    between atoms: N_8  and  C_9 
REMARK    5  A    between atoms: C_20  and  C_21 
REMARK    6  A    between atoms: C_27  and  C_28 
REMARK       I    between atoms: C_28  and  N_29 
REMARK    7  A    between atoms: N_29  and  C_30 
REMARK    8  A    between atoms: C_31  and  O_32 
ROOT
HETATM    1  C   UNL     1     -42.656  55.207 -56.555  1.00  0.00     0.069 C 
HETATM    2  C   UNL     1     -43.037  56.372 -55.679  1.00  0.00     0.019 C 
HETATM    3  N   UNL     1     -43.246  57.582 -56.328  1.00  0.00    -0.353 N 
HETATM    4  C   UNL     1     -43.934  58.647 -55.765  1.00  0.00     0.088 C 
HETATM    5  C   UNL     1     -44.170  58.653 -54.429  1.00  0.00     0.069 C 
HETATM    6  C   UNL     1     -44.990  59.627 -53.789  1.00  0.00     0.099 C 
HETATM    7  N   UNL     1     -45.661  60.418 -53.267  1.00  0.00    -0.192 NA
HETATM    8  C   UNL     1     -43.579  57.549 -53.544  1.00  0.00     0.106 C 
HETATM    9  C   UNL     1     -43.197  56.310 -54.337  1.00  0.00     0.046 C 
HETATM   10  H   UNL     1     -43.289  57.554 -57.344  1.00  0.00     0.166 HD
ENDROOT
BRANCH   4  11
HETATM   11  S   UNL     1     -44.547  59.913 -56.815  1.00  0.00    -0.102 SA
BRANCH  11  12
HETATM   12  C   UNL     1     -44.052  59.241 -58.442  1.00  0.00     0.184 C 
BRANCH  12  13
HETATM   13  C   UNL     1     -42.678  59.741 -58.871  1.00  0.00     0.231 C 
HETATM   14  N   UNL     1     -42.700  60.969 -59.508  1.00  0.00    -0.327 N 
HETATM   15  H   UNL     1     -43.623  61.333 -59.722  1.00  0.00     0.169 HD
HETATM   16  O   UNL     1     -41.673  59.097 -58.579  1.00  0.00    -0.272 OA
BRANCH  14  17
HETATM   17  C   UNL     1     -41.607  61.718 -59.987  1.00  0.00     0.034 A 
HETATM   18  C   UNL     1     -40.668  62.342 -59.163  1.00  0.00     0.031 A 
HETATM   19  C   UNL     1     -39.604  63.063 -59.718  1.00  0.00     0.026 A 
HETATM   20  C   UNL     1     -39.476  63.160 -61.100  1.00  0.00     0.034 A 
HETATM   21 CL   UNL     1     -38.164  64.039 -61.780  1.00  0.00    -0.084 Cl
HETATM   22  C   UNL     1     -40.407  62.548 -61.934  1.00  0.00     0.026 A 
HETATM   23  C   UNL     1     -41.471  61.832 -61.377  1.00  0.00     0.031 A 
ENDBRANCH  14  17
ENDBRANCH  12  13
ENDBRANCH  11  12
ENDBRANCH   4  11
BRANCH   8  24
HETATM   24  C   UNL     1     -42.422  58.129 -52.717  1.00  0.00    -0.044 A 
HETATM   25  C   UNL     1     -42.665  58.613 -51.420  1.00  0.00     0.008 A 
HETATM   26  C   UNL     1     -41.634  59.164 -50.657  1.00  0.00     0.001 A 
HETATM   27  C   UNL     1     -40.345  59.244 -51.177  1.00  0.00     0.000 A 
HETATM   28  C   UNL     1     -40.089  58.786 -52.465  1.00  0.00     0.001 A 
HETATM   29  C   UNL     1     -41.121  58.244 -53.235  1.00  0.00     0.008 A 
ENDBRANCH   8  24
BRANCH   9  30
HETATM   30  C   UNL     1     -43.164  55.000 -53.636  1.00  0.00     0.255 C 
HETATM   31  N   UNL     1     -41.901  54.565 -53.345  1.00  0.00    -0.321 N 
HETATM   32  H   UNL     1     -41.626  53.712 -53.823  1.00  0.00     0.169 HD
HETATM   33  O   UNL     1     -44.173  54.319 -53.503  1.00  0.00    -0.268 OA
BRANCH  31  34
HETATM   34  C   UNL     1     -41.361  54.573 -52.030  1.00  0.00     0.068 A 
HETATM   35  C   UNL     1     -40.339  53.655 -51.736  1.00  0.00     0.095 A 
HETATM   36  C   UNL     1     -39.683  53.709 -50.503  1.00  0.00     0.039 A 
HETATM   37  C   UNL     1     -40.086  54.634 -49.539  1.00  0.00     0.003 A 
HETATM   38  C   UNL     1     -41.151  55.493 -49.800  1.00  0.00     0.002 A 
HETATM   39  C   UNL     1     -41.791  55.461 -51.040  1.00  0.00     0.032 A 
BRANCH  35  40
HETATM   40  O   UNL     1     -39.994  52.763 -52.724  1.00  0.00    -0.354 OA
HETATM   41  C   UNL     1     -39.562  51.503 -52.213  1.00  0.00     0.210 C 
ENDBRANCH  35  40
ENDBRANCH  31  34
ENDBRANCH   9  30
TORSDOF 8
ENDMDL
MODEL 9
REMARK VINA RESULT:      -7.1      3.683      6.874
REMARK  8 active torsions:
REMARK  status: ('A' for Active; 'I' for Inactive)
REMARK    1  A    between atoms: C_4  and  S_5 
REMARK    2  A    between atoms: S_5  and  C_6 
REMARK    3  A    between atoms: C_6  and  C_7 
REMARK       I    between atoms: C_7  and  N_8 
REMARK    4  A    between atoms: N_8  and  C_9 
REMARK    5  A    between atoms: C_20  and  C_21 
REMARK    6  A    between atoms: C_27  and  C_28 
REMARK       I    between atoms: C_28  and  N_29 
REMARK    7  A    between atoms: N_29  and  C_30 
REMARK    8  A    between atoms: C_31  and  O_32 
ROOT
HETATM    1  C   UNL     1     -44.289  56.044 -53.195  1.00  0.00     0.069 C 
HETATM    2  C   UNL     1     -43.823  56.794 -54.415  1.00  0.00     0.019 C 
HETATM    3  N   UNL     1     -44.141  58.146 -54.460  1.00  0.00    -0.353 N 
HETATM    4  C   UNL     1     -43.508  59.057 -55.294  1.00  0.00     0.088 C 
HETATM    5  C   UNL     1     -42.753  58.600 -56.324  1.00  0.00     0.069 C 
HETATM    6  C   UNL     1     -41.953  59.452 -57.139  1.00  0.00     0.099 C 
HETATM    7  N   UNL     1     -41.298  60.146 -57.802  1.00  0.00    -0.192 NA
HETATM    8  C   UNL     1     -42.699  57.097 -56.625  1.00  0.00     0.106 C 
HETATM    9  C   UNL     1     -43.119  56.251 -55.435  1.00  0.00     0.046 C 
HETATM   10  H   UNL     1     -44.512  58.556 -53.607  1.00  0.00     0.166 HD
ENDROOT
BRANCH   4  11
HETATM   11  S   UNL     1     -43.642  60.770 -54.938  1.00  0.00    -0.102 SA
BRANCH  11  12
HETATM   12  C   UNL     1     -42.512  60.883 -53.504  1.00  0.00     0.184 C 
BRANCH  12  13
HETATM   13  C   UNL     1     -43.232  60.610 -52.189  1.00  0.00     0.231 C 
HETATM   14  N   UNL     1     -43.764  61.741 -51.593  1.00  0.00    -0.327 N 
HETATM   15  H   UNL     1     -43.512  62.622 -52.030  1.00  0.00     0.169 HD
HETATM   16  O   UNL     1     -43.359  59.456 -51.787  1.00  0.00    -0.272 OA
BRANCH  14  17
HETATM   17  C   UNL     1     -44.515  61.823 -50.404  1.00  0.00     0.034 A 
HETATM   18  C   UNL     1     -44.051  61.403 -49.156  1.00  0.00     0.031 A 
HETATM   19  C   UNL     1     -44.858  61.527 -48.020  1.00  0.00     0.026 A 
HETATM   20  C   UNL     1     -46.134  62.072 -48.129  1.00  0.00     0.034 A 
HETATM   21 CL   UNL     1     -47.122  62.230 -46.730  1.00  0.00    -0.084 Cl
HETATM   22  C   UNL     1     -46.612  62.490 -49.367  1.00  0.00     0.026 A 
HETATM   23  C   UNL     1     -45.806  62.362 -50.502  1.00  0.00     0.031 A 
ENDBRANCH  14  17
ENDBRANCH  12  13
ENDBRANCH  11  12
ENDBRANCH   4  11
BRANCH   8  24
HETATM   24  C   UNL     1     -43.507  56.808 -57.899  1.00  0.00    -0.044 A 
HETATM   25  C   UNL     1     -42.998  55.916 -58.860  1.00  0.00     0.008 A 
HETATM   26  C   UNL     1     -43.704  55.652 -60.035  1.00  0.00     0.001 A 
HETATM   27  C   UNL     1     -44.926  56.276 -60.272  1.00  0.00     0.000 A 
HETATM   28  C   UNL     1     -45.436  57.175 -59.341  1.00  0.00     0.001 A 
HETATM   29  C   UNL     1     -44.728  57.449 -58.169  1.00  0.00     0.008 A 
ENDBRANCH   8  24
BRANCH   9  30
HETATM   30  C   UNL     1     -42.603  54.860 -55.334  1.00  0.00     0.255 C 
HETATM   31  N   UNL     1     -41.320  54.784 -54.867  1.00  0.00    -0.321 N 
HETATM   32  H   UNL     1     -40.648  54.416 -55.534  1.00  0.00     0.169 HD
HETATM   33  O   UNL     1     -43.224  53.912 -55.796  1.00  0.00    -0.268 OA
BRANCH  31  34
HETATM   34  C   UNL     1     -40.996  54.332 -53.560  1.00  0.00     0.068 A 
HETATM   35  C   UNL     1     -40.462  53.039 -53.427  1.00  0.00     0.095 A 
HETATM   36  C   UNL     1     -40.004  52.594 -52.184  1.00  0.00     0.039 A 
HETATM   37  C   UNL     1     -40.135  53.412 -51.060  1.00  0.00     0.003 A 
HETATM   38  C   UNL     1     -40.735  54.664 -51.175  1.00  0.00     0.002 A 
HETATM   39  C   UNL     1     -41.169  55.122 -52.420  1.00  0.00     0.032 A 
BRANCH  35  40
HETATM   40  O   UNL     1     -40.369  52.279 -54.569  1.00  0.00    -0.354 OA
HETATM   41  C   UNL     1     -40.264  50.881 -54.304  1.00  0.00     0.210 C 
ENDBRANCH  35  40
ENDBRANCH  31  34
ENDBRANCH   9  30
TORSDOF 8
ENDMDL
MODEL 10
REMARK VINA RESULT:      -7.1      3.528      8.305
REMARK  8 active torsions:
REMARK  status: ('A' for Active; 'I' for Inactive)
REMARK    1  A    between atoms: C_4  and  S_5 
REMARK    2  A    between atoms: S_5  and  C_6 
REMARK    3  A    between atoms: C_6  and  C_7 
REMARK       I    between atoms: C_7  and  N_8 
REMARK    4  A    between atoms: N_8  and  C_9 
REMARK    5  A    between atoms: C_20  and  C_21 
REMARK    6  A    between atoms: C_27  and  C_28 
REMARK       I    between atoms: C_28  and  N_29 
REMARK    7  A    between atoms: N_29  and  C_30 
REMARK    8  A    between atoms: C_31  and  O_32 
ROOT
HETATM    1  C   UNL     1     -39.554  58.790 -52.831  1.00  0.00     0.069 C 
HETATM    2  C   UNL     1     -41.015  58.752 -53.200  1.00  0.00     0.019 C 
HETATM    3  N   UNL     1     -41.362  59.389 -54.385  1.00  0.00    -0.353 N 
HETATM    4  C   UNL     1     -42.553  59.160 -55.059  1.00  0.00     0.088 C 
HETATM    5  C   UNL     1     -43.565  58.521 -54.421  1.00  0.00     0.069 C 
HETATM    6  C   UNL     1     -44.763  58.115 -55.077  1.00  0.00     0.099 C 
HETATM    7  N   UNL     1     -45.739  57.781 -55.610  1.00  0.00    -0.192 NA
HETATM    8  C   UNL     1     -43.427  58.163 -52.937  1.00  0.00     0.106 C 
HETATM    9  C   UNL     1     -41.979  58.139 -52.476  1.00  0.00     0.046 C 
HETATM   10  H   UNL     1     -40.597  59.684 -54.986  1.00  0.00     0.166 HD
ENDROOT
BRANCH   4  11
HETATM   11  S   UNL     1     -42.679  59.634 -56.744  1.00  0.00    -0.102 SA
BRANCH  11  12
HETATM   12  C   UNL     1     -42.139  58.084 -57.550  1.00  0.00     0.184 C 
BRANCH  12  13
HETATM   13  C   UNL     1     -43.028  57.717 -58.732  1.00  0.00     0.231 C 
HETATM   14  N   UNL     1     -44.379  57.905 -58.500  1.00  0.00    -0.327 N 
HETATM   15  H   UNL     1     -44.628  58.146 -57.545  1.00  0.00     0.169 HD
HETATM   16  O   UNL     1     -42.520  57.362 -59.793  1.00  0.00    -0.272 OA
BRANCH  14  17
HETATM   17  C   UNL     1     -45.450  57.701 -59.392  1.00  0.00     0.034 A 
HETATM   18  C   UNL     1     -46.153  58.733 -60.017  1.00  0.00     0.031 A 
HETATM   19  C   UNL     1     -47.201  58.446 -60.899  1.00  0.00     0.026 A 
HETATM   20  C   UNL     1     -47.548  57.123 -61.159  1.00  0.00     0.034 A 
HETATM   21 CL   UNL     1     -48.831  56.772 -62.249  1.00  0.00    -0.084 Cl
HETATM   22  C   UNL     1     -46.860  56.084 -60.540  1.00  0.00     0.026 A 
HETATM   23  C   UNL     1     -45.816  56.373 -59.656  1.00  0.00     0.031 A 
ENDBRANCH  14  17
ENDBRANCH  12  13
ENDBRANCH  11  12
ENDBRANCH   4  11
BRANCH   8  24
HETATM   24  C   UNL     1     -44.319  59.098 -52.106  1.00  0.00    -0.044 A 
HETATM   25  C   UNL     1     -44.280  60.485 -52.335  1.00  0.00     0.008 A 
HETATM   26  C   UNL     1     -45.066  61.357 -51.580  1.00  0.00     0.001 A 
HETATM   27  C   UNL     1     -45.900  60.861 -50.582  1.00  0.00     0.000 A 
HETATM   28  C   UNL     1     -45.939  59.493 -50.329  1.00  0.00     0.001 A 
HETATM   29  C   UNL     1     -45.146  58.619 -51.076  1.00  0.00     0.008 A 
ENDBRANCH   8  24
BRANCH   9  30
HETATM   30  C   UNL     1     -41.618  57.293 -51.308  1.00  0.00     0.255 C 
HETATM   31  N   UNL     1     -42.150  56.035 -51.357  1.00  0.00    -0.321 N 
HETATM   32  H   UNL     1     -42.820  55.829 -50.621  1.00  0.00     0.169 HD
HETATM   33  O   UNL     1     -41.048  57.762 -50.331  1.00  0.00    -0.268 OA
BRANCH  31  34
HETATM   34  C   UNL     1     -41.377  54.876 -51.639  1.00  0.00     0.068 A 
HETATM   35  C   UNL     1     -40.896  54.129 -50.552  1.00  0.00     0.095 A 
HETATM   36  C   UNL     1     -40.244  52.912 -50.772  1.00  0.00     0.039 A 
HETATM   37  C   UNL     1     -40.016  52.470 -52.076  1.00  0.00     0.003 A 
HETATM   38  C   UNL     1     -40.423  53.248 -53.157  1.00  0.00     0.002 A 
HETATM   39  C   UNL     1     -41.098  54.451 -52.941  1.00  0.00     0.032 A 
BRANCH  35  40
HETATM   40  O   UNL     1     -41.145  54.621 -49.293  1.00  0.00    -0.354 OA
HETATM   41  C   UNL     1     -40.486  53.885 -48.263  1.00  0.00     0.210 C 
ENDBRANCH  35  40
ENDBRANCH  31  34
ENDBRANCH   9  30
TORSDOF 8
ENDMDL
