MODEL 1
REMARK VINA RESULT:      -7.8      0.000      0.000
REMARK  6 active torsions:
REMARK  status: ('A' for Active; 'I' for Inactive)
REMARK    1  A    between atoms: O_2  and  C_3 
REMARK    2  A    between atoms: C_5  and  O_6 
REMARK    3  A    between atoms: C_9  and  C_10 
REMARK       I    between atoms: C_10  and  N_11 
REMARK    4  A    between atoms: N_11  and  C_12 
REMARK    5  A    between atoms: N_15  and  C_16 
REMARK    6  A    between atoms: C_20  and  C_21 
ROOT
HETATM    1  C   UNL     1     -43.864  60.345 -52.261  1.00  0.00     0.087 C 
HETATM    2  C   UNL     1     -42.342  60.160 -52.123  1.00  0.00     0.045 C 
HETATM    3  C   UNL     1     -41.997  59.160 -51.023  1.00  0.00     0.126 C 
HETATM    4  N   UNL     1     -42.670  57.880 -51.296  1.00  0.00    -0.366 N 
HETATM    5  C   UNL     1     -44.132  57.999 -51.336  1.00  0.00     0.126 C 
HETATM    6  C   UNL     1     -44.543  58.977 -52.440  1.00  0.00     0.045 C 
ENDROOT
BRANCH   1   7
HETATM    7  N   UNL     1     -44.464  61.065 -51.132  1.00  0.00    -0.352 N 
HETATM    8  C   UNL     1     -45.621  61.810 -51.260  1.00  0.00     0.252 C 
HETATM    9  O   UNL     1     -46.205  61.975 -52.325  1.00  0.00    -0.268 OA
HETATM   10  H   UNL     1     -44.275  60.699 -50.208  1.00  0.00     0.163 HD
BRANCH   8  11
HETATM   11  C   UNL     1     -46.164  62.410 -50.007  1.00  0.00     0.037 A 
HETATM   12  C   UNL     1     -47.414  63.046 -49.968  1.00  0.00     0.054 A 
HETATM   13  C   UNL     1     -47.881  63.587 -48.769  1.00  0.00     0.071 A 
HETATM   14  C   UNL     1     -47.107  63.475 -47.608  1.00  0.00     0.073 A 
HETATM   15  C   UNL     1     -45.878  62.816 -47.630  1.00  0.00     0.071 A 
HETATM   16  C   UNL     1     -45.408  62.292 -48.835  1.00  0.00     0.054 A 
BRANCH  13  17
HETATM   17  O   UNL     1     -49.069  64.243 -48.594  1.00  0.00    -0.356 OA
HETATM   18  C   UNL     1     -50.212  63.713 -49.255  1.00  0.00     0.210 C 
ENDBRANCH  13  17
BRANCH  15  19
HETATM   19  O   UNL     1     -45.049  62.627 -46.559  1.00  0.00    -0.356 OA
HETATM   20  C   UNL     1     -44.994  61.312 -46.017  1.00  0.00     0.210 C 
ENDBRANCH  15  19
ENDBRANCH   8  11
ENDBRANCH   1   7
BRANCH   4  21
HETATM   21  C   UNL     1     -42.052  56.874 -51.992  1.00  0.00     0.121 A 
HETATM   22  N   UNL     1     -41.404  57.067 -53.185  1.00  0.00    -0.262 N 
HETATM   23  H   UNL     1     -41.284  57.934 -53.690  1.00  0.00     0.191 HD
HETATM   24  N   UNL     1     -40.860  55.958 -53.710  1.00  0.00    -0.173 NA
HETATM   25  C   UNL     1     -41.116  54.999 -52.807  1.00  0.00     0.090 A 
HETATM   26  C   UNL     1     -41.863  55.536 -51.721  1.00  0.00     0.084 A 
BRANCH  25  27
HETATM   27  C   UNL     1     -40.651  53.619 -52.996  1.00  0.00    -0.005 A 
HETATM   28  C   UNL     1     -40.072  52.897 -51.940  1.00  0.00     0.015 A 
HETATM   29  C   UNL     1     -39.631  51.583 -52.131  1.00  0.00     0.024 A 
HETATM   30  C   UNL     1     -39.765  50.980 -53.380  1.00  0.00     0.034 A 
HETATM   31 CL   UNL     1     -39.223  49.365 -53.612  1.00  0.00    -0.084 Cl
HETATM   32  C   UNL     1     -40.333  51.680 -54.440  1.00  0.00     0.024 A 
HETATM   33  C   UNL     1     -40.772  52.994 -54.248  1.00  0.00     0.015 A 
ENDBRANCH  25  27
ENDBRANCH   4  21
TORSDOF 6
ENDMDL
MODEL 2
REMARK VINA RESULT:      -7.8      0.251      2.414
REMARK  6 active torsions:
REMARK  status: ('A' for Active; 'I' for Inactive)
REMARK    1  A    between atoms: O_2  and  C_3 
REMARK    2  A    between atoms: C_5  and  O_6 
REMARK    3  A    between atoms: C_9  and  C_10 
REMARK       I    between atoms: C_10  and  N_11 
REMARK    4  A    between atoms: N_11  and  C_12 
REMARK    5  A    between atoms: N_15  and  C_16 
REMARK    6  A    between atoms: C_20  and  C_21 
ROOT
HETATM    1  C   UNL     1     -43.918  60.361 -52.247  1.00  0.00     0.087 C 
HETATM    2  C   UNL     1     -42.402  60.167 -52.054  1.00  0.00     0.045 C 
HETATM    3  C   UNL     1     -42.104  59.137 -50.967  1.00  0.00     0.126 C 
HETATM    4  N   UNL     1     -42.769  57.867 -51.300  1.00  0.00    -0.366 N 
HETATM    5  C   UNL     1     -44.228  57.993 -51.394  1.00  0.00     0.126 C 
HETATM    6  C   UNL     1     -44.592  59.000 -52.488  1.00  0.00     0.045 C 
ENDROOT
BRANCH   1   7
HETATM    7  N   UNL     1     -44.560  61.053 -51.124  1.00  0.00    -0.352 N 
HETATM    8  C   UNL     1     -45.637  61.902 -51.297  1.00  0.00     0.252 C 
HETATM    9  O   UNL     1     -46.105  62.186 -52.393  1.00  0.00    -0.268 OA
HETATM   10  H   UNL     1     -44.487  60.612 -50.217  1.00  0.00     0.163 HD
BRANCH   8  11
HETATM   11  C   UNL     1     -46.244  62.462 -50.055  1.00  0.00     0.037 A 
HETATM   12  C   UNL     1     -45.628  62.331 -48.801  1.00  0.00     0.054 A 
HETATM   13  C   UNL     1     -46.233  62.878 -47.669  1.00  0.00     0.071 A 
HETATM   14  C   UNL     1     -47.443  63.572 -47.794  1.00  0.00     0.073 A 
HETATM   15  C   UNL     1     -48.045  63.736 -49.041  1.00  0.00     0.071 A 
HETATM   16  C   UNL     1     -47.445  63.173 -50.167  1.00  0.00     0.054 A 
BRANCH  13  17
HETATM   17  O   UNL     1     -45.751  62.810 -46.390  1.00  0.00    -0.356 OA
HETATM   18  C   UNL     1     -45.076  61.617 -46.009  1.00  0.00     0.210 C 
ENDBRANCH  13  17
BRANCH  15  19
HETATM   19  O   UNL     1     -49.210  64.410 -49.287  1.00  0.00    -0.356 OA
HETATM   20  C   UNL     1     -50.382  63.623 -49.454  1.00  0.00     0.210 C 
ENDBRANCH  15  19
ENDBRANCH   8  11
ENDBRANCH   1   7
BRANCH   4  21
HETATM   21  C   UNL     1     -42.126  56.878 -51.996  1.00  0.00     0.121 A 
HETATM   22  N   UNL     1     -41.448  57.095 -53.168  1.00  0.00    -0.262 N 
HETATM   23  H   UNL     1     -41.320  57.972 -53.655  1.00  0.00     0.191 HD
HETATM   24  N   UNL     1     -40.883  55.999 -53.698  1.00  0.00    -0.173 NA
HETATM   25  C   UNL     1     -41.156  55.022 -52.819  1.00  0.00     0.090 A 
HETATM   26  C   UNL     1     -41.935  55.536 -51.744  1.00  0.00     0.084 A 
BRANCH  25  27
HETATM   27  C   UNL     1     -40.678  53.650 -53.020  1.00  0.00    -0.005 A 
HETATM   28  C   UNL     1     -40.795  53.015 -54.268  1.00  0.00     0.015 A 
HETATM   29  C   UNL     1     -40.337  51.705 -54.449  1.00  0.00     0.024 A 
HETATM   30  C   UNL     1     -39.760  51.018 -53.383  1.00  0.00     0.034 A 
HETATM   31 CL   UNL     1     -39.198  49.409 -53.609  1.00  0.00    -0.084 Cl
HETATM   32  C   UNL     1     -39.638  51.628 -52.138  1.00  0.00     0.024 A 
HETATM   33  C   UNL     1     -40.097  52.937 -51.959  1.00  0.00     0.015 A 
ENDBRANCH  25  27
ENDBRANCH   4  21
TORSDOF 6
ENDMDL
MODEL 3
REMARK VINA RESULT:      -7.8      1.636      2.186
REMARK  6 active torsions:
REMARK  status: ('A' for Active; 'I' for Inactive)
REMARK    1  A    between atoms: O_2  and  C_3 
REMARK    2  A    between atoms: C_5  and  O_6 
REMARK    3  A    between atoms: C_9  and  C_10 
REMARK       I    between atoms: C_10  and  N_11 
REMARK    4  A    between atoms: N_11  and  C_12 
REMARK    5  A    between atoms: N_15  and  C_16 
REMARK    6  A    between atoms: C_20  and  C_21 
ROOT
HETATM    1  C   UNL     1     -44.101  59.559 -52.942  1.00  0.00     0.087 C 
HETATM    2  C   UNL     1     -42.632  59.616 -52.482  1.00  0.00     0.045 C 
HETATM    3  C   UNL     1     -42.475  59.121 -51.047  1.00  0.00     0.126 C 
HETATM    4  N   UNL     1     -43.019  57.758 -50.937  1.00  0.00    -0.366 N 
HETATM    5  C   UNL     1     -44.446  57.682 -51.273  1.00  0.00     0.126 C 
HETATM    6  C   UNL     1     -44.665  58.147 -52.715  1.00  0.00     0.045 C 
ENDROOT
BRANCH   1   7
HETATM    7  N   UNL     1     -44.952  60.558 -52.285  1.00  0.00    -0.352 N 
HETATM    8  C   UNL     1     -45.972  61.211 -52.950  1.00  0.00     0.252 C 
HETATM    9  O   UNL     1     -46.214  61.054 -54.141  1.00  0.00    -0.268 OA
HETATM   10  H   UNL     1     -45.060  60.473 -51.284  1.00  0.00     0.163 HD
BRANCH   8  11
HETATM   11  C   UNL     1     -46.813  62.131 -52.130  1.00  0.00     0.037 A 
HETATM   12  C   UNL     1     -48.043  62.624 -52.590  1.00  0.00     0.054 A 
HETATM   13  C   UNL     1     -48.796  63.478 -51.783  1.00  0.00     0.071 A 
HETATM   14  C   UNL     1     -48.327  63.822 -50.509  1.00  0.00     0.073 A 
HETATM   15  C   UNL     1     -47.121  63.311 -50.030  1.00  0.00     0.071 A 
HETATM   16  C   UNL     1     -46.365  62.471 -50.848  1.00  0.00     0.054 A 
BRANCH  13  17
HETATM   17  O   UNL     1     -49.999  64.041 -52.112  1.00  0.00    -0.356 OA
HETATM   18  C   UNL     1     -51.064  63.157 -52.442  1.00  0.00     0.210 C 
ENDBRANCH  13  17
BRANCH  15  19
HETATM   19  O   UNL     1     -46.577  63.558 -48.800  1.00  0.00    -0.356 OA
HETATM   20  C   UNL     1     -47.190  62.916 -47.688  1.00  0.00     0.210 C 
ENDBRANCH  15  19
ENDBRANCH   8  11
ENDBRANCH   1   7
BRANCH   4  21
HETATM   21  C   UNL     1     -42.226  56.652 -51.089  1.00  0.00     0.121 A 
HETATM   22  N   UNL     1     -41.291  56.257 -50.167  1.00  0.00    -0.262 N 
HETATM   23  H   UNL     1     -41.072  56.695 -49.282  1.00  0.00     0.191 HD
HETATM   24  N   UNL     1     -40.615  55.145 -50.496  1.00  0.00    -0.173 NA
HETATM   25  C   UNL     1     -41.155  54.758 -51.663  1.00  0.00     0.090 A 
HETATM   26  C   UNL     1     -42.163  55.679 -52.065  1.00  0.00     0.084 A 
BRANCH  25  27
HETATM   27  C   UNL     1     -40.706  53.544 -52.353  1.00  0.00    -0.005 A 
HETATM   28  C   UNL     1     -41.057  53.297 -53.691  1.00  0.00     0.015 A 
HETATM   29  C   UNL     1     -40.625  52.135 -54.340  1.00  0.00     0.024 A 
HETATM   30  C   UNL     1     -39.840  51.209 -53.657  1.00  0.00     0.034 A 
HETATM   31 CL   UNL     1     -39.311  49.782 -54.457  1.00  0.00    -0.084 Cl
HETATM   32  C   UNL     1     -39.484  51.433 -52.330  1.00  0.00     0.024 A 
HETATM   33  C   UNL     1     -39.918  52.595 -51.682  1.00  0.00     0.015 A 
ENDBRANCH  25  27
ENDBRANCH   4  21
TORSDOF 6
ENDMDL
MODEL 4
REMARK VINA RESULT:      -7.6      1.724      3.033
REMARK  6 active torsions:
REMARK  status: ('A' for Active; 'I' for Inactive)
REMARK    1  A    between atoms: O_2  and  C_3 
REMARK    2  A    between atoms: C_5  and  O_6 
REMARK    3  A    between atoms: C_9  and  C_10 
REMARK       I    between atoms: C_10  and  N_11 
REMARK    4  A    between atoms: N_11  and  C_12 
REMARK    5  A    between atoms: N_15  and  C_16 
REMARK    6  A    between atoms: C_20  and  C_21 
ROOT
HETATM    1  C   UNL     1     -44.232  59.540 -52.993  1.00  0.00     0.087 C 
HETATM    2  C   UNL     1     -42.772  59.639 -52.513  1.00  0.00     0.045 C 
HETATM    3  C   UNL     1     -42.620  59.142 -51.078  1.00  0.00     0.126 C 
HETATM    4  N   UNL     1     -43.124  57.763 -50.981  1.00  0.00    -0.366 N 
HETATM    5  C   UNL     1     -44.543  57.645 -51.337  1.00  0.00     0.126 C 
HETATM    6  C   UNL     1     -44.757  58.110 -52.779  1.00  0.00     0.045 C 
ENDROOT
BRANCH   1   7
HETATM    7  N   UNL     1     -45.122  60.509 -52.344  1.00  0.00    -0.352 N 
HETATM    8  C   UNL     1     -46.036  61.265 -53.053  1.00  0.00     0.252 C 
HETATM    9  O   UNL     1     -46.141  61.228 -54.273  1.00  0.00    -0.268 OA
HETATM   10  H   UNL     1     -45.349  60.337 -51.374  1.00  0.00     0.163 HD
BRANCH   8  11
HETATM   11  C   UNL     1     -46.937  62.140 -52.249  1.00  0.00     0.037 A 
HETATM   12  C   UNL     1     -46.568  62.626 -50.986  1.00  0.00     0.054 A 
HETATM   13  C   UNL     1     -47.444  63.447 -50.274  1.00  0.00     0.071 A 
HETATM   14  C   UNL     1     -48.678  63.797 -50.834  1.00  0.00     0.073 A 
HETATM   15  C   UNL     1     -49.039  63.346 -52.104  1.00  0.00     0.071 A 
HETATM   16  C   UNL     1     -48.167  62.512 -52.804  1.00  0.00     0.054 A 
BRANCH  13  17
HETATM   17  O   UNL     1     -47.218  63.975 -49.032  1.00  0.00    -0.356 OA
HETATM   18  C   UNL     1     -46.298  63.291 -48.189  1.00  0.00     0.210 C 
ENDBRANCH  13  17
BRANCH  15  19
HETATM   19  O   UNL     1     -50.203  63.640 -52.759  1.00  0.00    -0.356 OA
HETATM   20  C   UNL     1     -51.365  62.926 -52.351  1.00  0.00     0.210 C 
ENDBRANCH  15  19
ENDBRANCH   8  11
ENDBRANCH   1   7
BRANCH   4  21
HETATM   21  C   UNL     1     -42.296  56.681 -51.127  1.00  0.00     0.121 A 
HETATM   22  N   UNL     1     -41.306  56.359 -50.234  1.00  0.00    -0.262 N 
HETATM   23  H   UNL     1     -41.066  56.840 -49.378  1.00  0.00     0.191 HD
HETATM   24  N   UNL     1     -40.603  55.260 -50.551  1.00  0.00    -0.173 NA
HETATM   25  C   UNL     1     -41.179  54.807 -51.676  1.00  0.00     0.090 A 
HETATM   26  C   UNL     1     -42.239  55.673 -52.066  1.00  0.00     0.084 A 
BRANCH  25  27
HETATM   27  C   UNL     1     -40.714  53.583 -52.339  1.00  0.00    -0.005 A 
HETATM   28  C   UNL     1     -39.959  52.624 -51.646  1.00  0.00     0.015 A 
HETATM   29  C   UNL     1     -39.519  51.460 -52.288  1.00  0.00     0.024 A 
HETATM   30  C   UNL     1     -39.831  51.247 -53.629  1.00  0.00     0.034 A 
HETATM   31 CL   UNL     1     -39.290  49.817 -54.415  1.00  0.00    -0.084 Cl
HETATM   32  C   UNL     1     -40.576  52.188 -54.335  1.00  0.00     0.024 A 
HETATM   33  C   UNL     1     -41.014  53.350 -53.692  1.00  0.00     0.015 A 
ENDBRANCH  25  27
ENDBRANCH   4  21
TORSDOF 6
ENDMDL
MODEL 5
REMARK VINA RESULT:      -7.5      1.907      2.835
REMARK  6 active torsions:
REMARK  status: ('A' for Active; 'I' for Inactive)
REMARK    1  A    between atoms: O_2  and  C_3 
REMARK    2  A    between atoms: C_5  and  O_6 
REMARK    3  A    between atoms: C_9  and  C_10 
REMARK       I    between atoms: C_10  and  N_11 
REMARK    4  A    between atoms: N_11  and  C_12 
REMARK    5  A    between atoms: N_15  and  C_16 
REMARK    6  A    between atoms: C_20  and  C_21 
ROOT
HETATM    1  C   UNL     1     -44.039  60.323 -52.416  1.00  0.00     0.087 C 
HETATM    2  C   UNL     1     -43.659  59.321 -51.310  1.00  0.00     0.045 C 
HETATM    3  C   UNL     1     -44.397  57.996 -51.479  1.00  0.00     0.126 C 
HETATM    4  N   UNL     1     -44.123  57.448 -52.816  1.00  0.00    -0.366 N 
HETATM    5  C   UNL     1     -44.563  58.335 -53.900  1.00  0.00     0.126 C 
HETATM    6  C   UNL     1     -43.837  59.678 -53.798  1.00  0.00     0.045 C 
ENDROOT
BRANCH   1   7
HETATM    7  N   UNL     1     -45.409  60.833 -52.289  1.00  0.00    -0.352 N 
HETATM    8  C   UNL     1     -45.686  62.095 -51.797  1.00  0.00     0.252 C 
HETATM    9  O   UNL     1     -44.826  62.862 -51.380  1.00  0.00    -0.268 OA
HETATM   10  H   UNL     1     -46.098  60.444 -52.918  1.00  0.00     0.163 HD
BRANCH   8  11
HETATM   11  C   UNL     1     -47.118  62.511 -51.812  1.00  0.00     0.037 A 
HETATM   12  C   UNL     1     -48.006  62.085 -52.811  1.00  0.00     0.054 A 
HETATM   13  C   UNL     1     -49.339  62.497 -52.779  1.00  0.00     0.071 A 
HETATM   14  C   UNL     1     -49.787  63.319 -51.737  1.00  0.00     0.073 A 
HETATM   15  C   UNL     1     -48.919  63.721 -50.722  1.00  0.00     0.071 A 
HETATM   16  C   UNL     1     -47.584  63.319 -50.768  1.00  0.00     0.054 A 
BRANCH  13  17
HETATM   17  O   UNL     1     -50.303  62.170 -53.693  1.00  0.00    -0.356 OA
HETATM   18  C   UNL     1     -50.021  62.436 -55.062  1.00  0.00     0.210 C 
ENDBRANCH  13  17
BRANCH  15  19
HETATM   19  O   UNL     1     -49.247  64.501 -49.647  1.00  0.00    -0.356 OA
HETATM   20  C   UNL     1     -48.592  64.208 -48.419  1.00  0.00     0.210 C 
ENDBRANCH  15  19
ENDBRANCH   8  11
ENDBRANCH   1   7
BRANCH   4  21
HETATM   21  C   UNL     1     -43.100  56.564 -53.037  1.00  0.00     0.121 A 
HETATM   22  N   UNL     1     -41.875  56.931 -53.532  1.00  0.00    -0.262 N 
HETATM   23  H   UNL     1     -41.562  57.859 -53.780  1.00  0.00     0.191 HD
HETATM   24  N   UNL     1     -41.004  55.919 -53.676  1.00  0.00    -0.173 NA
HETATM   25  C   UNL     1     -41.661  54.844 -53.213  1.00  0.00     0.090 A 
HETATM   26  C   UNL     1     -42.976  55.209 -52.809  1.00  0.00     0.084 A 
BRANCH  25  27
HETATM   27  C   UNL     1     -41.032  53.519 -53.169  1.00  0.00    -0.005 A 
HETATM   28  C   UNL     1     -40.418  53.045 -51.998  1.00  0.00     0.015 A 
HETATM   29  C   UNL     1     -39.820  51.780 -51.966  1.00  0.00     0.024 A 
HETATM   30  C   UNL     1     -39.830  50.978 -53.105  1.00  0.00     0.034 A 
HETATM   31 CL   UNL     1     -39.095  49.425 -53.063  1.00  0.00    -0.084 Cl
HETATM   32  C   UNL     1     -40.431  51.431 -54.277  1.00  0.00     0.024 A 
HETATM   33  C   UNL     1     -41.027  52.696 -54.307  1.00  0.00     0.015 A 
ENDBRANCH  25  27
ENDBRANCH   4  21
TORSDOF 6
ENDMDL
MODEL 6
REMARK VINA RESULT:      -7.5     19.543     22.398
REMARK  6 active torsions:
REMARK  status: ('A' for Active; 'I' for Inactive)
REMARK    1  A    between atoms: O_2  and  C_3 
REMARK    2  A    between atoms: C_5  and  O_6 
REMARK    3  A    between atoms: C_9  and  C_10 
REMARK       I    between atoms: C_10  and  N_11 
REMARK    4  A    between atoms: N_11  and  C_12 
REMARK    5  A    between atoms: N_15  and  C_16 
REMARK    6  A    between atoms: C_20  and  C_21 
ROOT
HETATM    1  C   UNL     1     -35.286  40.955 -51.346  1.00  0.00     0.087 C 
HETATM    2  C   UNL     1     -35.729  39.726 -50.530  1.00  0.00     0.045 C 
HETATM    3  C   UNL     1     -34.758  38.561 -50.703  1.00  0.00     0.126 C 
HETATM    4  N   UNL     1     -33.402  38.993 -50.328  1.00  0.00    -0.366 N 
HETATM    5  C   UNL     1     -32.906  40.102 -51.153  1.00  0.00     0.126 C 
HETATM    6  C   UNL     1     -33.830  41.313 -51.004  1.00  0.00     0.045 C 
ENDROOT
BRANCH   1   7
HETATM    7  N   UNL     1     -35.437  40.773 -52.794  1.00  0.00    -0.352 N 
HETATM    8  C   UNL     1     -35.624  41.836 -53.658  1.00  0.00     0.252 C 
HETATM    9  O   UNL     1     -35.731  42.998 -53.286  1.00  0.00    -0.268 OA
HETATM   10  H   UNL     1     -35.010  39.948 -53.195  1.00  0.00     0.163 HD
BRANCH   8  11
HETATM   11  C   UNL     1     -35.668  41.507 -55.112  1.00  0.00     0.037 A 
HETATM   12  C   UNL     1     -36.494  42.203 -56.007  1.00  0.00     0.054 A 
HETATM   13  C   UNL     1     -36.496  41.861 -57.361  1.00  0.00     0.071 A 
HETATM   14  C   UNL     1     -35.659  40.837 -57.820  1.00  0.00     0.073 A 
HETATM   15  C   UNL     1     -34.811  40.161 -56.943  1.00  0.00     0.071 A 
HETATM   16  C   UNL     1     -34.825  40.496 -55.588  1.00  0.00     0.054 A 
BRANCH  13  17
HETATM   17  O   UNL     1     -37.260  42.445 -58.335  1.00  0.00    -0.356 OA
HETATM   18  C   UNL     1     -37.234  41.851 -59.627  1.00  0.00     0.210 C 
ENDBRANCH  13  17
BRANCH  15  19
HETATM   19  O   UNL     1     -33.938  39.164 -57.279  1.00  0.00    -0.356 OA
HETATM   20  C   UNL     1     -32.578  39.350 -56.905  1.00  0.00     0.210 C 
ENDBRANCH  15  19
ENDBRANCH   8  11
ENDBRANCH   1   7
BRANCH   4  21
HETATM   21  C   UNL     1     -32.916  38.822 -49.059  1.00  0.00     0.121 A 
HETATM   22  N   UNL     1     -33.301  37.797 -48.232  1.00  0.00    -0.262 N 
HETATM   23  H   UNL     1     -33.956  37.054 -48.434  1.00  0.00     0.191 HD
HETATM   24  N   UNL     1     -32.710  37.799 -47.027  1.00  0.00    -0.173 NA
HETATM   25  C   UNL     1     -31.862  38.839 -47.072  1.00  0.00     0.090 A 
HETATM   26  C   UNL     1     -31.967  39.503 -48.326  1.00  0.00     0.084 A 
BRANCH  25  27
HETATM   27  C   UNL     1     -30.989  39.169 -45.939  1.00  0.00    -0.005 A 
HETATM   28  C   UNL     1     -30.880  38.312 -44.832  1.00  0.00     0.015 A 
HETATM   29  C   UNL     1     -30.046  38.636 -43.757  1.00  0.00     0.024 A 
HETATM   30  C   UNL     1     -29.313  39.820 -43.779  1.00  0.00     0.034 A 
HETATM   31 CL   UNL     1     -28.288  40.216 -42.456  1.00  0.00    -0.084 Cl
HETATM   32  C   UNL     1     -29.409  40.685 -44.865  1.00  0.00     0.024 A 
HETATM   33  C   UNL     1     -30.245  40.360 -45.939  1.00  0.00     0.015 A 
ENDBRANCH  25  27
ENDBRANCH   4  21
TORSDOF 6
ENDMDL
MODEL 7
REMARK VINA RESULT:      -7.4      5.703     10.691
REMARK  6 active torsions:
REMARK  status: ('A' for Active; 'I' for Inactive)
REMARK    1  A    between atoms: O_2  and  C_3 
REMARK    2  A    between atoms: C_5  and  O_6 
REMARK    3  A    between atoms: C_9  and  C_10 
REMARK       I    between atoms: C_10  and  N_11 
REMARK    4  A    between atoms: N_11  and  C_12 
REMARK    5  A    between atoms: N_15  and  C_16 
REMARK    6  A    between atoms: C_20  and  C_21 
ROOT
HETATM    1  C   UNL     1     -42.982  57.672 -53.159  1.00  0.00     0.087 C 
HETATM    2  C   UNL     1     -42.211  58.695 -52.305  1.00  0.00     0.045 C 
HETATM    3  C   UNL     1     -42.822  60.089 -52.414  1.00  0.00     0.126 C 
HETATM    4  N   UNL     1     -44.242  60.033 -52.031  1.00  0.00    -0.366 N 
HETATM    5  C   UNL     1     -45.032  59.141 -52.887  1.00  0.00     0.126 C 
HETATM    6  C   UNL     1     -44.478  57.716 -52.803  1.00  0.00     0.045 C 
ENDROOT
BRANCH   1   7
HETATM    7  N   UNL     1     -42.798  57.866 -54.601  1.00  0.00    -0.352 N 
HETATM    8  C   UNL     1     -42.861  56.820 -55.502  1.00  0.00     0.252 C 
HETATM    9  O   UNL     1     -43.020  55.651 -55.172  1.00  0.00    -0.268 OA
HETATM   10  H   UNL     1     -43.027  58.780 -54.969  1.00  0.00     0.163 HD
BRANCH   8  11
HETATM   11  C   UNL     1     -42.746  57.181 -56.945  1.00  0.00     0.037 A 
HETATM   12  C   UNL     1     -42.344  58.459 -57.362  1.00  0.00     0.054 A 
HETATM   13  C   UNL     1     -42.247  58.747 -58.724  1.00  0.00     0.071 A 
HETATM   14  C   UNL     1     -42.533  57.752 -59.667  1.00  0.00     0.073 A 
HETATM   15  C   UNL     1     -42.901  56.470 -59.261  1.00  0.00     0.071 A 
HETATM   16  C   UNL     1     -43.014  56.192 -57.899  1.00  0.00     0.054 A 
BRANCH  13  17
HETATM   17  O   UNL     1     -41.884  59.950 -59.266  1.00  0.00    -0.356 OA
HETATM   18  C   UNL     1     -41.899  60.058 -60.685  1.00  0.00     0.210 C 
ENDBRANCH  13  17
BRANCH  15  19
HETATM   19  O   UNL     1     -43.182  55.416 -60.087  1.00  0.00    -0.356 OA
HETATM   20  C   UNL     1     -44.407  54.731 -59.857  1.00  0.00     0.210 C 
ENDBRANCH  15  19
ENDBRANCH   8  11
ENDBRANCH   1   7
BRANCH   4  21
HETATM   21  C   UNL     1     -44.652  60.279 -50.747  1.00  0.00     0.121 A 
HETATM   22  N   UNL     1     -45.556  59.494 -50.077  1.00  0.00    -0.262 N 
HETATM   23  H   UNL     1     -46.015  58.658 -50.412  1.00  0.00     0.191 HD
HETATM   24  N   UNL     1     -45.828  59.898 -48.826  1.00  0.00    -0.173 NA
HETATM   25  C   UNL     1     -45.039  60.968 -48.640  1.00  0.00     0.090 A 
HETATM   26  C   UNL     1     -44.292  61.236 -49.822  1.00  0.00     0.084 A 
BRANCH  25  27
HETATM   27  C   UNL     1     -45.015  61.694 -47.366  1.00  0.00    -0.005 A 
HETATM   28  C   UNL     1     -45.223  63.082 -47.317  1.00  0.00     0.015 A 
HETATM   29  C   UNL     1     -45.197  63.766 -46.097  1.00  0.00     0.024 A 
HETATM   30  C   UNL     1     -44.961  63.069 -44.914  1.00  0.00     0.034 A 
HETATM   31 CL   UNL     1     -44.929  63.912 -43.416  1.00  0.00    -0.084 Cl
HETATM   32  C   UNL     1     -44.748  61.693 -44.941  1.00  0.00     0.024 A 
HETATM   33  C   UNL     1     -44.773  61.011 -46.162  1.00  0.00     0.015 A 
ENDBRANCH  25  27
ENDBRANCH   4  21
TORSDOF 6
ENDMDL
MODEL 8
REMARK VINA RESULT:      -7.3      6.758      8.510
REMARK  6 active torsions:
REMARK  status: ('A' for Active; 'I' for Inactive)
REMARK    1  A    between atoms: O_2  and  C_3 
REMARK    2  A    between atoms: C_5  and  O_6 
REMARK    3  A    between atoms: C_9  and  C_10 
REMARK       I    between atoms: C_10  and  N_11 
REMARK    4  A    between atoms: N_11  and  C_12 
REMARK    5  A    between atoms: N_15  and  C_16 
REMARK    6  A    between atoms: C_20  and  C_21 
ROOT
HETATM    1  C   UNL     1     -43.144  58.567 -58.019  1.00  0.00     0.087 C 
HETATM    2  C   UNL     1     -43.375  58.462 -56.499  1.00  0.00     0.045 C 
HETATM    3  C   UNL     1     -44.062  57.151 -56.128  1.00  0.00     0.126 C 
HETATM    4  N   UNL     1     -43.265  56.020 -56.628  1.00  0.00    -0.366 N 
HETATM    5  C   UNL     1     -43.107  56.033 -58.087  1.00  0.00     0.126 C 
HETATM    6  C   UNL     1     -42.400  57.318 -58.522  1.00  0.00     0.045 C 
ENDROOT
BRANCH   1   7
HETATM    7  N   UNL     1     -44.383  58.761 -58.780  1.00  0.00    -0.352 N 
HETATM    8  C   UNL     1     -44.877  60.016 -59.082  1.00  0.00     0.252 C 
HETATM    9  O   UNL     1     -44.358  61.057 -58.699  1.00  0.00    -0.268 OA
HETATM   10  H   UNL     1     -44.647  58.018 -59.414  1.00  0.00     0.163 HD
BRANCH   8  11
HETATM   11  C   UNL     1     -46.096  60.058 -59.942  1.00  0.00     0.037 A 
HETATM   12  C   UNL     1     -46.711  61.266 -60.301  1.00  0.00     0.054 A 
HETATM   13  C   UNL     1     -47.847  61.253 -61.112  1.00  0.00     0.071 A 
HETATM   14  C   UNL     1     -48.354  60.034 -61.579  1.00  0.00     0.073 A 
HETATM   15  C   UNL     1     -47.729  58.830 -61.253  1.00  0.00     0.071 A 
HETATM   16  C   UNL     1     -46.604  58.847 -60.428  1.00  0.00     0.054 A 
BRANCH  13  17
HETATM   17  O   UNL     1     -48.552  62.351 -61.524  1.00  0.00    -0.356 OA
HETATM   18  C   UNL     1     -47.983  63.628 -61.258  1.00  0.00     0.210 C 
ENDBRANCH  13  17
BRANCH  15  19
HETATM   19  O   UNL     1     -48.120  57.586 -61.667  1.00  0.00    -0.356 OA
HETATM   20  C   UNL     1     -47.412  56.479 -61.121  1.00  0.00     0.210 C 
ENDBRANCH  15  19
ENDBRANCH   8  11
ENDBRANCH   1   7
BRANCH   4  21
HETATM   21  C   UNL     1     -42.323  55.402 -55.849  1.00  0.00     0.121 A 
HETATM   22  N   UNL     1     -41.103  55.954 -55.553  1.00  0.00    -0.262 N 
HETATM   23  H   UNL     1     -40.747  56.855 -55.841  1.00  0.00     0.191 HD
HETATM   24  N   UNL     1     -40.320  55.193 -54.772  1.00  0.00    -0.173 NA
HETATM   25  C   UNL     1     -41.067  54.113 -54.499  1.00  0.00     0.090 A 
HETATM   26  C   UNL     1     -42.325  54.208 -55.159  1.00  0.00     0.084 A 
BRANCH  25  27
HETATM   27  C   UNL     1     -40.575  53.035 -53.633  1.00  0.00    -0.005 A 
HETATM   28  C   UNL     1     -40.242  51.776 -54.158  1.00  0.00     0.015 A 
HETATM   29  C   UNL     1     -39.775  50.755 -53.323  1.00  0.00     0.024 A 
HETATM   30  C   UNL     1     -39.637  50.983 -51.956  1.00  0.00     0.034 A 
HETATM   31 CL   UNL     1     -39.063  49.727 -50.933  1.00  0.00    -0.084 Cl
HETATM   32  C   UNL     1     -39.965  52.224 -51.415  1.00  0.00     0.024 A 
HETATM   33  C   UNL     1     -40.433  53.243 -52.251  1.00  0.00     0.015 A 
ENDBRANCH  25  27
ENDBRANCH   4  21
TORSDOF 6
ENDMDL
MODEL 9
REMARK VINA RESULT:      -7.3     19.916     22.786
REMARK  6 active torsions:
REMARK  status: ('A' for Active; 'I' for Inactive)
REMARK    1  A    between atoms: O_2  and  C_3 
REMARK    2  A    between atoms: C_5  and  O_6 
REMARK    3  A    between atoms: C_9  and  C_10 
REMARK       I    between atoms: C_10  and  N_11 
REMARK    4  A    between atoms: N_11  and  C_12 
REMARK    5  A    between atoms: N_15  and  C_16 
REMARK    6  A    between atoms: C_20  and  C_21 
ROOT
HETATM    1  C   UNL     1     -33.791  41.241 -51.764  1.00  0.00     0.087 C 
HETATM    2  C   UNL     1     -34.673  40.567 -50.697  1.00  0.00     0.045 C 
HETATM    3  C   UNL     1     -34.396  39.069 -50.607  1.00  0.00     0.126 C 
HETATM    4  N   UNL     1     -32.967  38.850 -50.336  1.00  0.00    -0.366 N 
HETATM    5  C   UNL     1     -32.095  39.394 -51.385  1.00  0.00     0.126 C 
HETATM    6  C   UNL     1     -32.312  40.903 -51.508  1.00  0.00     0.045 C 
ENDROOT
BRANCH   1   7
HETATM    7  N   UNL     1     -34.164  40.879 -53.136  1.00  0.00    -0.352 N 
HETATM    8  C   UNL     1     -35.075  41.613 -53.872  1.00  0.00     0.252 C 
HETATM    9  O   UNL     1     -35.679  42.582 -53.429  1.00  0.00    -0.268 OA
HETATM   10  H   UNL     1     -33.480  40.360 -53.670  1.00  0.00     0.163 HD
BRANCH   8  11
HETATM   11  C   UNL     1     -35.286  41.180 -55.284  1.00  0.00     0.037 A 
HETATM   12  C   UNL     1     -34.752  39.982 -55.782  1.00  0.00     0.054 A 
HETATM   13  C   UNL     1     -34.982  39.618 -57.110  1.00  0.00     0.071 A 
HETATM   14  C   UNL     1     -35.762  40.442 -57.931  1.00  0.00     0.073 A 
HETATM   15  C   UNL     1     -36.324  41.617 -57.435  1.00  0.00     0.071 A 
HETATM   16  C   UNL     1     -36.077  41.985 -56.112  1.00  0.00     0.054 A 
BRANCH  13  17
HETATM   17  O   UNL     1     -34.511  38.491 -57.726  1.00  0.00    -0.356 OA
HETATM   18  C   UNL     1     -33.120  38.213 -57.604  1.00  0.00     0.210 C 
ENDBRANCH  13  17
BRANCH  15  19
HETATM   19  O   UNL     1     -37.117  42.485 -58.134  1.00  0.00    -0.356 OA
HETATM   20  C   UNL     1     -37.233  42.260 -59.534  1.00  0.00     0.210 C 
ENDBRANCH  15  19
ENDBRANCH   8  11
ENDBRANCH   1   7
BRANCH   4  21
HETATM   21  C   UNL     1     -32.487  38.712 -49.060  1.00  0.00     0.121 A 
HETATM   22  N   UNL     1     -32.775  37.640 -48.254  1.00  0.00    -0.262 N 
HETATM   23  H   UNL     1     -33.342  36.834 -48.478  1.00  0.00     0.191 HD
HETATM   24  N   UNL     1     -32.209  37.687 -47.038  1.00  0.00    -0.173 NA
HETATM   25  C   UNL     1     -31.477  38.813 -47.052  1.00  0.00     0.090 A 
HETATM   26  C   UNL     1     -31.631  39.481 -48.300  1.00  0.00     0.084 A 
BRANCH  25  27
HETATM   27  C   UNL     1     -30.665  39.217 -45.899  1.00  0.00    -0.005 A 
HETATM   28  C   UNL     1     -30.113  38.263 -45.029  1.00  0.00     0.015 A 
HETATM   29  C   UNL     1     -29.341  38.659 -43.931  1.00  0.00     0.024 A 
HETATM   30  C   UNL     1     -29.115  40.013 -43.693  1.00  0.00     0.034 A 
HETATM   31 CL   UNL     1     -28.166  40.497 -42.344  1.00  0.00    -0.084 Cl
HETATM   32  C   UNL     1     -29.657  40.975 -44.542  1.00  0.00     0.024 A 
HETATM   33  C   UNL     1     -30.429  40.577 -45.638  1.00  0.00     0.015 A 
ENDBRANCH  25  27
ENDBRANCH   4  21
TORSDOF 6
ENDMDL
MODEL 10
REMARK VINA RESULT:      -7.3      6.930      8.588
REMARK  6 active torsions:
REMARK  status: ('A' for Active; 'I' for Inactive)
REMARK    1  A    between atoms: O_2  and  C_3 
REMARK    2  A    between atoms: C_5  and  O_6 
REMARK    3  A    between atoms: C_9  and  C_10 
REMARK       I    between atoms: C_10  and  N_11 
REMARK    4  A    between atoms: N_11  and  C_12 
REMARK    5  A    between atoms: N_15  and  C_16 
REMARK    6  A    between atoms: C_20  and  C_21 
ROOT
HETATM    1  C   UNL     1     -42.963  58.315 -58.387  1.00  0.00     0.087 C 
HETATM    2  C   UNL     1     -43.009  58.463 -56.854  1.00  0.00     0.045 C 
HETATM    3  C   UNL     1     -43.813  57.338 -56.208  1.00  0.00     0.126 C 
HETATM    4  N   UNL     1     -43.247  56.039 -56.605  1.00  0.00    -0.366 N 
HETATM    5  C   UNL     1     -43.277  55.821 -58.056  1.00  0.00     0.126 C 
HETATM    6  C   UNL     1     -42.466  56.909 -58.762  1.00  0.00     0.045 C 
ENDROOT
BRANCH   1   7
HETATM    7  N   UNL     1     -44.253  58.586 -59.033  1.00  0.00    -0.352 N 
HETATM    8  C   UNL     1     -44.619  59.851 -59.450  1.00  0.00     0.252 C 
HETATM    9  O   UNL     1     -43.932  60.849 -59.269  1.00  0.00    -0.268 OA
HETATM   10  H   UNL     1     -44.683  57.816 -59.528  1.00  0.00     0.163 HD
BRANCH   8  11
HETATM   11  C   UNL     1     -45.919  59.959 -60.174  1.00  0.00     0.037 A 
HETATM   12  C   UNL     1     -46.593  58.830 -60.664  1.00  0.00     0.054 A 
HETATM   13  C   UNL     1     -47.810  58.982 -61.330  1.00  0.00     0.071 A 
HETATM   14  C   UNL     1     -48.362  60.259 -61.487  1.00  0.00     0.073 A 
HETATM   15  C   UNL     1     -47.716  61.383 -60.974  1.00  0.00     0.071 A 
HETATM   16  C   UNL     1     -46.491  61.228 -60.324  1.00  0.00     0.054 A 
BRANCH  13  17
HETATM   17  O   UNL     1     -48.561  57.973 -61.870  1.00  0.00    -0.356 OA
HETATM   18  C   UNL     1     -47.988  56.670 -61.887  1.00  0.00     0.210 C 
ENDBRANCH  13  17
BRANCH  15  19
HETATM   19  O   UNL     1     -48.168  62.672 -61.047  1.00  0.00    -0.356 OA
HETATM   20  C   UNL     1     -47.988  63.480 -59.890  1.00  0.00     0.210 C 
ENDBRANCH  15  19
ENDBRANCH   8  11
ENDBRANCH   1   7
BRANCH   4  21
HETATM   21  C   UNL     1     -42.305  55.401 -55.842  1.00  0.00     0.121 A 
HETATM   22  N   UNL     1     -41.057  55.913 -55.594  1.00  0.00    -0.262 N 
HETATM   23  H   UNL     1     -40.677  56.795 -55.910  1.00  0.00     0.191 HD
HETATM   24  N   UNL     1     -40.279  55.138 -54.822  1.00  0.00    -0.173 NA
HETATM   25  C   UNL     1     -41.056  54.091 -54.506  1.00  0.00     0.090 A 
HETATM   26  C   UNL     1     -42.329  54.220 -55.130  1.00  0.00     0.084 A 
BRANCH  25  27
HETATM   27  C   UNL     1     -40.577  53.012 -53.634  1.00  0.00    -0.005 A 
HETATM   28  C   UNL     1     -40.411  53.213 -52.255  1.00  0.00     0.015 A 
HETATM   29  C   UNL     1     -39.952  52.178 -51.432  1.00  0.00     0.024 A 
HETATM   30  C   UNL     1     -39.655  50.933 -51.982  1.00  0.00     0.034 A 
HETATM   31 CL   UNL     1     -39.091  49.664 -50.969  1.00  0.00    -0.084 Cl
HETATM   32  C   UNL     1     -39.809  50.715 -53.348  1.00  0.00     0.024 A 
HETATM   33  C   UNL     1     -40.267  51.751 -54.169  1.00  0.00     0.015 A 
ENDBRANCH  25  27
ENDBRANCH   4  21
TORSDOF 6
ENDMDL
