MODEL 1
REMARK VINA RESULT:      -9.2      0.000      0.000
REMARK  6 active torsions:
REMARK  status: ('A' for Active; 'I' for Inactive)
REMARK    1  A    between atoms: C_4  and  C_5 
REMARK    2  A    between atoms: N_6  and  C_7 
REMARK    3  A    between atoms: C_14  and  S_15 
REMARK    4  A    between atoms: S_15  and  C_16 
REMARK    5  A    between atoms: C_16  and  C_17 
REMARK       I    between atoms: C_17  and  N_18 
REMARK    6  A    between atoms: N_18  and  C_19 
ROOT
HETATM    1  C   UNL     1     -40.094  53.211 -51.455  1.00  0.00     0.169 A 
HETATM    2  N   UNL     1     -40.810  54.328 -51.896  1.00  0.00    -0.271 N 
HETATM    3  C   UNL     1     -40.818  55.172 -50.793  1.00  0.00     0.197 A 
HETATM    4  N   UNL     1     -40.140  54.641 -49.806  1.00  0.00    -0.122 NA
HETATM    5  N   UNL     1     -39.672  53.431 -50.222  1.00  0.00    -0.128 NA
ENDROOT
BRANCH   3   6
HETATM    6  S   UNL     1     -41.412  56.806 -50.766  1.00  0.00    -0.080 SA
BRANCH   6   7
HETATM    7  C   UNL     1     -43.205  56.524 -50.624  1.00  0.00     0.185 C 
BRANCH   7   8
HETATM    8  C   UNL     1     -44.057  57.234 -51.672  1.00  0.00     0.231 C 
HETATM    9  N   UNL     1     -43.496  57.310 -52.934  1.00  0.00    -0.326 N 
HETATM   10  H   UNL     1     -42.562  56.927 -53.017  1.00  0.00     0.169 HD
HETATM   11  O   UNL     1     -45.194  57.601 -51.377  1.00  0.00    -0.272 OA
BRANCH   9  12
HETATM   12  C   UNL     1     -44.031  57.916 -54.088  1.00  0.00     0.037 A 
HETATM   13  C   UNL     1     -45.157  57.433 -54.765  1.00  0.00     0.061 A 
HETATM   14  C   UNL     1     -45.575  58.138 -55.870  1.00  0.00     0.065 A 
HETATM   15  C   UNL     1     -44.922  59.283 -56.319  1.00  0.00     0.063 A 
HETATM   16  N   UNL     1     -46.652  57.901 -56.719  1.00  0.00    -0.306 N 
HETATM   17  N   UNL     1     -45.595  59.750 -57.441  1.00  0.00    -0.307 N 
HETATM   18  C   UNL     1     -43.816  59.787 -55.682  1.00  0.00     0.034 A 
HETATM   19  C   UNL     1     -46.679  58.899 -57.704  1.00  0.00     0.325 A 
HETATM   20  H   UNL     1     -45.376  60.561 -57.995  1.00  0.00     0.170 HD
HETATM   21  O   UNL     1     -47.485  59.010 -58.610  1.00  0.00    -0.247 OA
HETATM   22  C   UNL     1     -43.373  59.087 -54.551  1.00  0.00     0.032 A 
HETATM   23  H   UNL     1     -47.320  57.150 -56.655  1.00  0.00     0.170 HD
ENDBRANCH   9  12
ENDBRANCH   7   8
ENDBRANCH   6   7
ENDBRANCH   3   6
BRANCH   2  24
HETATM   24  C   UNL     1     -41.354  54.557 -53.193  1.00  0.00     0.043 A 
HETATM   25  C   UNL     1     -40.646  55.310 -54.139  1.00  0.00     0.032 A 
HETATM   26  C   UNL     1     -41.192  55.538 -55.406  1.00  0.00     0.026 A 
HETATM   27  C   UNL     1     -42.442  55.015 -55.730  1.00  0.00     0.034 A 
HETATM   28 CL   UNL     1     -43.110  55.298 -57.288  1.00  0.00    -0.084 Cl
HETATM   29  C   UNL     1     -43.154  54.267 -54.795  1.00  0.00     0.026 A 
HETATM   30  C   UNL     1     -42.614  54.038 -53.526  1.00  0.00     0.032 A 
ENDBRANCH   2  24
BRANCH   1  31
HETATM   31  C   UNL     1     -39.882  51.945 -52.162  1.00  0.00     0.012 A 
HETATM   32  C   UNL     1     -39.783  50.757 -51.423  1.00  0.00     0.015 A 
HETATM   33  C   UNL     1     -39.602  49.531 -52.066  1.00  0.00     0.001 A 
HETATM   34  C   UNL     1     -39.528  49.479 -53.457  1.00  0.00     0.000 A 
HETATM   35  C   UNL     1     -39.646  50.648 -54.204  1.00  0.00     0.001 A 
HETATM   36  C   UNL     1     -39.832  51.875 -53.561  1.00  0.00     0.015 A 
ENDBRANCH   1  31
TORSDOF 6
ENDMDL
MODEL 2
REMARK VINA RESULT:      -8.9      1.711      2.173
REMARK  6 active torsions:
REMARK  status: ('A' for Active; 'I' for Inactive)
REMARK    1  A    between atoms: C_4  and  C_5 
REMARK    2  A    between atoms: N_6  and  C_7 
REMARK    3  A    between atoms: C_14  and  S_15 
REMARK    4  A    between atoms: S_15  and  C_16 
REMARK    5  A    between atoms: C_16  and  C_17 
REMARK       I    between atoms: C_17  and  N_18 
REMARK    6  A    between atoms: N_18  and  C_19 
ROOT
HETATM    1  C   UNL     1     -40.312  53.438 -51.149  1.00  0.00     0.169 A 
HETATM    2  N   UNL     1     -41.076  54.501 -51.642  1.00  0.00    -0.271 N 
HETATM    3  C   UNL     1     -41.173  55.368 -50.562  1.00  0.00     0.197 A 
HETATM    4  N   UNL     1     -40.501  54.902 -49.539  1.00  0.00    -0.122 NA
HETATM    5  N   UNL     1     -39.948  53.712 -49.908  1.00  0.00    -0.128 NA
ENDROOT
BRANCH   3   6
HETATM    6  S   UNL     1     -41.862  56.964 -50.597  1.00  0.00    -0.080 SA
BRANCH   6   7
HETATM    7  C   UNL     1     -40.569  57.884 -51.491  1.00  0.00     0.185 C 
BRANCH   7   8
HETATM    8  C   UNL     1     -40.988  58.434 -52.851  1.00  0.00     0.231 C 
HETATM    9  N   UNL     1     -42.253  58.063 -53.271  1.00  0.00    -0.326 N 
HETATM   10  H   UNL     1     -42.748  57.431 -52.654  1.00  0.00     0.169 HD
HETATM   11  O   UNL     1     -40.249  59.226 -53.435  1.00  0.00    -0.272 OA
BRANCH   9  12
HETATM   12  C   UNL     1     -42.900  58.396 -54.478  1.00  0.00     0.037 A 
HETATM   13  C   UNL     1     -42.219  58.740 -55.652  1.00  0.00     0.061 A 
HETATM   14  C   UNL     1     -42.984  59.027 -56.759  1.00  0.00     0.065 A 
HETATM   15  C   UNL     1     -44.375  58.988 -56.739  1.00  0.00     0.063 A 
HETATM   16  N   UNL     1     -42.586  59.386 -58.044  1.00  0.00    -0.306 N 
HETATM   17  N   UNL     1     -44.834  59.321 -58.007  1.00  0.00    -0.307 N 
HETATM   18  C   UNL     1     -45.077  58.656 -55.608  1.00  0.00     0.034 A 
HETATM   19  C   UNL     1     -43.728  59.571 -58.836  1.00  0.00     0.325 A 
HETATM   20  H   UNL     1     -45.788  59.378 -58.320  1.00  0.00     0.170 HD
HETATM   21  O   UNL     1     -43.760  59.885 -60.011  1.00  0.00    -0.247 OA
HETATM   22  C   UNL     1     -44.320  58.356 -54.467  1.00  0.00     0.032 A 
HETATM   23  H   UNL     1     -41.642  59.493 -58.378  1.00  0.00     0.170 HD
ENDBRANCH   9  12
ENDBRANCH   7   8
ENDBRANCH   6   7
ENDBRANCH   3   6
BRANCH   2  24
HETATM   24  C   UNL     1     -41.587  54.666 -52.962  1.00  0.00     0.043 A 
HETATM   25  C   UNL     1     -42.950  54.475 -53.227  1.00  0.00     0.032 A 
HETATM   26  C   UNL     1     -43.440  54.630 -54.528  1.00  0.00     0.026 A 
HETATM   27  C   UNL     1     -42.574  54.976 -55.562  1.00  0.00     0.034 A 
HETATM   28 CL   UNL     1     -43.181  55.165 -57.159  1.00  0.00    -0.084 Cl
HETATM   29  C   UNL     1     -41.217  55.166 -55.309  1.00  0.00     0.026 A 
HETATM   30  C   UNL     1     -40.721  55.010 -54.011  1.00  0.00     0.032 A 
ENDBRANCH   2  24
BRANCH   1  31
HETATM   31  C   UNL     1     -40.002  52.171 -51.815  1.00  0.00     0.012 A 
HETATM   32  C   UNL     1     -39.857  51.009 -51.043  1.00  0.00     0.015 A 
HETATM   33  C   UNL     1     -39.582  49.781 -51.648  1.00  0.00     0.001 A 
HETATM   34  C   UNL     1     -39.459  49.700 -53.034  1.00  0.00     0.000 A 
HETATM   35  C   UNL     1     -39.622  50.842 -53.815  1.00  0.00     0.001 A 
HETATM   36  C   UNL     1     -39.901  52.071 -53.210  1.00  0.00     0.015 A 
ENDBRANCH   1  31
TORSDOF 6
ENDMDL
MODEL 3
REMARK VINA RESULT:      -8.9      3.357      5.019
REMARK  6 active torsions:
REMARK  status: ('A' for Active; 'I' for Inactive)
REMARK    1  A    between atoms: C_4  and  C_5 
REMARK    2  A    between atoms: N_6  and  C_7 
REMARK    3  A    between atoms: C_14  and  S_15 
REMARK    4  A    between atoms: S_15  and  C_16 
REMARK    5  A    between atoms: C_16  and  C_17 
REMARK       I    between atoms: C_17  and  N_18 
REMARK    6  A    between atoms: N_18  and  C_19 
ROOT
HETATM    1  C   UNL     1     -42.956  55.610 -53.731  1.00  0.00     0.169 A 
HETATM    2  N   UNL     1     -42.898  56.954 -53.349  1.00  0.00    -0.271 N 
HETATM    3  C   UNL     1     -44.098  57.482 -53.808  1.00  0.00     0.197 A 
HETATM    4  N   UNL     1     -44.824  56.546 -54.367  1.00  0.00    -0.122 NA
HETATM    5  N   UNL     1     -44.126  55.378 -54.302  1.00  0.00    -0.128 NA
ENDROOT
BRANCH   3   6
HETATM    6  S   UNL     1     -44.695  59.082 -53.486  1.00  0.00    -0.080 SA
BRANCH   6   7
HETATM    7  C   UNL     1     -43.832  60.043 -54.770  1.00  0.00     0.185 C 
BRANCH   7   8
HETATM    8  C   UNL     1     -43.839  59.416 -56.161  1.00  0.00     0.231 C 
HETATM    9  N   UNL     1     -45.024  58.803 -56.525  1.00  0.00    -0.326 N 
HETATM   10  H   UNL     1     -45.746  58.796 -55.814  1.00  0.00     0.169 HD
HETATM   11  O   UNL     1     -42.862  59.567 -56.895  1.00  0.00    -0.272 OA
BRANCH   9  12
HETATM   12  C   UNL     1     -45.321  58.128 -57.726  1.00  0.00     0.037 A 
HETATM   13  C   UNL     1     -44.485  57.160 -58.297  1.00  0.00     0.061 A 
HETATM   14  C   UNL     1     -44.912  56.574 -59.466  1.00  0.00     0.065 A 
HETATM   15  C   UNL     1     -46.117  56.914 -60.078  1.00  0.00     0.063 A 
HETATM   16  N   UNL     1     -44.304  55.591 -60.240  1.00  0.00    -0.306 N 
HETATM   17  N   UNL     1     -46.249  56.142 -61.226  1.00  0.00    -0.307 N 
HETATM   18  C   UNL     1     -46.960  57.857 -59.549  1.00  0.00     0.034 A 
HETATM   19  C   UNL     1     -45.125  55.308 -61.341  1.00  0.00     0.325 A 
HETATM   20  H   UNL     1     -47.009  56.146 -61.884  1.00  0.00     0.170 HD
HETATM   21  O   UNL     1     -44.911  54.499 -62.225  1.00  0.00    -0.247 OA
HETATM   22  C   UNL     1     -46.549  58.466 -58.356  1.00  0.00     0.032 A 
HETATM   23  H   UNL     1     -43.424  55.136 -60.059  1.00  0.00     0.170 HD
ENDBRANCH   9  12
ENDBRANCH   7   8
ENDBRANCH   6   7
ENDBRANCH   3   6
BRANCH   2  24
HETATM   24  C   UNL     1     -41.865  57.606 -52.615  1.00  0.00     0.043 A 
HETATM   25  C   UNL     1     -41.871  57.593 -51.213  1.00  0.00     0.032 A 
HETATM   26  C   UNL     1     -40.858  58.244 -50.501  1.00  0.00     0.026 A 
HETATM   27  C   UNL     1     -39.840  58.905 -51.185  1.00  0.00     0.034 A 
HETATM   28 CL   UNL     1     -38.598  59.704 -50.306  1.00  0.00    -0.084 Cl
HETATM   29  C   UNL     1     -39.827  58.924 -52.578  1.00  0.00     0.026 A 
HETATM   30  C   UNL     1     -40.838  58.278 -53.295  1.00  0.00     0.032 A 
ENDBRANCH   2  24
BRANCH   1  31
HETATM   31  C   UNL     1     -41.902  54.599 -53.620  1.00  0.00     0.012 A 
HETATM   32  C   UNL     1     -41.644  54.013 -52.372  1.00  0.00     0.015 A 
HETATM   33  C   UNL     1     -40.661  53.031 -52.235  1.00  0.00     0.001 A 
HETATM   34  C   UNL     1     -39.931  52.618 -53.348  1.00  0.00     0.000 A 
HETATM   35  C   UNL     1     -40.191  53.176 -54.597  1.00  0.00     0.001 A 
HETATM   36  C   UNL     1     -41.178  54.156 -54.736  1.00  0.00     0.015 A 
ENDBRANCH   1  31
TORSDOF 6
ENDMDL
MODEL 4
REMARK VINA RESULT:      -8.5      5.275      7.139
REMARK  6 active torsions:
REMARK  status: ('A' for Active; 'I' for Inactive)
REMARK    1  A    between atoms: C_4  and  C_5 
REMARK    2  A    between atoms: N_6  and  C_7 
REMARK    3  A    between atoms: C_14  and  S_15 
REMARK    4  A    between atoms: S_15  and  C_16 
REMARK    5  A    between atoms: C_16  and  C_17 
REMARK       I    between atoms: C_17  and  N_18 
REMARK    6  A    between atoms: N_18  and  C_19 
ROOT
HETATM    1  C   UNL     1     -43.012  55.741 -53.874  1.00  0.00     0.169 A 
HETATM    2  N   UNL     1     -42.964  57.047 -53.377  1.00  0.00    -0.271 N 
HETATM    3  C   UNL     1     -44.204  57.575 -53.711  1.00  0.00     0.197 A 
HETATM    4  N   UNL     1     -44.941  56.671 -54.306  1.00  0.00    -0.122 NA
HETATM    5  N   UNL     1     -44.210  55.524 -54.391  1.00  0.00    -0.128 NA
ENDROOT
BRANCH   3   6
HETATM    6  S   UNL     1     -44.820  59.122 -53.209  1.00  0.00    -0.080 SA
BRANCH   6   7
HETATM    7  C   UNL     1     -45.161  58.809 -51.448  1.00  0.00     0.185 C 
BRANCH   7   8
HETATM    8  C   UNL     1     -45.739  59.994 -50.680  1.00  0.00     0.231 C 
HETATM    9  N   UNL     1     -45.011  60.387 -49.572  1.00  0.00    -0.326 N 
HETATM   10  H   UNL     1     -44.197  59.822 -49.363  1.00  0.00     0.169 HD
HETATM   11  O   UNL     1     -46.729  60.575 -51.123  1.00  0.00    -0.272 OA
BRANCH   9  12
HETATM   12  C   UNL     1     -45.303  61.426 -48.665  1.00  0.00     0.037 A 
HETATM   13  C   UNL     1     -46.315  61.350 -47.701  1.00  0.00     0.061 A 
HETATM   14  C   UNL     1     -46.475  62.438 -46.873  1.00  0.00     0.065 A 
HETATM   15  C   UNL     1     -45.681  63.577 -46.971  1.00  0.00     0.063 A 
HETATM   16  N   UNL     1     -47.380  62.637 -45.834  1.00  0.00    -0.306 N 
HETATM   17  N   UNL     1     -46.095  64.476 -45.995  1.00  0.00    -0.307 N 
HETATM   18  C   UNL     1     -44.680  63.688 -47.902  1.00  0.00     0.034 A 
HETATM   19  C   UNL     1     -47.155  63.902 -45.275  1.00  0.00     0.325 A 
HETATM   20  H   UNL     1     -45.719  65.388 -45.802  1.00  0.00     0.170 HD
HETATM   21  O   UNL     1     -47.757  64.409 -44.346  1.00  0.00    -0.247 OA
HETATM   22  C   UNL     1     -44.495  62.592 -48.755  1.00  0.00     0.032 A 
HETATM   23  H   UNL     1     -48.084  61.992 -45.512  1.00  0.00     0.170 HD
ENDBRANCH   9  12
ENDBRANCH   7   8
ENDBRANCH   6   7
ENDBRANCH   3   6
BRANCH   2  24
HETATM   24  C   UNL     1     -41.902  57.664 -52.653  1.00  0.00     0.043 A 
HETATM   25  C   UNL     1     -40.908  58.387 -53.325  1.00  0.00     0.032 A 
HETATM   26  C   UNL     1     -39.864  58.980 -52.607  1.00  0.00     0.026 A 
HETATM   27  C   UNL     1     -39.813  58.853 -51.221  1.00  0.00     0.034 A 
HETATM   28 CL   UNL     1     -38.528  59.583 -50.343  1.00  0.00    -0.084 Cl
HETATM   29  C   UNL     1     -40.795  58.134 -50.544  1.00  0.00     0.026 A 
HETATM   30  C   UNL     1     -41.840  57.538 -51.257  1.00  0.00     0.032 A 
ENDBRANCH   2  24
BRANCH   1  31
HETATM   31  C   UNL     1     -41.928  54.758 -53.920  1.00  0.00     0.012 A 
HETATM   32  C   UNL     1     -41.740  53.894 -52.831  1.00  0.00     0.015 A 
HETATM   33  C   UNL     1     -40.728  52.931 -52.851  1.00  0.00     0.001 A 
HETATM   34  C   UNL     1     -39.900  52.815 -53.966  1.00  0.00     0.000 A 
HETATM   35  C   UNL     1     -40.089  53.652 -55.063  1.00  0.00     0.001 A 
HETATM   36  C   UNL     1     -41.104  54.614 -55.045  1.00  0.00     0.015 A 
ENDBRANCH   1  31
TORSDOF 6
ENDMDL
MODEL 5
REMARK VINA RESULT:      -8.4      3.347      5.047
REMARK  6 active torsions:
REMARK  status: ('A' for Active; 'I' for Inactive)
REMARK    1  A    between atoms: C_4  and  C_5 
REMARK    2  A    between atoms: N_6  and  C_7 
REMARK    3  A    between atoms: C_14  and  S_15 
REMARK    4  A    between atoms: S_15  and  C_16 
REMARK    5  A    between atoms: C_16  and  C_17 
REMARK       I    between atoms: C_17  and  N_18 
REMARK    6  A    between atoms: N_18  and  C_19 
ROOT
HETATM    1  C   UNL     1     -42.833  55.492 -53.433  1.00  0.00     0.169 A 
HETATM    2  N   UNL     1     -42.720  56.876 -53.272  1.00  0.00    -0.271 N 
HETATM    3  C   UNL     1     -43.814  57.380 -53.963  1.00  0.00     0.197 A 
HETATM    4  N   UNL     1     -44.536  56.403 -54.451  1.00  0.00    -0.122 NA
HETATM    5  N   UNL     1     -43.940  55.227 -54.106  1.00  0.00    -0.128 NA
ENDROOT
BRANCH   3   6
HETATM    6  S   UNL     1     -44.325  59.042 -53.988  1.00  0.00    -0.080 SA
BRANCH   6   7
HETATM    7  C   UNL     1     -43.203  59.734 -55.244  1.00  0.00     0.185 C 
BRANCH   7   8
HETATM    8  C   UNL     1     -43.472  59.278 -56.675  1.00  0.00     0.231 C 
HETATM    9  N   UNL     1     -44.443  58.302 -56.809  1.00  0.00    -0.326 N 
HETATM   10  H   UNL     1     -44.841  57.963 -55.941  1.00  0.00     0.169 HD
HETATM   11  O   UNL     1     -42.904  59.848 -57.607  1.00  0.00    -0.272 OA
BRANCH   9  12
HETATM   12  C   UNL     1     -44.890  57.677 -57.990  1.00  0.00     0.037 A 
HETATM   13  C   UNL     1     -46.113  57.970 -58.606  1.00  0.00     0.061 A 
HETATM   14  C   UNL     1     -46.410  57.290 -59.765  1.00  0.00     0.065 A 
HETATM   15  C   UNL     1     -45.552  56.344 -60.320  1.00  0.00     0.063 A 
HETATM   16  N   UNL     1     -47.531  57.381 -60.585  1.00  0.00    -0.306 N 
HETATM   17  N   UNL     1     -46.142  55.854 -61.478  1.00  0.00    -0.307 N 
HETATM   18  C   UNL     1     -44.346  56.030 -59.745  1.00  0.00     0.034 A 
HETATM   19  C   UNL     1     -47.379  56.493 -61.659  1.00  0.00     0.325 A 
HETATM   20  H   UNL     1     -45.774  55.163 -62.110  1.00  0.00     0.170 HD
HETATM   21  O   UNL     1     -48.162  56.309 -62.573  1.00  0.00    -0.247 OA
HETATM   22  C   UNL     1     -44.019  56.713 -58.565  1.00  0.00     0.032 A 
HETATM   23  H   UNL     1     -48.329  57.982 -60.456  1.00  0.00     0.170 HD
ENDBRANCH   9  12
ENDBRANCH   7   8
ENDBRANCH   6   7
ENDBRANCH   3   6
BRANCH   2  24
HETATM   24  C   UNL     1     -41.736  57.588 -52.527  1.00  0.00     0.043 A 
HETATM   25  C   UNL     1     -41.868  57.743 -51.140  1.00  0.00     0.032 A 
HETATM   26  C   UNL     1     -40.903  58.452 -50.418  1.00  0.00     0.026 A 
HETATM   27  C   UNL     1     -39.807  59.005 -51.077  1.00  0.00     0.034 A 
HETATM   28 CL   UNL     1     -38.623  59.876 -50.185  1.00  0.00    -0.084 Cl
HETATM   29  C   UNL     1     -39.669  58.858 -52.455  1.00  0.00     0.026 A 
HETATM   30  C   UNL     1     -40.632  58.152 -53.182  1.00  0.00     0.032 A 
ENDBRANCH   2  24
BRANCH   1  31
HETATM   31  C   UNL     1     -41.878  54.460 -53.022  1.00  0.00     0.012 A 
HETATM   32  C   UNL     1     -41.107  53.812 -53.999  1.00  0.00     0.015 A 
HETATM   33  C   UNL     1     -40.173  52.838 -53.639  1.00  0.00     0.001 A 
HETATM   34  C   UNL     1     -39.992  52.509 -52.297  1.00  0.00     0.000 A 
HETATM   35  C   UNL     1     -40.735  53.160 -51.315  1.00  0.00     0.001 A 
HETATM   36  C   UNL     1     -41.668  54.138 -51.674  1.00  0.00     0.015 A 
ENDBRANCH   1  31
TORSDOF 6
ENDMDL
MODEL 6
REMARK VINA RESULT:      -8.4      3.059      3.395
REMARK  6 active torsions:
REMARK  status: ('A' for Active; 'I' for Inactive)
REMARK    1  A    between atoms: C_4  and  C_5 
REMARK    2  A    between atoms: N_6  and  C_7 
REMARK    3  A    between atoms: C_14  and  S_15 
REMARK    4  A    between atoms: S_15  and  C_16 
REMARK    5  A    between atoms: C_16  and  C_17 
REMARK       I    between atoms: C_17  and  N_18 
REMARK    6  A    between atoms: N_18  and  C_19 
ROOT
HETATM    1  C   UNL     1     -40.170  53.285 -51.273  1.00  0.00     0.169 A 
HETATM    2  N   UNL     1     -40.892  54.394 -51.726  1.00  0.00    -0.271 N 
HETATM    3  C   UNL     1     -40.926  55.239 -50.625  1.00  0.00     0.197 A 
HETATM    4  N   UNL     1     -40.258  54.718 -49.627  1.00  0.00    -0.122 NA
HETATM    5  N   UNL     1     -39.770  53.512 -50.033  1.00  0.00    -0.128 NA
ENDROOT
BRANCH   3   6
HETATM    6  S   UNL     1     -41.539  56.867 -50.610  1.00  0.00    -0.080 SA
BRANCH   6   7
HETATM    7  C   UNL     1     -43.322  56.571 -50.825  1.00  0.00     0.185 C 
BRANCH   7   8
HETATM    8  C   UNL     1     -44.103  57.733 -51.432  1.00  0.00     0.231 C 
HETATM    9  N   UNL     1     -44.523  58.694 -50.530  1.00  0.00    -0.326 N 
HETATM   10  H   UNL     1     -44.307  58.503 -49.560  1.00  0.00     0.169 HD
HETATM   11  O   UNL     1     -44.228  57.802 -52.655  1.00  0.00    -0.272 OA
BRANCH   9  12
HETATM   12  C   UNL     1     -45.272  59.860 -50.789  1.00  0.00     0.037 A 
HETATM   13  C   UNL     1     -46.231  59.954 -51.805  1.00  0.00     0.061 A 
HETATM   14  C   UNL     1     -46.897  61.152 -51.930  1.00  0.00     0.065 A 
HETATM   15  C   UNL     1     -46.643  62.240 -51.098  1.00  0.00     0.063 A 
HETATM   16  N   UNL     1     -47.891  61.526 -52.828  1.00  0.00    -0.306 N 
HETATM   17  N   UNL     1     -47.479  63.281 -51.483  1.00  0.00    -0.307 N 
HETATM   18  C   UNL     1     -45.711  62.186 -50.093  1.00  0.00     0.034 A 
HETATM   19  C   UNL     1     -48.267  62.850 -52.562  1.00  0.00     0.325 A 
HETATM   20  H   UNL     1     -47.543  64.199 -51.078  1.00  0.00     0.170 HD
HETATM   21  O   UNL     1     -49.112  63.502 -53.148  1.00  0.00    -0.247 OA
HETATM   22  C   UNL     1     -45.022  60.974 -49.943  1.00  0.00     0.032 A 
HETATM   23  H   UNL     1     -48.297  60.957 -53.553  1.00  0.00     0.170 HD
ENDBRANCH   9  12
ENDBRANCH   7   8
ENDBRANCH   6   7
ENDBRANCH   3   6
BRANCH   2  24
HETATM   24  C   UNL     1     -41.418  54.614 -53.032  1.00  0.00     0.043 A 
HETATM   25  C   UNL     1     -42.700  54.157 -53.368  1.00  0.00     0.032 A 
HETATM   26  C   UNL     1     -43.206  54.369 -54.655  1.00  0.00     0.026 A 
HETATM   27  C   UNL     1     -42.434  55.037 -55.604  1.00  0.00     0.034 A 
HETATM   28 CL   UNL     1     -43.060  55.294 -57.185  1.00  0.00    -0.084 Cl
HETATM   29  C   UNL     1     -41.159  55.492 -55.280  1.00  0.00     0.026 A 
HETATM   30  C   UNL     1     -40.648  55.281 -53.995  1.00  0.00     0.032 A 
ENDBRANCH   2  24
BRANCH   1  31
HETATM   31  C   UNL     1     -39.934  52.021 -51.973  1.00  0.00     0.012 A 
HETATM   32  C   UNL     1     -39.806  50.839 -51.229  1.00  0.00     0.015 A 
HETATM   33  C   UNL     1     -39.600  49.613 -51.866  1.00  0.00     0.001 A 
HETATM   34  C   UNL     1     -39.530  49.556 -53.257  1.00  0.00     0.000 A 
HETATM   35  C   UNL     1     -39.677  50.718 -54.010  1.00  0.00     0.001 A 
HETATM   36  C   UNL     1     -39.886  51.945 -53.373  1.00  0.00     0.015 A 
ENDBRANCH   1  31
TORSDOF 6
ENDMDL
MODEL 7
REMARK VINA RESULT:      -8.3      3.861      8.592
REMARK  6 active torsions:
REMARK  status: ('A' for Active; 'I' for Inactive)
REMARK    1  A    between atoms: C_4  and  C_5 
REMARK    2  A    between atoms: N_6  and  C_7 
REMARK    3  A    between atoms: C_14  and  S_15 
REMARK    4  A    between atoms: S_15  and  C_16 
REMARK    5  A    between atoms: C_16  and  C_17 
REMARK       I    between atoms: C_17  and  N_18 
REMARK    6  A    between atoms: N_18  and  C_19 
ROOT
HETATM    1  C   UNL     1     -43.608  60.809 -52.498  1.00  0.00     0.169 A 
HETATM    2  N   UNL     1     -43.033  59.576 -52.821  1.00  0.00    -0.271 N 
HETATM    3  C   UNL     1     -42.940  59.606 -54.206  1.00  0.00     0.197 A 
HETATM    4  N   UNL     1     -43.370  60.753 -54.668  1.00  0.00    -0.122 NA
HETATM    5  N   UNL     1     -43.767  61.511 -53.607  1.00  0.00    -0.128 NA
ENDROOT
BRANCH   3   6
HETATM    6  S   UNL     1     -42.144  58.421 -55.198  1.00  0.00    -0.080 SA
BRANCH   6   7
HETATM    7  C   UNL     1     -43.457  57.173 -55.374  1.00  0.00     0.185 C 
BRANCH   7   8
HETATM    8  C   UNL     1     -43.168  55.830 -54.709  1.00  0.00     0.231 C 
HETATM    9  N   UNL     1     -41.828  55.531 -54.546  1.00  0.00    -0.326 N 
HETATM   10  H   UNL     1     -41.181  56.212 -54.925  1.00  0.00     0.169 HD
HETATM   11  O   UNL     1     -44.104  55.155 -54.282  1.00  0.00    -0.272 OA
BRANCH   9  12
HETATM   12  C   UNL     1     -41.258  54.368 -53.989  1.00  0.00     0.037 A 
HETATM   13  C   UNL     1     -41.088  53.173 -54.697  1.00  0.00     0.061 A 
HETATM   14  C   UNL     1     -40.503  52.124 -54.026  1.00  0.00     0.065 A 
HETATM   15  C   UNL     1     -40.092  52.220 -52.699  1.00  0.00     0.063 A 
HETATM   16  N   UNL     1     -40.205  50.840 -54.473  1.00  0.00    -0.306 N 
HETATM   17  N   UNL     1     -39.543  50.998 -52.330  1.00  0.00    -0.307 N 
HETATM   18  C   UNL     1     -40.243  53.373 -51.973  1.00  0.00     0.034 A 
HETATM   19  C   UNL     1     -39.604  50.125 -53.428  1.00  0.00     0.325 A 
HETATM   20  H   UNL     1     -39.151  50.746 -51.438  1.00  0.00     0.170 HD
HETATM   21  O   UNL     1     -39.209  48.974 -53.461  1.00  0.00    -0.247 OA
HETATM   22  C   UNL     1     -40.833  54.458 -52.636  1.00  0.00     0.032 A 
HETATM   23  H   UNL     1     -40.375  50.464 -55.392  1.00  0.00     0.170 HD
ENDBRANCH   9  12
ENDBRANCH   7   8
ENDBRANCH   6   7
ENDBRANCH   3   6
BRANCH   2  24
HETATM   24  C   UNL     1     -42.600  58.556 -51.924  1.00  0.00     0.043 A 
HETATM   25  C   UNL     1     -41.314  58.595 -51.369  1.00  0.00     0.032 A 
HETATM   26  C   UNL     1     -40.894  57.585 -50.497  1.00  0.00     0.026 A 
HETATM   27  C   UNL     1     -41.757  56.538 -50.179  1.00  0.00     0.034 A 
HETATM   28 CL   UNL     1     -41.236  55.298 -49.108  1.00  0.00    -0.084 Cl
HETATM   29  C   UNL     1     -43.036  56.490 -50.727  1.00  0.00     0.026 A 
HETATM   30  C   UNL     1     -43.460  57.496 -51.600  1.00  0.00     0.032 A 
ENDBRANCH   2  24
BRANCH   1  31
HETATM   31  C   UNL     1     -44.058  61.272 -51.183  1.00  0.00     0.012 A 
HETATM   32  C   UNL     1     -43.517  62.452 -50.650  1.00  0.00     0.015 A 
HETATM   33  C   UNL     1     -43.939  62.932 -49.409  1.00  0.00     0.001 A 
HETATM   34  C   UNL     1     -44.914  62.244 -48.691  1.00  0.00     0.000 A 
HETATM   35  C   UNL     1     -45.476  61.083 -49.218  1.00  0.00     0.001 A 
HETATM   36  C   UNL     1     -45.057  60.603 -50.462  1.00  0.00     0.015 A 
ENDBRANCH   1  31
TORSDOF 6
ENDMDL
MODEL 8
REMARK VINA RESULT:      -8.2      3.889      8.882
REMARK  6 active torsions:
REMARK  status: ('A' for Active; 'I' for Inactive)
REMARK    1  A    between atoms: C_4  and  C_5 
REMARK    2  A    between atoms: N_6  and  C_7 
REMARK    3  A    between atoms: C_14  and  S_15 
REMARK    4  A    between atoms: S_15  and  C_16 
REMARK    5  A    between atoms: C_16  and  C_17 
REMARK       I    between atoms: C_17  and  N_18 
REMARK    6  A    between atoms: N_18  and  C_19 
ROOT
HETATM    1  C   UNL     1     -42.263  60.061 -57.721  1.00  0.00     0.169 A 
HETATM    2  N   UNL     1     -43.163  59.084 -57.282  1.00  0.00    -0.271 N 
HETATM    3  C   UNL     1     -42.880  58.958 -55.928  1.00  0.00     0.197 A 
HETATM    4  N   UNL     1     -41.941  59.800 -55.576  1.00  0.00    -0.122 NA
HETATM    5  N   UNL     1     -41.570  60.502 -56.684  1.00  0.00    -0.128 NA
ENDROOT
BRANCH   3   6
HETATM    6  S   UNL     1     -43.787  58.014 -54.783  1.00  0.00    -0.080 SA
BRANCH   6   7
HETATM    7  C   UNL     1     -42.660  58.022 -53.353  1.00  0.00     0.185 C 
BRANCH   7   8
HETATM    8  C   UNL     1     -41.642  56.886 -53.324  1.00  0.00     0.231 C 
HETATM    9  N   UNL     1     -42.149  55.652 -52.956  1.00  0.00    -0.326 N 
HETATM   10  H   UNL     1     -43.129  55.643 -52.703  1.00  0.00     0.169 HD
HETATM   11  O   UNL     1     -40.492  57.096 -53.707  1.00  0.00    -0.272 OA
BRANCH   9  12
HETATM   12  C   UNL     1     -41.454  54.433 -52.821  1.00  0.00     0.037 A 
HETATM   13  C   UNL     1     -41.406  53.455 -53.822  1.00  0.00     0.061 A 
HETATM   14  C   UNL     1     -40.675  52.320 -53.555  1.00  0.00     0.065 A 
HETATM   15  C   UNL     1     -40.007  52.126 -52.349  1.00  0.00     0.063 A 
HETATM   16  N   UNL     1     -40.447  51.203 -54.353  1.00  0.00    -0.306 N 
HETATM   17  N   UNL     1     -39.369  50.893 -52.404  1.00  0.00    -0.307 N 
HETATM   18  C   UNL     1     -40.032  53.061 -51.345  1.00  0.00     0.034 A 
HETATM   19  C   UNL     1     -39.632  50.304 -53.651  1.00  0.00     0.325 A 
HETATM   20  H   UNL     1     -38.800  50.464 -51.694  1.00  0.00     0.170 HD
HETATM   21  O   UNL     1     -39.228  49.224 -54.042  1.00  0.00    -0.247 OA
HETATM   22  C   UNL     1     -40.767  54.228 -51.595  1.00  0.00     0.032 A 
HETATM   23  H   UNL     1     -40.791  51.045 -55.287  1.00  0.00     0.170 HD
ENDBRANCH   9  12
ENDBRANCH   7   8
ENDBRANCH   6   7
ENDBRANCH   3   6
BRANCH   2  24
HETATM   24  C   UNL     1     -44.165  58.420 -58.046  1.00  0.00     0.043 A 
HETATM   25  C   UNL     1     -45.408  59.028 -58.271  1.00  0.00     0.032 A 
HETATM   26  C   UNL     1     -46.390  58.363 -59.013  1.00  0.00     0.026 A 
HETATM   27  C   UNL     1     -46.133  57.096 -59.531  1.00  0.00     0.034 A 
HETATM   28 CL   UNL     1     -47.343  56.283 -60.442  1.00  0.00    -0.084 Cl
HETATM   29  C   UNL     1     -44.902  56.483 -59.311  1.00  0.00     0.026 A 
HETATM   30  C   UNL     1     -43.918  57.142 -58.567  1.00  0.00     0.032 A 
ENDBRANCH   2  24
BRANCH   1  31
HETATM   31  C   UNL     1     -42.022  60.506 -59.095  1.00  0.00     0.012 A 
HETATM   32  C   UNL     1     -41.650  61.839 -59.328  1.00  0.00     0.015 A 
HETATM   33  C   UNL     1     -41.393  62.291 -60.624  1.00  0.00     0.001 A 
HETATM   34  C   UNL     1     -41.494  61.412 -61.700  1.00  0.00     0.000 A 
HETATM   35  C   UNL     1     -41.841  60.081 -61.482  1.00  0.00     0.001 A 
HETATM   36  C   UNL     1     -42.096  59.626 -60.184  1.00  0.00     0.015 A 
ENDBRANCH   1  31
TORSDOF 6
ENDMDL
MODEL 9
REMARK VINA RESULT:      -7.8      3.377      7.834
REMARK  6 active torsions:
REMARK  status: ('A' for Active; 'I' for Inactive)
REMARK    1  A    between atoms: C_4  and  C_5 
REMARK    2  A    between atoms: N_6  and  C_7 
REMARK    3  A    between atoms: C_14  and  S_15 
REMARK    4  A    between atoms: S_15  and  C_16 
REMARK    5  A    between atoms: C_16  and  C_17 
REMARK       I    between atoms: C_17  and  N_18 
REMARK    6  A    between atoms: N_18  and  C_19 
ROOT
HETATM    1  C   UNL     1     -43.396  56.967 -56.170  1.00  0.00     0.169 A 
HETATM    2  N   UNL     1     -43.917  57.951 -55.324  1.00  0.00    -0.271 N 
HETATM    3  C   UNL     1     -44.210  57.262 -54.154  1.00  0.00     0.197 A 
HETATM    4  N   UNL     1     -43.862  56.004 -54.265  1.00  0.00    -0.122 NA
HETATM    5  N   UNL     1     -43.337  55.822 -55.510  1.00  0.00    -0.128 NA
ENDROOT
BRANCH   3   6
HETATM    6  S   UNL     1     -44.729  57.975 -52.656  1.00  0.00    -0.080 SA
BRANCH   6   7
HETATM    7  C   UNL     1     -43.290  57.640 -51.592  1.00  0.00     0.185 C 
BRANCH   7   8
HETATM    8  C   UNL     1     -42.912  56.167 -51.459  1.00  0.00     0.231 C 
HETATM    9  N   UNL     1     -41.744  55.799 -52.101  1.00  0.00    -0.326 N 
HETATM   10  H   UNL     1     -41.288  56.534 -52.628  1.00  0.00     0.169 HD
HETATM   11  O   UNL     1     -43.587  55.435 -50.735  1.00  0.00    -0.272 OA
BRANCH   9  12
HETATM   12  C   UNL     1     -41.157  54.520 -52.172  1.00  0.00     0.037 A 
HETATM   13  C   UNL     1     -41.192  53.714 -53.316  1.00  0.00     0.061 A 
HETATM   14  C   UNL     1     -40.562  52.493 -53.243  1.00  0.00     0.065 A 
HETATM   15  C   UNL     1     -39.914  52.052 -52.092  1.00  0.00     0.063 A 
HETATM   16  N   UNL     1     -40.430  51.503 -54.212  1.00  0.00    -0.306 N 
HETATM   17  N   UNL     1     -39.385  50.794 -52.351  1.00  0.00    -0.307 N 
HETATM   18  C   UNL     1     -39.860  52.813 -50.952  1.00  0.00     0.034 A 
HETATM   19  C   UNL     1     -39.696  50.437 -53.672  1.00  0.00     0.325 A 
HETATM   20  H   UNL     1     -38.855  50.210 -51.726  1.00  0.00     0.170 HD
HETATM   21  O   UNL     1     -39.386  49.403 -54.236  1.00  0.00    -0.247 OA
HETATM   22  C   UNL     1     -40.491  54.063 -51.003  1.00  0.00     0.032 A 
HETATM   23  H   UNL     1     -40.785  51.526 -55.154  1.00  0.00     0.170 HD
ENDBRANCH   9  12
ENDBRANCH   7   8
ENDBRANCH   6   7
ENDBRANCH   3   6
BRANCH   2  24
HETATM   24  C   UNL     1     -44.059  59.343 -55.594  1.00  0.00     0.043 A 
HETATM   25  C   UNL     1     -45.220  59.834 -56.207  1.00  0.00     0.032 A 
HETATM   26  C   UNL     1     -45.347  61.200 -56.477  1.00  0.00     0.026 A 
HETATM   27  C   UNL     1     -44.319  62.076 -56.135  1.00  0.00     0.034 A 
HETATM   28 CL   UNL     1     -44.480  63.755 -56.470  1.00  0.00    -0.084 Cl
HETATM   29  C   UNL     1     -43.161  61.597 -55.527  1.00  0.00     0.026 A 
HETATM   30  C   UNL     1     -43.028  60.232 -55.257  1.00  0.00     0.032 A 
ENDBRANCH   2  24
BRANCH   1  31
HETATM   31  C   UNL     1     -43.036  57.097 -57.583  1.00  0.00     0.012 A 
HETATM   32  C   UNL     1     -43.628  56.239 -58.523  1.00  0.00     0.015 A 
HETATM   33  C   UNL     1     -43.322  56.350 -59.881  1.00  0.00     0.001 A 
HETATM   34  C   UNL     1     -42.429  57.327 -60.315  1.00  0.00     0.000 A 
HETATM   35  C   UNL     1     -41.850  58.199 -59.397  1.00  0.00     0.001 A 
HETATM   36  C   UNL     1     -42.158  58.092 -58.037  1.00  0.00     0.015 A 
ENDBRANCH   1  31
TORSDOF 6
ENDMDL
MODEL 10
REMARK VINA RESULT:      -7.8      4.153      6.186
REMARK  6 active torsions:
REMARK  status: ('A' for Active; 'I' for Inactive)
REMARK    1  A    between atoms: C_4  and  C_5 
REMARK    2  A    between atoms: N_6  and  C_7 
REMARK    3  A    between atoms: C_14  and  S_15 
REMARK    4  A    between atoms: S_15  and  C_16 
REMARK    5  A    between atoms: C_16  and  C_17 
REMARK       I    between atoms: C_17  and  N_18 
REMARK    6  A    between atoms: N_18  and  C_19 
ROOT
HETATM    1  C   UNL     1     -42.205  55.349 -55.052  1.00  0.00     0.169 A 
HETATM    2  N   UNL     1     -42.318  56.716 -54.781  1.00  0.00    -0.271 N 
HETATM    3  C   UNL     1     -42.981  57.221 -55.893  1.00  0.00     0.197 A 
HETATM    4  N   UNL     1     -43.277  56.254 -56.726  1.00  0.00    -0.122 NA
HETATM    5  N   UNL     1     -42.814  55.087 -56.196  1.00  0.00    -0.128 NA
ENDROOT
BRANCH   3   6
HETATM    6  S   UNL     1     -43.571  58.846 -56.075  1.00  0.00    -0.080 SA
BRANCH   6   7
HETATM    7  C   UNL     1     -44.969  58.843 -54.909  1.00  0.00     0.185 C 
BRANCH   7   8
HETATM    8  C   UNL     1     -44.870  59.862 -53.777  1.00  0.00     0.231 C 
HETATM    9  N   UNL     1     -45.642  59.582 -52.664  1.00  0.00    -0.326 N 
HETATM   10  H   UNL     1     -46.223  58.756 -52.735  1.00  0.00     0.169 HD
HETATM   11  O   UNL     1     -44.068  60.791 -53.871  1.00  0.00    -0.272 OA
BRANCH   9  12
HETATM   12  C   UNL     1     -45.771  60.340 -51.483  1.00  0.00     0.037 A 
HETATM   13  C   UNL     1     -45.261  59.936 -50.243  1.00  0.00     0.061 A 
HETATM   14  C   UNL     1     -45.450  60.787 -49.179  1.00  0.00     0.065 A 
HETATM   15  C   UNL     1     -46.119  62.002 -49.302  1.00  0.00     0.063 A 
HETATM   16  N   UNL     1     -45.050  60.653 -47.853  1.00  0.00    -0.306 N 
HETATM   17  N   UNL     1     -46.132  62.614 -48.055  1.00  0.00    -0.307 N 
HETATM   18  C   UNL     1     -46.634  62.431 -50.499  1.00  0.00     0.034 A 
HETATM   19  C   UNL     1     -45.466  61.785 -47.139  1.00  0.00     0.325 A 
HETATM   20  H   UNL     1     -46.534  63.504 -47.812  1.00  0.00     0.170 HD
HETATM   21  O   UNL     1     -45.286  62.010 -45.956  1.00  0.00    -0.247 OA
HETATM   22  C   UNL     1     -46.450  61.583 -51.599  1.00  0.00     0.032 A 
HETATM   23  H   UNL     1     -44.539  59.885 -47.449  1.00  0.00     0.170 HD
ENDBRANCH   9  12
ENDBRANCH   7   8
ENDBRANCH   6   7
ENDBRANCH   3   6
BRANCH   2  24
HETATM   24  C   UNL     1     -41.894  57.409 -53.610  1.00  0.00     0.043 A 
HETATM   25  C   UNL     1     -42.674  57.382 -52.446  1.00  0.00     0.032 A 
HETATM   26  C   UNL     1     -42.255  58.073 -51.304  1.00  0.00     0.026 A 
HETATM   27  C   UNL     1     -41.060  58.789 -51.324  1.00  0.00     0.034 A 
HETATM   28 CL   UNL     1     -40.549  59.637 -49.918  1.00  0.00    -0.084 Cl
HETATM   29  C   UNL     1     -40.279  58.823 -52.477  1.00  0.00     0.026 A 
HETATM   30  C   UNL     1     -40.695  58.136 -53.621  1.00  0.00     0.032 A 
ENDBRANCH   2  24
BRANCH   1  31
HETATM   31  C   UNL     1     -41.477  54.339 -54.281  1.00  0.00     0.012 A 
HETATM   32  C   UNL     1     -41.821  54.122 -52.938  1.00  0.00     0.015 A 
HETATM   33  C   UNL     1     -41.161  53.153 -52.180  1.00  0.00     0.001 A 
HETATM   34  C   UNL     1     -40.156  52.382 -52.761  1.00  0.00     0.000 A 
HETATM   35  C   UNL     1     -39.819  52.571 -54.099  1.00  0.00     0.001 A 
HETATM   36  C   UNL     1     -40.481  53.539 -54.859  1.00  0.00     0.015 A 
ENDBRANCH   1  31
TORSDOF 6
ENDMDL
