MODEL 1
REMARK VINA RESULT:      -8.8      0.000      0.000
REMARK  5 active torsions:
REMARK  status: ('A' for Active; 'I' for Inactive)
REMARK    1  A    between atoms: C_5  and  C_6 
REMARK    2  A    between atoms: C_10  and  C_11 
REMARK       I    between atoms: C_11  and  N_12 
REMARK    3  A    between atoms: N_12  and  N_13 
REMARK       I    between atoms: N_13  and  C_14 
REMARK       I    between atoms: C_14  and  N_15 
REMARK    4  A    between atoms: N_15  and  C_16 
REMARK    5  A    between atoms: C_16  and  C_17 
ROOT
HETATM    1  C   UNL     1     -43.901  56.050 -53.957  1.00  0.00     0.288 C 
HETATM    2  N   UNL     1     -43.655  54.742 -53.573  1.00  0.00    -0.261 N 
HETATM    3  O   UNL     1     -44.362  56.883 -53.178  1.00  0.00    -0.264 OA
HETATM    4  H   UNL     1     -43.003  54.174 -54.104  1.00  0.00     0.190 HD
ENDROOT
BRANCH   2   5
HETATM    5  N   UNL     1     -43.729  54.469 -52.199  1.00  0.00    -0.249 N 
HETATM    6  C   UNL     1     -42.640  54.245 -51.402  1.00  0.00     0.334 C 
HETATM    7  N   UNL     1     -41.438  54.217 -52.070  1.00  0.00    -0.341 N 
HETATM    8  O   UNL     1     -42.761  54.094 -50.192  1.00  0.00    -0.246 OA
HETATM    9  H   UNL     1     -41.540  53.835 -53.000  1.00  0.00     0.164 HD
HETATM   10  H   UNL     1     -44.654  54.425 -51.775  1.00  0.00     0.192 HD
BRANCH   7  11
HETATM   11  C   UNL     1     -40.252  53.832 -51.330  1.00  0.00     0.129 C 
BRANCH  11  12
HETATM   12  C   UNL     1     -39.728  52.424 -51.640  1.00  0.00     0.004 C 
HETATM   13  C   UNL     1     -40.119  51.953 -53.050  1.00  0.00     0.010 C 
HETATM   14  C   UNL     1     -39.494  50.586 -53.367  1.00  0.00    -0.018 C 
HETATM   15  C   UNL     1     -39.901  50.112 -54.761  1.00  0.00     0.010 C 
HETATM   16  C   UNL     1     -39.883  49.547 -52.305  1.00  0.00     0.004 C 
HETATM   17  C   UNL     1     -39.537  50.019 -50.894  1.00  0.00     0.001 C 
HETATM   18  C   UNL     1     -40.146  51.386 -50.589  1.00  0.00     0.006 C 
ENDBRANCH  11  12
ENDBRANCH   7  11
ENDBRANCH   2   5
BRANCH   1  19
HETATM   19  C   UNL     1     -43.550  56.385 -55.309  1.00  0.00     0.121 A 
HETATM   20  N   UNL     1     -43.283  55.413 -56.232  1.00  0.00    -0.272 N 
HETATM   21  N   UNL     1     -42.958  55.880 -57.444  1.00  0.00    -0.174 NA
HETATM   22  H   UNL     1     -43.305  54.408 -56.082  1.00  0.00     0.189 HD
HETATM   23  C   UNL     1     -43.015  57.215 -57.324  1.00  0.00     0.089 A 
HETATM   24  C   UNL     1     -43.386  57.573 -55.995  1.00  0.00     0.071 A 
BRANCH  23  25
HETATM   25  C   UNL     1     -42.708  58.099 -58.453  1.00  0.00    -0.006 A 
HETATM   26  C   UNL     1     -42.103  57.609 -59.620  1.00  0.00     0.014 A 
HETATM   27  C   UNL     1     -41.829  58.462 -60.696  1.00  0.00     0.007 A 
HETATM   28  C   UNL     1     -42.145  59.822 -60.623  1.00  0.00    -0.062 A 
HETATM   29  C   UNL     1     -41.888  60.736 -61.785  1.00  0.00     0.048 C 
HETATM   30  C   UNL     1     -42.751  60.316 -59.464  1.00  0.00     0.007 A 
HETATM   31  C   UNL     1     -43.023  59.464 -58.390  1.00  0.00     0.014 A 
ENDBRANCH  23  25
ENDBRANCH   1  19
TORSDOF 5
ENDMDL
MODEL 2
REMARK VINA RESULT:      -8.8      2.332      9.763
REMARK  5 active torsions:
REMARK  status: ('A' for Active; 'I' for Inactive)
REMARK    1  A    between atoms: C_5  and  C_6 
REMARK    2  A    between atoms: C_10  and  C_11 
REMARK       I    between atoms: C_11  and  N_12 
REMARK    3  A    between atoms: N_12  and  N_13 
REMARK       I    between atoms: N_13  and  C_14 
REMARK       I    between atoms: C_14  and  N_15 
REMARK    4  A    between atoms: N_15  and  C_16 
REMARK    5  A    between atoms: C_16  and  C_17 
ROOT
HETATM    1  C   UNL     1     -43.222  56.000 -56.616  1.00  0.00     0.288 C 
HETATM    2  N   UNL     1     -43.417  55.465 -57.880  1.00  0.00    -0.261 N 
HETATM    3  O   UNL     1     -43.837  56.991 -56.226  1.00  0.00    -0.264 OA
HETATM    4  H   UNL     1     -43.156  54.502 -58.066  1.00  0.00     0.190 HD
ENDROOT
BRANCH   2   5
HETATM    5  N   UNL     1     -44.514  55.955 -58.603  1.00  0.00    -0.249 N 
HETATM    6  C   UNL     1     -44.429  56.934 -59.554  1.00  0.00     0.334 C 
HETATM    7  N   UNL     1     -43.176  57.485 -59.697  1.00  0.00    -0.341 N 
HETATM    8  O   UNL     1     -45.407  57.265 -60.213  1.00  0.00    -0.246 OA
HETATM    9  H   UNL     1     -42.682  57.515 -58.817  1.00  0.00     0.164 HD
HETATM   10  H   UNL     1     -45.431  55.562 -58.398  1.00  0.00     0.192 HD
BRANCH   7  11
HETATM   11  C   UNL     1     -43.029  58.635 -60.569  1.00  0.00     0.129 C 
BRANCH  11  12
HETATM   12  C   UNL     1     -42.565  59.919 -59.870  1.00  0.00     0.004 C 
HETATM   13  C   UNL     1     -41.618  60.752 -60.750  1.00  0.00     0.010 C 
HETATM   14  C   UNL     1     -41.253  62.077 -60.064  1.00  0.00    -0.018 C 
HETATM   15  C   UNL     1     -40.296  62.893 -60.932  1.00  0.00     0.010 C 
HETATM   16  C   UNL     1     -40.649  61.828 -58.676  1.00  0.00     0.004 C 
HETATM   17  C   UNL     1     -41.563  60.968 -57.804  1.00  0.00     0.001 C 
HETATM   18  C   UNL     1     -41.935  59.658 -58.495  1.00  0.00     0.006 C 
ENDBRANCH  11  12
ENDBRANCH   7  11
ENDBRANCH   2   5
BRANCH   1  19
HETATM   19  C   UNL     1     -42.284  55.306 -55.777  1.00  0.00     0.121 A 
HETATM   20  N   UNL     1     -41.026  55.796 -55.567  1.00  0.00    -0.272 N 
HETATM   21  N   UNL     1     -40.264  55.032 -54.775  1.00  0.00    -0.174 NA
HETATM   22  H   UNL     1     -40.634  56.652 -55.950  1.00  0.00     0.189 HD
HETATM   23  C   UNL     1     -41.048  53.996 -54.440  1.00  0.00     0.089 A 
HETATM   24  C   UNL     1     -42.329  54.132 -55.051  1.00  0.00     0.071 A 
BRANCH  23  25
HETATM   25  C   UNL     1     -40.562  52.916 -53.575  1.00  0.00    -0.006 A 
HETATM   26  C   UNL     1     -40.392  53.105 -52.196  1.00  0.00     0.014 A 
HETATM   27  C   UNL     1     -39.942  52.060 -51.381  1.00  0.00     0.007 A 
HETATM   28  C   UNL     1     -39.643  50.809 -51.928  1.00  0.00    -0.062 A 
HETATM   29  C   UNL     1     -39.194  49.674 -51.057  1.00  0.00     0.048 C 
HETATM   30  C   UNL     1     -39.813  50.612 -53.302  1.00  0.00     0.007 A 
HETATM   31  C   UNL     1     -40.261  51.657 -54.116  1.00  0.00     0.014 A 
ENDBRANCH  23  25
ENDBRANCH   1  19
TORSDOF 5
ENDMDL
MODEL 3
REMARK VINA RESULT:      -8.7      2.514      3.250
REMARK  5 active torsions:
REMARK  status: ('A' for Active; 'I' for Inactive)
REMARK    1  A    between atoms: C_5  and  C_6 
REMARK    2  A    between atoms: C_10  and  C_11 
REMARK       I    between atoms: C_11  and  N_12 
REMARK    3  A    between atoms: N_12  and  N_13 
REMARK       I    between atoms: N_13  and  C_14 
REMARK       I    between atoms: C_14  and  N_15 
REMARK    4  A    between atoms: N_15  and  C_16 
REMARK    5  A    between atoms: C_16  and  C_17 
ROOT
HETATM    1  C   UNL     1     -41.289  57.484 -51.187  1.00  0.00     0.288 C 
HETATM    2  N   UNL     1     -42.071  56.507 -50.592  1.00  0.00    -0.261 N 
HETATM    3  O   UNL     1     -40.451  58.125 -50.554  1.00  0.00    -0.264 OA
HETATM    4  H   UNL     1     -42.510  55.794 -51.164  1.00  0.00     0.190 HD
ENDROOT
BRANCH   2   5
HETATM    5  N   UNL     1     -41.703  56.116 -49.296  1.00  0.00    -0.249 N 
HETATM    6  C   UNL     1     -41.082  54.933 -49.000  1.00  0.00     0.334 C 
HETATM    7  N   UNL     1     -40.916  54.090 -50.075  1.00  0.00    -0.341 N 
HETATM    8  O   UNL     1     -40.710  54.681 -47.861  1.00  0.00    -0.246 OA
HETATM    9  H   UNL     1     -41.679  54.173 -50.732  1.00  0.00     0.164 HD
HETATM   10  H   UNL     1     -41.923  56.749 -48.530  1.00  0.00     0.192 HD
BRANCH   7  11
HETATM   11  C   UNL     1     -40.410  52.754 -49.825  1.00  0.00     0.129 C 
BRANCH  11  12
HETATM   12  C   UNL     1     -39.854  52.033 -51.060  1.00  0.00     0.004 C 
HETATM   13  C   UNL     1     -40.408  52.613 -52.371  1.00  0.00     0.010 C 
HETATM   14  C   UNL     1     -39.757  51.941 -53.589  1.00  0.00    -0.018 C 
HETATM   15  C   UNL     1     -40.324  52.505 -54.890  1.00  0.00     0.010 C 
HETATM   16  C   UNL     1     -39.936  50.417 -53.534  1.00  0.00     0.004 C 
HETATM   17  C   UNL     1     -39.426  49.832 -52.219  1.00  0.00     0.001 C 
HETATM   18  C   UNL     1     -40.064  50.514 -51.010  1.00  0.00     0.006 C 
ENDBRANCH  11  12
ENDBRANCH   7  11
ENDBRANCH   2   5
BRANCH   1  19
HETATM   19  C   UNL     1     -41.489  57.677 -52.597  1.00  0.00     0.121 A 
HETATM   20  N   UNL     1     -41.187  58.867 -53.197  1.00  0.00    -0.272 N 
HETATM   21  N   UNL     1     -41.441  58.900 -54.511  1.00  0.00    -0.174 NA
HETATM   22  H   UNL     1     -40.807  59.697 -52.749  1.00  0.00     0.189 HD
HETATM   23  C   UNL     1     -41.925  57.683 -54.797  1.00  0.00     0.089 A 
HETATM   24  C   UNL     1     -41.971  56.883 -53.618  1.00  0.00     0.071 A 
BRANCH  23  25
HETATM   25  C   UNL     1     -42.339  57.324 -56.158  1.00  0.00    -0.006 A 
HETATM   26  C   UNL     1     -42.351  58.272 -57.191  1.00  0.00     0.014 A 
HETATM   27  C   UNL     1     -42.733  57.911 -58.488  1.00  0.00     0.007 A 
HETATM   28  C   UNL     1     -43.120  56.599 -58.777  1.00  0.00    -0.062 A 
HETATM   29  C   UNL     1     -43.498  56.196 -60.171  1.00  0.00     0.048 C 
HETATM   30  C   UNL     1     -43.108  55.648 -57.752  1.00  0.00     0.007 A 
HETATM   31  C   UNL     1     -42.727  56.010 -56.456  1.00  0.00     0.014 A 
ENDBRANCH  23  25
ENDBRANCH   1  19
TORSDOF 5
ENDMDL
MODEL 4
REMARK VINA RESULT:      -8.5      2.672      8.493
REMARK  5 active torsions:
REMARK  status: ('A' for Active; 'I' for Inactive)
REMARK    1  A    between atoms: C_5  and  C_6 
REMARK    2  A    between atoms: C_10  and  C_11 
REMARK       I    between atoms: C_11  and  N_12 
REMARK    3  A    between atoms: N_12  and  N_13 
REMARK       I    between atoms: N_13  and  C_14 
REMARK       I    between atoms: C_14  and  N_15 
REMARK    4  A    between atoms: N_15  and  C_16 
REMARK    5  A    between atoms: C_16  and  C_17 
ROOT
HETATM    1  C   UNL     1     -41.996  58.729 -53.080  1.00  0.00     0.288 C 
HETATM    2  N   UNL     1     -41.473  59.233 -54.260  1.00  0.00    -0.261 N 
HETATM    3  O   UNL     1     -42.730  59.398 -52.354  1.00  0.00    -0.264 OA
HETATM    4  H   UNL     1     -41.147  58.597 -54.980  1.00  0.00     0.190 HD
ENDROOT
BRANCH   2   5
HETATM    5  N   UNL     1     -42.006  60.450 -54.711  1.00  0.00    -0.249 N 
HETATM    6  C   UNL     1     -42.938  60.556 -55.706  1.00  0.00     0.334 C 
HETATM    7  N   UNL     1     -43.264  59.366 -56.314  1.00  0.00    -0.341 N 
HETATM    8  O   UNL     1     -43.430  61.639 -56.001  1.00  0.00    -0.246 OA
HETATM    9  H   UNL     1     -42.471  58.741 -56.354  1.00  0.00     0.164 HD
HETATM   10  H   UNL     1     -41.668  61.305 -54.274  1.00  0.00     0.192 HD
BRANCH   7  11
HETATM   11  C   UNL     1     -44.125  59.406 -57.481  1.00  0.00     0.129 C 
BRANCH  11  12
HETATM   12  C   UNL     1     -43.679  58.508 -58.642  1.00  0.00     0.004 C 
HETATM   13  C   UNL     1     -44.206  57.071 -58.504  1.00  0.00     0.010 C 
HETATM   14  C   UNL     1     -43.830  56.225 -59.730  1.00  0.00    -0.018 C 
HETATM   15  C   UNL     1     -44.338  54.793 -59.580  1.00  0.00     0.010 C 
HETATM   16  C   UNL     1     -42.313  56.242 -59.961  1.00  0.00     0.004 C 
HETATM   17  C   UNL     1     -41.769  57.666 -60.062  1.00  0.00     0.001 C 
HETATM   18  C   UNL     1     -42.159  58.508 -58.849  1.00  0.00     0.006 C 
ENDBRANCH  11  12
ENDBRANCH   7  11
ENDBRANCH   2   5
BRANCH   1  19
HETATM   19  C   UNL     1     -41.658  57.367 -52.774  1.00  0.00     0.121 A 
HETATM   20  N   UNL     1     -41.656  56.912 -51.485  1.00  0.00    -0.272 N 
HETATM   21  N   UNL     1     -41.307  55.626 -51.357  1.00  0.00    -0.174 NA
HETATM   22  H   UNL     1     -41.881  57.445 -50.650  1.00  0.00     0.189 HD
HETATM   23  C   UNL     1     -41.074  55.207 -52.610  1.00  0.00     0.089 A 
HETATM   24  C   UNL     1     -41.285  56.274 -53.531  1.00  0.00     0.071 A 
BRANCH  23  25
HETATM   25  C   UNL     1     -40.649  53.831 -52.892  1.00  0.00    -0.006 A 
HETATM   26  C   UNL     1     -40.093  53.021 -51.892  1.00  0.00     0.014 A 
HETATM   27  C   UNL     1     -39.707  51.705 -52.171  1.00  0.00     0.007 A 
HETATM   28  C   UNL     1     -39.860  51.176 -53.457  1.00  0.00    -0.062 A 
HETATM   29  C   UNL     1     -39.482  49.756 -53.756  1.00  0.00     0.048 C 
HETATM   30  C   UNL     1     -40.417  51.978 -54.457  1.00  0.00     0.007 A 
HETATM   31  C   UNL     1     -40.801  53.293 -54.177  1.00  0.00     0.014 A 
ENDBRANCH  23  25
ENDBRANCH   1  19
TORSDOF 5
ENDMDL
MODEL 5
REMARK VINA RESULT:      -8.5      2.724      8.342
REMARK  5 active torsions:
REMARK  status: ('A' for Active; 'I' for Inactive)
REMARK    1  A    between atoms: C_5  and  C_6 
REMARK    2  A    between atoms: C_10  and  C_11 
REMARK       I    between atoms: C_11  and  N_12 
REMARK    3  A    between atoms: N_12  and  N_13 
REMARK       I    between atoms: N_13  and  C_14 
REMARK       I    between atoms: C_14  and  N_15 
REMARK    4  A    between atoms: N_15  and  C_16 
REMARK    5  A    between atoms: C_16  and  C_17 
ROOT
HETATM    1  C   UNL     1     -42.444  58.230 -51.658  1.00  0.00     0.288 C 
HETATM    2  N   UNL     1     -41.596  59.217 -52.136  1.00  0.00    -0.261 N 
HETATM    3  O   UNL     1     -43.594  58.477 -51.298  1.00  0.00    -0.264 OA
HETATM    4  H   UNL     1     -40.797  58.962 -52.707  1.00  0.00     0.190 HD
ENDROOT
BRANCH   2   5
HETATM    5  N   UNL     1     -42.179  60.461 -52.415  1.00  0.00    -0.249 N 
HETATM    6  C   UNL     1     -42.500  60.892 -53.673  1.00  0.00     0.334 C 
HETATM    7  N   UNL     1     -42.123  60.039 -54.684  1.00  0.00    -0.341 N 
HETATM    8  O   UNL     1     -43.084  61.955 -53.850  1.00  0.00    -0.246 OA
HETATM    9  H   UNL     1     -41.265  59.555 -54.459  1.00  0.00     0.164 HD
HETATM   10  H   UNL     1     -42.365  61.084 -51.631  1.00  0.00     0.192 HD
BRANCH   7  11
HETATM   11  C   UNL     1     -42.283  60.487 -56.054  1.00  0.00     0.129 C 
BRANCH  11  12
HETATM   12  C   UNL     1     -42.739  59.401 -57.038  1.00  0.00     0.004 C 
HETATM   13  C   UNL     1     -42.529  57.984 -56.482  1.00  0.00     0.010 C 
HETATM   14  C   UNL     1     -43.089  56.926 -57.444  1.00  0.00    -0.018 C 
HETATM   15  C   UNL     1     -42.861  55.518 -56.897  1.00  0.00     0.010 C 
HETATM   16  C   UNL     1     -42.468  57.073 -58.840  1.00  0.00     0.004 C 
HETATM   17  C   UNL     1     -42.635  58.489 -59.390  1.00  0.00     0.001 C 
HETATM   18  C   UNL     1     -42.092  59.539 -58.423  1.00  0.00     0.006 C 
ENDBRANCH  11  12
ENDBRANCH   7  11
ENDBRANCH   2   5
BRANCH   1  19
HETATM   19  C   UNL     1     -41.912  56.896 -51.643  1.00  0.00     0.121 A 
HETATM   20  N   UNL     1     -41.511  56.308 -50.477  1.00  0.00    -0.272 N 
HETATM   21  N   UNL     1     -41.024  55.070 -50.625  1.00  0.00    -0.174 NA
HETATM   22  H   UNL     1     -41.544  56.715 -49.546  1.00  0.00     0.189 HD
HETATM   23  C   UNL     1     -41.110  54.822 -51.940  1.00  0.00     0.089 A 
HETATM   24  C   UNL     1     -41.664  55.948 -52.616  1.00  0.00     0.071 A 
BRANCH  23  25
HETATM   25  C   UNL     1     -40.655  53.549 -52.511  1.00  0.00    -0.006 A 
HETATM   26  C   UNL     1     -39.957  52.611 -51.738  1.00  0.00     0.014 A 
HETATM   27  C   UNL     1     -39.544  51.394 -52.292  1.00  0.00     0.007 A 
HETATM   28  C   UNL     1     -39.811  51.095 -53.631  1.00  0.00    -0.062 A 
HETATM   29  C   UNL     1     -39.403  49.778 -54.223  1.00  0.00     0.048 C 
HETATM   30  C   UNL     1     -40.510  52.025 -54.407  1.00  0.00     0.007 A 
HETATM   31  C   UNL     1     -40.922  53.241 -53.852  1.00  0.00     0.014 A 
ENDBRANCH  23  25
ENDBRANCH   1  19
TORSDOF 5
ENDMDL
MODEL 6
REMARK VINA RESULT:      -8.0      6.028      9.819
REMARK  5 active torsions:
REMARK  status: ('A' for Active; 'I' for Inactive)
REMARK    1  A    between atoms: C_5  and  C_6 
REMARK    2  A    between atoms: C_10  and  C_11 
REMARK       I    between atoms: C_11  and  N_12 
REMARK    3  A    between atoms: N_12  and  N_13 
REMARK       I    between atoms: N_13  and  C_14 
REMARK       I    between atoms: C_14  and  N_15 
REMARK    4  A    between atoms: N_15  and  C_16 
REMARK    5  A    between atoms: C_16  and  C_17 
ROOT
HETATM    1  C   UNL     1     -44.936  58.310 -51.340  1.00  0.00     0.288 C 
HETATM    2  N   UNL     1     -44.862  59.364 -52.236  1.00  0.00    -0.261 N 
HETATM    3  O   UNL     1     -45.853  58.208 -50.526  1.00  0.00    -0.264 OA
HETATM    4  H   UNL     1     -44.304  59.272 -53.078  1.00  0.00     0.190 HD
ENDROOT
BRANCH   2   5
HETATM    5  N   UNL     1     -45.998  60.180 -52.337  1.00  0.00    -0.249 N 
HETATM    6  C   UNL     1     -46.173  61.341 -51.635  1.00  0.00     0.334 C 
HETATM    7  N   UNL     1     -45.173  61.620 -50.732  1.00  0.00    -0.341 N 
HETATM    8  O   UNL     1     -47.150  62.055 -51.825  1.00  0.00    -0.246 OA
HETATM    9  H   UNL     1     -44.790  60.776 -50.332  1.00  0.00     0.164 HD
HETATM   10  H   UNL     1     -46.742  59.880 -52.965  1.00  0.00     0.192 HD
BRANCH   7  11
HETATM   11  C   UNL     1     -45.354  62.747 -49.837  1.00  0.00     0.129 C 
BRANCH  11  12
HETATM   12  C   UNL     1     -45.659  62.370 -48.381  1.00  0.00     0.004 C 
HETATM   13  C   UNL     1     -45.077  63.384 -47.383  1.00  0.00     0.010 C 
HETATM   14  C   UNL     1     -45.485  63.036 -45.943  1.00  0.00    -0.018 C 
HETATM   15  C   UNL     1     -44.889  64.033 -44.952  1.00  0.00     0.010 C 
HETATM   16  C   UNL     1     -45.069  61.602 -45.588  1.00  0.00     0.004 C 
HETATM   17  C   UNL     1     -45.608  60.587 -46.594  1.00  0.00     0.001 C 
HETATM   18  C   UNL     1     -45.213  60.945 -48.026  1.00  0.00     0.006 C 
ENDBRANCH  11  12
ENDBRANCH   7  11
ENDBRANCH   2   5
BRANCH   1  19
HETATM   19  C   UNL     1     -43.897  57.323 -51.442  1.00  0.00     0.121 A 
HETATM   20  N   UNL     1     -42.798  57.367 -50.631  1.00  0.00    -0.272 N 
HETATM   21  N   UNL     1     -41.910  56.390 -50.854  1.00  0.00    -0.174 NA
HETATM   22  H   UNL     1     -42.602  58.053 -49.907  1.00  0.00     0.189 HD
HETATM   23  C   UNL     1     -42.442  55.664 -51.849  1.00  0.00     0.089 A 
HETATM   24  C   UNL     1     -43.694  56.219 -52.247  1.00  0.00     0.071 A 
BRANCH  23  25
HETATM   25  C   UNL     1     -41.751  54.491 -52.396  1.00  0.00    -0.006 A 
HETATM   26  C   UNL     1     -41.978  54.058 -53.710  1.00  0.00     0.014 A 
HETATM   27  C   UNL     1     -41.299  52.947 -54.223  1.00  0.00     0.007 A 
HETATM   28  C   UNL     1     -40.389  52.240 -53.431  1.00  0.00    -0.062 A 
HETATM   29  C   UNL     1     -39.632  51.070 -53.984  1.00  0.00     0.048 C 
HETATM   30  C   UNL     1     -40.156  52.669 -52.120  1.00  0.00     0.007 A 
HETATM   31  C   UNL     1     -40.836  53.779 -51.609  1.00  0.00     0.014 A 
ENDBRANCH  23  25
ENDBRANCH   1  19
TORSDOF 5
ENDMDL
MODEL 7
REMARK VINA RESULT:      -8.0      2.453      3.393
REMARK  5 active torsions:
REMARK  status: ('A' for Active; 'I' for Inactive)
REMARK    1  A    between atoms: C_5  and  C_6 
REMARK    2  A    between atoms: C_10  and  C_11 
REMARK       I    between atoms: C_11  and  N_12 
REMARK    3  A    between atoms: N_12  and  N_13 
REMARK       I    between atoms: N_13  and  C_14 
REMARK       I    between atoms: C_14  and  N_15 
REMARK    4  A    between atoms: N_15  and  C_16 
REMARK    5  A    between atoms: C_16  and  C_17 
ROOT
HETATM    1  C   UNL     1     -43.298  58.668 -55.769  1.00  0.00     0.288 C 
HETATM    2  N   UNL     1     -42.319  58.189 -54.913  1.00  0.00    -0.261 N 
HETATM    3  O   UNL     1     -44.497  58.564 -55.512  1.00  0.00    -0.264 OA
HETATM    4  H   UNL     1     -41.373  58.550 -54.976  1.00  0.00     0.190 HD
ENDROOT
BRANCH   2   5
HETATM    5  N   UNL     1     -42.743  57.798 -53.635  1.00  0.00    -0.249 N 
HETATM    6  C   UNL     1     -42.757  56.502 -53.195  1.00  0.00     0.334 C 
HETATM    7  N   UNL     1     -42.401  55.572 -54.145  1.00  0.00    -0.341 N 
HETATM    8  O   UNL     1     -43.060  56.228 -52.040  1.00  0.00    -0.246 OA
HETATM    9  H   UNL     1     -42.698  55.854 -55.068  1.00  0.00     0.164 HD
HETATM   10  H   UNL     1     -43.071  58.525 -53.001  1.00  0.00     0.192 HD
BRANCH   7  11
HETATM   11  C   UNL     1     -42.539  54.167 -53.812  1.00  0.00     0.129 C 
BRANCH  11  12
HETATM   12  C   UNL     1     -41.228  53.461 -53.440  1.00  0.00     0.004 C 
HETATM   13  C   UNL     1     -41.100  52.082 -54.106  1.00  0.00     0.010 C 
HETATM   14  C   UNL     1     -39.735  51.447 -53.797  1.00  0.00    -0.018 C 
HETATM   15  C   UNL     1     -39.619  50.068 -54.444  1.00  0.00     0.010 C 
HETATM   16  C   UNL     1     -39.504  51.358 -52.282  1.00  0.00     0.004 C 
HETATM   17  C   UNL     1     -39.668  52.715 -51.602  1.00  0.00     0.001 C 
HETATM   18  C   UNL     1     -41.018  53.351 -51.924  1.00  0.00     0.006 C 
ENDBRANCH  11  12
ENDBRANCH   7  11
ENDBRANCH   2   5
BRANCH   1  19
HETATM   19  C   UNL     1     -42.828  59.324 -56.957  1.00  0.00     0.121 A 
HETATM   20  N   UNL     1     -43.245  58.927 -58.196  1.00  0.00    -0.272 N 
HETATM   21  N   UNL     1     -42.710  59.624 -59.206  1.00  0.00    -0.174 NA
HETATM   22  H   UNL     1     -43.896  58.175 -58.409  1.00  0.00     0.189 HD
HETATM   23  C   UNL     1     -41.910  60.524 -58.616  1.00  0.00     0.089 A 
HETATM   24  C   UNL     1     -41.957  60.368 -57.200  1.00  0.00     0.071 A 
BRANCH  23  25
HETATM   25  C   UNL     1     -41.124  61.482 -59.401  1.00  0.00    -0.006 A 
HETATM   26  C   UNL     1     -41.337  61.644 -60.778  1.00  0.00     0.014 A 
HETATM   27  C   UNL     1     -40.590  62.574 -61.511  1.00  0.00     0.007 A 
HETATM   28  C   UNL     1     -39.610  63.351 -60.886  1.00  0.00    -0.062 A 
HETATM   29  C   UNL     1     -38.830  64.374 -61.658  1.00  0.00     0.048 C 
HETATM   30  C   UNL     1     -39.396  63.196 -59.513  1.00  0.00     0.007 A 
HETATM   31  C   UNL     1     -40.141  62.267 -58.782  1.00  0.00     0.014 A 
ENDBRANCH  23  25
ENDBRANCH   1  19
TORSDOF 5
ENDMDL
MODEL 8
REMARK VINA RESULT:      -7.9      2.221      9.804
REMARK  5 active torsions:
REMARK  status: ('A' for Active; 'I' for Inactive)
REMARK    1  A    between atoms: C_5  and  C_6 
REMARK    2  A    between atoms: C_10  and  C_11 
REMARK       I    between atoms: C_11  and  N_12 
REMARK    3  A    between atoms: N_12  and  N_13 
REMARK       I    between atoms: N_13  and  C_14 
REMARK       I    between atoms: C_14  and  N_15 
REMARK    4  A    between atoms: N_15  and  C_16 
REMARK    5  A    between atoms: C_16  and  C_17 
ROOT
HETATM    1  C   UNL     1     -43.036  56.905 -55.404  1.00  0.00     0.288 C 
HETATM    2  N   UNL     1     -44.052  56.604 -56.297  1.00  0.00    -0.261 N 
HETATM    3  O   UNL     1     -42.889  58.035 -54.939  1.00  0.00    -0.264 OA
HETATM    4  H   UNL     1     -44.348  55.641 -56.419  1.00  0.00     0.190 HD
ENDROOT
BRANCH   2   5
HETATM    5  N   UNL     1     -45.047  57.579 -56.463  1.00  0.00    -0.249 N 
HETATM    6  C   UNL     1     -45.298  58.224 -57.643  1.00  0.00     0.334 C 
HETATM    7  N   UNL     1     -44.429  57.911 -58.663  1.00  0.00    -0.341 N 
HETATM    8  O   UNL     1     -46.234  59.007 -57.751  1.00  0.00    -0.246 OA
HETATM    9  H   UNL     1     -43.500  57.723 -58.313  1.00  0.00     0.164 HD
HETATM   10  H   UNL     1     -45.608  57.826 -55.650  1.00  0.00     0.192 HD
BRANCH   7  11
HETATM   11  C   UNL     1     -44.524  58.663 -59.899  1.00  0.00     0.129 C 
BRANCH  11  12
HETATM   12  C   UNL     1     -43.259  59.444 -60.278  1.00  0.00     0.004 C 
HETATM   13  C   UNL     1     -42.723  60.286 -59.109  1.00  0.00     0.010 C 
HETATM   14  C   UNL     1     -41.402  60.974 -59.487  1.00  0.00    -0.018 C 
HETATM   15  C   UNL     1     -40.882  61.825 -58.331  1.00  0.00     0.010 C 
HETATM   16  C   UNL     1     -41.570  61.823 -60.755  1.00  0.00     0.004 C 
HETATM   17  C   UNL     1     -42.141  61.007 -61.914  1.00  0.00     0.001 C 
HETATM   18  C   UNL     1     -43.445  60.312 -61.529  1.00  0.00     0.006 C 
ENDBRANCH  11  12
ENDBRANCH   7  11
ENDBRANCH   2   5
BRANCH   1  19
HETATM   19  C   UNL     1     -42.186  55.810 -55.026  1.00  0.00     0.121 A 
HETATM   20  N   UNL     1     -41.188  55.373 -55.851  1.00  0.00    -0.272 N 
HETATM   21  N   UNL     1     -40.491  54.337 -55.368  1.00  0.00    -0.174 NA
HETATM   22  H   UNL     1     -40.942  55.748 -56.763  1.00  0.00     0.189 HD
HETATM   23  C   UNL     1     -41.043  54.078 -54.173  1.00  0.00     0.089 A 
HETATM   24  C   UNL     1     -42.114  54.985 -53.921  1.00  0.00     0.071 A 
BRANCH  23  25
HETATM   25  C   UNL     1     -40.557  52.985 -53.325  1.00  0.00    -0.006 A 
HETATM   26  C   UNL     1     -40.522  53.106 -51.929  1.00  0.00     0.014 A 
HETATM   27  C   UNL     1     -40.070  52.048 -51.131  1.00  0.00     0.007 A 
HETATM   28  C   UNL     1     -39.634  50.853 -51.713  1.00  0.00    -0.062 A 
HETATM   29  C   UNL     1     -39.181  49.703 -50.864  1.00  0.00     0.048 C 
HETATM   30  C   UNL     1     -39.669  50.726 -53.105  1.00  0.00     0.007 A 
HETATM   31  C   UNL     1     -40.120  51.783 -53.901  1.00  0.00     0.014 A 
ENDBRANCH  23  25
ENDBRANCH   1  19
TORSDOF 5
ENDMDL
MODEL 9
REMARK VINA RESULT:      -7.8      1.854      2.552
REMARK  5 active torsions:
REMARK  status: ('A' for Active; 'I' for Inactive)
REMARK    1  A    between atoms: C_5  and  C_6 
REMARK    2  A    between atoms: C_10  and  C_11 
REMARK       I    between atoms: C_11  and  N_12 
REMARK    3  A    between atoms: N_12  and  N_13 
REMARK       I    between atoms: N_13  and  C_14 
REMARK       I    between atoms: C_14  and  N_15 
REMARK    4  A    between atoms: N_15  and  C_16 
REMARK    5  A    between atoms: C_16  and  C_17 
ROOT
HETATM    1  C   UNL     1     -43.646  56.490 -54.927  1.00  0.00     0.288 C 
HETATM    2  N   UNL     1     -43.911  57.426 -53.940  1.00  0.00    -0.261 N 
HETATM    3  O   UNL     1     -43.769  55.282 -54.730  1.00  0.00    -0.264 OA
HETATM    4  H   UNL     1     -44.109  58.388 -54.197  1.00  0.00     0.190 HD
ENDROOT
BRANCH   2   5
HETATM    5  N   UNL     1     -44.553  56.953 -52.786  1.00  0.00    -0.249 N 
HETATM    6  C   UNL     1     -43.945  56.826 -51.568  1.00  0.00     0.334 C 
HETATM    7  N   UNL     1     -42.600  57.118 -51.567  1.00  0.00    -0.341 N 
HETATM    8  O   UNL     1     -44.578  56.486 -50.575  1.00  0.00    -0.246 OA
HETATM    9  H   UNL     1     -42.165  56.859 -52.440  1.00  0.00     0.164 HD
HETATM   10  H   UNL     1     -45.531  56.678 -52.867  1.00  0.00     0.192 HD
BRANCH   7  11
HETATM   11  C   UNL     1     -41.844  56.861 -50.356  1.00  0.00     0.129 C 
BRANCH  11  12
HETATM   12  C   UNL     1     -40.996  55.583 -50.385  1.00  0.00     0.004 C 
HETATM   13  C   UNL     1     -41.184  54.788 -51.687  1.00  0.00     0.010 C 
HETATM   14  C   UNL     1     -40.247  53.571 -51.729  1.00  0.00    -0.018 C 
HETATM   15  C   UNL     1     -40.451  52.772 -53.015  1.00  0.00     0.010 C 
HETATM   16  C   UNL     1     -40.453  52.679 -50.497  1.00  0.00     0.004 C 
HETATM   17  C   UNL     1     -40.308  53.465 -49.196  1.00  0.00     0.001 C 
HETATM   18  C   UNL     1     -41.229  54.682 -49.164  1.00  0.00     0.006 C 
ENDBRANCH  11  12
ENDBRANCH   7  11
ENDBRANCH   2   5
BRANCH   1  19
HETATM   19  C   UNL     1     -43.253  57.017 -56.204  1.00  0.00     0.121 A 
HETATM   20  N   UNL     1     -43.076  56.197 -57.283  1.00  0.00    -0.272 N 
HETATM   21  N   UNL     1     -42.697  56.831 -58.399  1.00  0.00    -0.174 NA
HETATM   22  H   UNL     1     -43.199  55.188 -57.308  1.00  0.00     0.189 HD
HETATM   23  C   UNL     1     -42.622  58.124 -58.051  1.00  0.00     0.089 A 
HETATM   24  C   UNL     1     -42.965  58.283 -56.676  1.00  0.00     0.071 A 
BRANCH  23  25
HETATM   25  C   UNL     1     -42.219  59.155 -59.013  1.00  0.00    -0.006 A 
HETATM   26  C   UNL     1     -42.272  58.923 -60.395  1.00  0.00     0.014 A 
HETATM   27  C   UNL     1     -41.899  59.922 -61.302  1.00  0.00     0.007 A 
HETATM   28  C   UNL     1     -41.456  61.168 -60.847  1.00  0.00    -0.062 A 
HETATM   29  C   UNL     1     -41.088  62.255 -61.812  1.00  0.00     0.048 C 
HETATM   30  C   UNL     1     -41.404  61.406 -59.470  1.00  0.00     0.007 A 
HETATM   31  C   UNL     1     -41.776  60.407 -58.565  1.00  0.00     0.014 A 
ENDBRANCH  23  25
ENDBRANCH   1  19
TORSDOF 5
ENDMDL
MODEL 10
REMARK VINA RESULT:      -7.7      3.105      8.755
REMARK  5 active torsions:
REMARK  status: ('A' for Active; 'I' for Inactive)
REMARK    1  A    between atoms: C_5  and  C_6 
REMARK    2  A    between atoms: C_10  and  C_11 
REMARK       I    between atoms: C_11  and  N_12 
REMARK    3  A    between atoms: N_12  and  N_13 
REMARK       I    between atoms: N_13  and  C_14 
REMARK       I    between atoms: C_14  and  N_15 
REMARK    4  A    between atoms: N_15  and  C_16 
REMARK    5  A    between atoms: C_16  and  C_17 
ROOT
HETATM    1  C   UNL     1     -42.033  58.183 -51.151  1.00  0.00     0.288 C 
HETATM    2  N   UNL     1     -43.388  58.397 -50.956  1.00  0.00    -0.261 N 
HETATM    3  O   UNL     1     -41.228  59.111 -51.211  1.00  0.00    -0.264 OA
HETATM    4  H   UNL     1     -43.971  57.647 -50.601  1.00  0.00     0.190 HD
ENDROOT
BRANCH   2   5
HETATM    5  N   UNL     1     -43.769  59.697 -50.592  1.00  0.00    -0.249 N 
HETATM    6  C   UNL     1     -44.375  60.583 -51.440  1.00  0.00     0.334 C 
HETATM    7  N   UNL     1     -44.512  60.135 -52.734  1.00  0.00    -0.341 N 
HETATM    8  O   UNL     1     -44.761  61.676 -51.044  1.00  0.00    -0.246 OA
HETATM    9  H   UNL     1     -43.741  59.541 -53.002  1.00  0.00     0.164 HD
HETATM   10  H   UNL     1     -43.571  59.999 -49.640  1.00  0.00     0.192 HD
BRANCH   7  11
HETATM   11  C   UNL     1     -45.000  61.067 -53.732  1.00  0.00     0.129 C 
BRANCH  11  12
HETATM   12  C   UNL     1     -44.518  60.789 -55.163  1.00  0.00     0.004 C 
HETATM   13  C   UNL     1     -44.346  59.287 -55.439  1.00  0.00     0.010 C 
HETATM   14  C   UNL     1     -43.963  59.037 -56.905  1.00  0.00    -0.018 C 
HETATM   15  C   UNL     1     -43.773  57.545 -57.171  1.00  0.00     0.010 C 
HETATM   16  C   UNL     1     -42.698  59.821 -57.281  1.00  0.00     0.004 C 
HETATM   17  C   UNL     1     -42.840  61.311 -56.975  1.00  0.00     0.001 C 
HETATM   18  C   UNL     1     -43.236  61.554 -55.520  1.00  0.00     0.006 C 
ENDBRANCH  11  12
ENDBRANCH   7  11
ENDBRANCH   2   5
BRANCH   1  19
HETATM   19  C   UNL     1     -41.620  56.810 -51.243  1.00  0.00     0.121 A 
HETATM   20  N   UNL     1     -41.335  56.081 -50.123  1.00  0.00    -0.272 N 
HETATM   21  N   UNL     1     -40.950  54.823 -50.368  1.00  0.00    -0.174 NA
HETATM   22  H   UNL     1     -41.383  56.401 -49.159  1.00  0.00     0.189 HD
HETATM   23  C   UNL     1     -40.986  54.708 -51.704  1.00  0.00     0.089 A 
HETATM   24  C   UNL     1     -41.404  55.938 -52.292  1.00  0.00     0.071 A 
BRANCH  23  25
HETATM   25  C   UNL     1     -40.614  53.458 -52.376  1.00  0.00    -0.006 A 
HETATM   26  C   UNL     1     -40.989  53.203 -53.703  1.00  0.00     0.014 A 
HETATM   27  C   UNL     1     -40.613  52.012 -54.336  1.00  0.00     0.007 A 
HETATM   28  C   UNL     1     -39.864  51.049 -53.653  1.00  0.00    -0.062 A 
HETATM   29  C   UNL     1     -39.428  49.786 -54.335  1.00  0.00     0.048 C 
HETATM   30  C   UNL     1     -39.485  51.298 -52.330  1.00  0.00     0.007 A 
HETATM   31  C   UNL     1     -39.862  52.488 -51.699  1.00  0.00     0.014 A 
ENDBRANCH  23  25
ENDBRANCH   1  19
TORSDOF 5
ENDMDL
