MODEL 1
REMARK VINA RESULT:      -8.1      0.000      0.000
REMARK  2 active torsions:
REMARK  status: ('A' for Active; 'I' for Inactive)
REMARK    1  A    between atoms: C_9  and  O_10 
REMARK    2  A    between atoms: C_9  and  C_11 
ROOT
HETATM    1  C   UNL     1     -39.845  51.236 -52.593  1.00  0.00     0.048 C 
HETATM    2  C   UNL     1     -40.335  52.381 -53.432  1.00  0.00    -0.061 A 
HETATM    3  C   UNL     1     -41.381  53.200 -52.980  1.00  0.00     0.020 A 
HETATM    4  C   UNL     1     -41.792  54.257 -53.780  1.00  0.00     0.018 A 
HETATM    5  C   UNL     1     -41.185  54.481 -55.016  1.00  0.00     0.045 A 
HETATM    6  N   UNL     1     -41.770  55.564 -55.655  1.00  0.00    -0.323 N 
HETATM    7  C   UNL     1     -42.789  56.126 -54.882  1.00  0.00     0.266 A 
HETATM    8  O   UNL     1     -43.467  57.077 -55.238  1.00  0.00    -0.269 OA
HETATM    9  C   UNL     1     -42.897  55.273 -53.566  1.00  0.00     0.199 A 
HETATM   10  C   UNL     1     -40.157  53.696 -55.491  1.00  0.00     0.031 A 
HETATM   11  C   UNL     1     -39.730  52.638 -54.684  1.00  0.00     0.009 A 
HETATM   12  H   UNL     1     -41.513  55.928 -56.560  1.00  0.00     0.169 HD
ENDROOT
BRANCH   9  13
HETATM   13  O   UNL     1     -44.153  54.605 -53.512  1.00  0.00    -0.371 OA
HETATM   14  H   UNL     1     -44.676  54.942 -54.256  1.00  0.00     0.212 HD
ENDBRANCH   9  13
BRANCH   9  15
HETATM   15  C   UNL     1     -42.542  56.033 -52.303  1.00  0.00     0.025 A 
HETATM   16  C   UNL     1     -41.605  57.133 -52.217  1.00  0.00     0.003 A 
HETATM   17  C   UNL     1     -41.584  57.576 -50.896  1.00  0.00     0.043 A 
HETATM   18  C   UNL     1     -40.778  57.805 -53.145  1.00  0.00     0.014 A 
HETATM   19  C   UNL     1     -40.791  58.645 -50.457  1.00  0.00     0.030 A 
HETATM   20  N   UNL     1     -42.449  56.781 -50.193  1.00  0.00    -0.359 N 
HETATM   21  C   UNL     1     -39.987  59.289 -51.400  1.00  0.00     0.002 A 
HETATM   22  C   UNL     1     -39.979  58.877 -52.728  1.00  0.00     0.001 A 
HETATM   23  H   UNL     1     -42.624  56.876 -49.202  1.00  0.00     0.166 HD
HETATM   24  C   UNL     1     -43.051  55.862 -51.014  1.00  0.00     0.016 A 
HETATM   25  C   UNL     1     -44.059  54.918 -50.458  1.00  0.00     0.069 C 
ENDBRANCH   9  15
TORSDOF 2
ENDMDL
MODEL 2
REMARK VINA RESULT:      -8.1      1.626      5.607
REMARK  2 active torsions:
REMARK  status: ('A' for Active; 'I' for Inactive)
REMARK    1  A    between atoms: C_9  and  O_10 
REMARK    2  A    between atoms: C_9  and  C_11 
ROOT
HETATM    1  C   UNL     1     -41.725  59.915 -53.951  1.00  0.00     0.048 C 
HETATM    2  C   UNL     1     -41.599  58.954 -52.804  1.00  0.00    -0.061 A 
HETATM    3  C   UNL     1     -42.300  57.739 -52.812  1.00  0.00     0.020 A 
HETATM    4  C   UNL     1     -42.142  56.873 -51.739  1.00  0.00     0.018 A 
HETATM    5  C   UNL     1     -41.316  57.221 -50.670  1.00  0.00     0.045 A 
HETATM    6  N   UNL     1     -41.330  56.228 -49.702  1.00  0.00    -0.323 N 
HETATM    7  C   UNL     1     -42.156  55.164 -50.072  1.00  0.00     0.266 A 
HETATM    8  O   UNL     1     -42.350  54.179 -49.377  1.00  0.00    -0.269 OA
HETATM    9  C   UNL     1     -42.785  55.527 -51.467  1.00  0.00     0.199 A 
HETATM   10  C   UNL     1     -40.613  58.406 -50.631  1.00  0.00     0.031 A 
HETATM   11  C   UNL     1     -40.759  59.276 -51.714  1.00  0.00     0.009 A 
HETATM   12  H   UNL     1     -40.817  56.239 -48.834  1.00  0.00     0.169 HD
ENDROOT
BRANCH   9  13
HETATM   13  O   UNL     1     -44.195  55.690 -51.345  1.00  0.00    -0.371 OA
HETATM   14  H   UNL     1     -44.476  55.114 -50.617  1.00  0.00     0.212 HD
ENDBRANCH   9  13
BRANCH   9  15
HETATM   15  C   UNL     1     -42.360  54.612 -52.597  1.00  0.00     0.025 A 
HETATM   16  C   UNL     1     -41.309  53.620 -52.528  1.00  0.00     0.003 A 
HETATM   17  C   UNL     1     -41.251  52.970 -53.760  1.00  0.00     0.043 A 
HETATM   18  C   UNL     1     -40.404  53.203 -51.526  1.00  0.00     0.014 A 
HETATM   19  C   UNL     1     -40.349  51.934 -54.040  1.00  0.00     0.030 A 
HETATM   20  N   UNL     1     -42.205  53.540 -54.559  1.00  0.00    -0.359 N 
HETATM   21  C   UNL     1     -39.470  51.545 -53.026  1.00  0.00     0.002 A 
HETATM   22  C   UNL     1     -39.496  52.169 -51.784  1.00  0.00     0.001 A 
HETATM   23  H   UNL     1     -42.378  53.264 -55.516  1.00  0.00     0.166 HD
HETATM   24  C   UNL     1     -42.897  54.512 -53.883  1.00  0.00     0.016 A 
HETATM   25  C   UNL     1     -44.008  55.237 -54.558  1.00  0.00     0.069 C 
ENDBRANCH   9  15
TORSDOF 2
ENDMDL
MODEL 3
REMARK VINA RESULT:      -7.9      2.691      3.772
REMARK  2 active torsions:
REMARK  status: ('A' for Active; 'I' for Inactive)
REMARK    1  A    between atoms: C_9  and  O_10 
REMARK    2  A    between atoms: C_9  and  C_11 
ROOT
HETATM    1  C   UNL     1     -40.508  53.931 -55.390  1.00  0.00     0.048 C 
HETATM    2  C   UNL     1     -40.533  53.807 -53.893  1.00  0.00    -0.061 A 
HETATM    3  C   UNL     1     -40.865  54.910 -53.092  1.00  0.00     0.020 A 
HETATM    4  C   UNL     1     -40.890  54.747 -51.714  1.00  0.00     0.018 A 
HETATM    5  C   UNL     1     -40.573  53.513 -51.145  1.00  0.00     0.045 A 
HETATM    6  N   UNL     1     -40.633  53.586 -49.762  1.00  0.00    -0.323 N 
HETATM    7  C   UNL     1     -41.000  54.863 -49.332  1.00  0.00     0.266 A 
HETATM    8  O   UNL     1     -41.102  55.184 -48.158  1.00  0.00    -0.269 OA
HETATM    9  C   UNL     1     -41.182  55.752 -50.616  1.00  0.00     0.199 A 
HETATM   10  C   UNL     1     -40.243  52.411 -51.903  1.00  0.00     0.031 A 
HETATM   11  C   UNL     1     -40.227  52.565 -53.291  1.00  0.00     0.009 A 
HETATM   12  H   UNL     1     -40.447  52.832 -49.120  1.00  0.00     0.169 HD
ENDROOT
BRANCH   9  13
HETATM   13  O   UNL     1     -40.201  56.784 -50.645  1.00  0.00    -0.371 OA
HETATM   14  H   UNL     1     -40.630  57.560 -51.040  1.00  0.00     0.212 HD
ENDBRANCH   9  13
BRANCH   9  15
HETATM   15  C   UNL     1     -42.600  56.235 -50.842  1.00  0.00     0.025 A 
HETATM   16  C   UNL     1     -42.985  57.587 -51.190  1.00  0.00     0.003 A 
HETATM   17  C   UNL     1     -44.370  57.613 -51.340  1.00  0.00     0.043 A 
HETATM   18  C   UNL     1     -42.281  58.793 -51.404  1.00  0.00     0.014 A 
HETATM   19  C   UNL     1     -45.082  58.768 -51.691  1.00  0.00     0.030 A 
HETATM   20  N   UNL     1     -44.826  56.348 -51.082  1.00  0.00    -0.359 N 
HETATM   21  C   UNL     1     -44.356  59.943 -51.898  1.00  0.00     0.002 A 
HETATM   22  C   UNL     1     -42.973  59.958 -51.757  1.00  0.00     0.001 A 
HETATM   23  H   UNL     1     -45.800  56.082 -51.111  1.00  0.00     0.166 HD
HETATM   24  C   UNL     1     -43.786  55.498 -50.801  1.00  0.00     0.016 A 
HETATM   25  C   UNL     1     -44.056  54.061 -50.525  1.00  0.00     0.069 C 
ENDBRANCH   9  15
TORSDOF 2
ENDMDL
MODEL 4
REMARK VINA RESULT:      -7.9      1.712      5.185
REMARK  2 active torsions:
REMARK  status: ('A' for Active; 'I' for Inactive)
REMARK    1  A    between atoms: C_9  and  O_10 
REMARK    2  A    between atoms: C_9  and  C_11 
ROOT
HETATM    1  C   UNL     1     -38.972  59.528 -50.518  1.00  0.00     0.048 C 
HETATM    2  C   UNL     1     -40.388  59.397 -51.000  1.00  0.00    -0.061 A 
HETATM    3  C   UNL     1     -40.721  58.459 -51.989  1.00  0.00     0.020 A 
HETATM    4  C   UNL     1     -42.045  58.361 -52.394  1.00  0.00     0.018 A 
HETATM    5  C   UNL     1     -43.015  59.195 -51.837  1.00  0.00     0.045 A 
HETATM    6  N   UNL     1     -44.254  58.947 -52.407  1.00  0.00    -0.323 N 
HETATM    7  C   UNL     1     -44.184  57.933 -53.365  1.00  0.00     0.266 A 
HETATM    8  O   UNL     1     -45.139  57.547 -54.021  1.00  0.00    -0.269 OA
HETATM    9  C   UNL     1     -42.682  57.474 -53.446  1.00  0.00     0.199 A 
HETATM   10  C   UNL     1     -42.722  60.127 -50.865  1.00  0.00     0.031 A 
HETATM   11  C   UNL     1     -41.393  60.222 -50.444  1.00  0.00     0.009 A 
HETATM   12  H   UNL     1     -45.117  59.416 -52.178  1.00  0.00     0.169 HD
ENDROOT
BRANCH   9  13
HETATM   13  O   UNL     1     -42.138  57.787 -54.724  1.00  0.00    -0.371 OA
HETATM   14  H   UNL     1     -41.515  58.518 -54.586  1.00  0.00     0.212 HD
ENDBRANCH   9  13
BRANCH   9  15
HETATM   15  C   UNL     1     -42.445  56.045 -53.002  1.00  0.00     0.025 A 
HETATM   16  C   UNL     1     -41.595  55.083 -53.673  1.00  0.00     0.003 A 
HETATM   17  C   UNL     1     -41.620  53.901 -52.936  1.00  0.00     0.043 A 
HETATM   18  C   UNL     1     -40.793  55.112 -54.836  1.00  0.00     0.014 A 
HETATM   19  C   UNL     1     -40.892  52.758 -53.294  1.00  0.00     0.030 A 
HETATM   20  N   UNL     1     -42.456  54.109 -51.872  1.00  0.00    -0.359 N 
HETATM   21  C   UNL     1     -40.108  52.820 -54.448  1.00  0.00     0.002 A 
HETATM   22  C   UNL     1     -40.057  53.981 -55.211  1.00  0.00     0.001 A 
HETATM   23  H   UNL     1     -42.665  53.409 -51.173  1.00  0.00     0.166 HD
HETATM   24  C   UNL     1     -42.947  55.389 -51.875  1.00  0.00     0.016 A 
HETATM   25  C   UNL     1     -43.851  55.840 -50.782  1.00  0.00     0.069 C 
ENDBRANCH   9  15
TORSDOF 2
ENDMDL
MODEL 5
REMARK VINA RESULT:      -7.7     15.420     17.185
REMARK  2 active torsions:
REMARK  status: ('A' for Active; 'I' for Inactive)
REMARK    1  A    between atoms: C_9  and  O_10 
REMARK    2  A    between atoms: C_9  and  C_11 
ROOT
HETATM    1  C   UNL     1     -30.716  39.235 -56.589  1.00  0.00     0.048 C 
HETATM    2  C   UNL     1     -31.685  39.733 -55.556  1.00  0.00    -0.061 A 
HETATM    3  C   UNL     1     -32.858  40.400 -55.942  1.00  0.00     0.020 A 
HETATM    4  C   UNL     1     -33.734  40.830 -54.955  1.00  0.00     0.018 A 
HETATM    5  C   UNL     1     -33.437  40.616 -53.609  1.00  0.00     0.045 A 
HETATM    6  N   UNL     1     -34.430  41.151 -52.802  1.00  0.00    -0.323 N 
HETATM    7  C   UNL     1     -35.443  41.741 -53.560  1.00  0.00     0.266 A 
HETATM    8  O   UNL     1     -36.417  42.299 -53.078  1.00  0.00    -0.269 OA
HETATM    9  C   UNL     1     -35.041  41.589 -55.072  1.00  0.00     0.199 A 
HETATM   10  C   UNL     1     -32.295  39.965 -53.196  1.00  0.00     0.031 A 
HETATM   11  C   UNL     1     -31.415  39.519 -54.185  1.00  0.00     0.009 A 
HETATM   12  H   UNL     1     -34.450  41.129 -51.794  1.00  0.00     0.169 HD
ENDROOT
BRANCH   9  13
HETATM   13  O   UNL     1     -34.797  42.868 -55.650  1.00  0.00    -0.371 OA
HETATM   14  H   UNL     1     -34.516  42.708 -56.565  1.00  0.00     0.212 HD
ENDBRANCH   9  13
BRANCH   9  15
HETATM   15  C   UNL     1     -35.976  40.711 -55.878  1.00  0.00     0.025 A 
HETATM   16  C   UNL     1     -36.545  41.045 -57.167  1.00  0.00     0.003 A 
HETATM   17  C   UNL     1     -37.321  39.966 -57.587  1.00  0.00     0.043 A 
HETATM   18  C   UNL     1     -36.461  42.163 -58.027  1.00  0.00     0.014 A 
HETATM   19  C   UNL     1     -38.010  39.944 -58.807  1.00  0.00     0.030 A 
HETATM   20  N   UNL     1     -37.255  39.018 -56.602  1.00  0.00    -0.359 N 
HETATM   21  C   UNL     1     -37.905  41.065 -59.634  1.00  0.00     0.002 A 
HETATM   22  C   UNL     1     -37.141  42.161 -59.252  1.00  0.00     0.001 A 
HETATM   23  H   UNL     1     -37.734  38.129 -56.640  1.00  0.00     0.166 HD
HETATM   24  C   UNL     1     -36.441  39.428 -55.577  1.00  0.00     0.016 A 
HETATM   25  C   UNL     1     -36.199  38.530 -54.415  1.00  0.00     0.069 C 
ENDBRANCH   9  15
TORSDOF 2
ENDMDL
MODEL 6
REMARK VINA RESULT:      -7.5      2.034      5.178
REMARK  2 active torsions:
REMARK  status: ('A' for Active; 'I' for Inactive)
REMARK    1  A    between atoms: C_9  and  O_10 
REMARK    2  A    between atoms: C_9  and  C_11 
ROOT
HETATM    1  C   UNL     1     -38.883  59.811 -50.515  1.00  0.00     0.048 C 
HETATM    2  C   UNL     1     -40.203  59.269 -50.983  1.00  0.00    -0.061 A 
HETATM    3  C   UNL     1     -40.252  58.243 -51.939  1.00  0.00     0.020 A 
HETATM    4  C   UNL     1     -41.493  57.760 -52.333  1.00  0.00     0.018 A 
HETATM    5  C   UNL     1     -42.661  58.303 -51.797  1.00  0.00     0.045 A 
HETATM    6  N   UNL     1     -43.777  57.694 -52.350  1.00  0.00    -0.323 N 
HETATM    7  C   UNL     1     -43.419  56.711 -53.276  1.00  0.00     0.266 A 
HETATM    8  O   UNL     1     -44.224  56.049 -53.913  1.00  0.00    -0.269 OA
HETATM    9  C   UNL     1     -41.848  56.695 -53.352  1.00  0.00     0.199 A 
HETATM   10  C   UNL     1     -42.648  59.310 -50.857  1.00  0.00     0.031 A 
HETATM   11  C   UNL     1     -41.402  59.792 -50.448  1.00  0.00     0.009 A 
HETATM   12  H   UNL     1     -44.738  57.907 -52.132  1.00  0.00     0.169 HD
ENDROOT
BRANCH   9  13
HETATM   13  O   UNL     1     -41.411  57.108 -54.642  1.00  0.00    -0.371 OA
HETATM   14  H   UNL     1     -40.726  56.477 -54.916  1.00  0.00     0.212 HD
ENDBRANCH   9  13
BRANCH   9  15
HETATM   15  C   UNL     1     -41.216  55.407 -52.864  1.00  0.00     0.025 A 
HETATM   16  C   UNL     1     -41.129  54.981 -51.483  1.00  0.00     0.003 A 
HETATM   17  C   UNL     1     -40.510  53.733 -51.456  1.00  0.00     0.043 A 
HETATM   18  C   UNL     1     -41.533  55.537 -50.247  1.00  0.00     0.014 A 
HETATM   19  C   UNL     1     -40.276  53.017 -50.275  1.00  0.00     0.030 A 
HETATM   20  N   UNL     1     -40.210  53.407 -52.752  1.00  0.00    -0.359 N 
HETATM   21  C   UNL     1     -40.689  53.593 -49.071  1.00  0.00     0.002 A 
HETATM   22  C   UNL     1     -41.310  54.837 -49.055  1.00  0.00     0.001 A 
HETATM   23  H   UNL     1     -39.746  52.552 -53.026  1.00  0.00     0.166 HD
HETATM   24  C   UNL     1     -40.640  54.382 -53.617  1.00  0.00     0.016 A 
HETATM   25  C   UNL     1     -40.446  54.211 -55.083  1.00  0.00     0.069 C 
ENDBRANCH   9  15
TORSDOF 2
ENDMDL
MODEL 7
REMARK VINA RESULT:      -7.4      2.489      5.042
REMARK  2 active torsions:
REMARK  status: ('A' for Active; 'I' for Inactive)
REMARK    1  A    between atoms: C_9  and  O_10 
REMARK    2  A    between atoms: C_9  and  C_11 
ROOT
HETATM    1  C   UNL     1     -45.570  58.205 -56.036  1.00  0.00     0.048 C 
HETATM    2  C   UNL     1     -44.340  58.418 -55.201  1.00  0.00    -0.061 A 
HETATM    3  C   UNL     1     -44.160  57.709 -54.004  1.00  0.00     0.020 A 
HETATM    4  C   UNL     1     -43.001  57.925 -53.271  1.00  0.00     0.018 A 
HETATM    5  C   UNL     1     -42.049  58.842 -53.715  1.00  0.00     0.045 A 
HETATM    6  N   UNL     1     -40.993  58.918 -52.819  1.00  0.00    -0.323 N 
HETATM    7  C   UNL     1     -41.177  58.054 -51.737  1.00  0.00     0.266 A 
HETATM    8  O   UNL     1     -40.394  57.955 -50.804  1.00  0.00    -0.269 OA
HETATM    9  C   UNL     1     -42.557  57.332 -51.947  1.00  0.00     0.199 A 
HETATM   10  C   UNL     1     -42.194  59.554 -54.885  1.00  0.00     0.031 A 
HETATM   11  C   UNL     1     -43.353  59.333 -55.633  1.00  0.00     0.009 A 
HETATM   12  H   UNL     1     -40.180  59.508 -52.909  1.00  0.00     0.169 HD
ENDROOT
BRANCH   9  13
HETATM   13  O   UNL     1     -43.474  57.712 -50.926  1.00  0.00    -0.371 OA
HETATM   14  H   UNL     1     -43.509  58.682 -50.934  1.00  0.00     0.212 HD
ENDBRANCH   9  13
BRANCH   9  15
HETATM   15  C   UNL     1     -42.449  55.836 -52.162  1.00  0.00     0.025 A 
HETATM   16  C   UNL     1     -41.617  55.185 -53.152  1.00  0.00     0.003 A 
HETATM   17  C   UNL     1     -41.775  53.808 -53.005  1.00  0.00     0.043 A 
HETATM   18  C   UNL     1     -40.730  55.638 -54.154  1.00  0.00     0.014 A 
HETATM   19  C   UNL     1     -41.100  52.869 -53.798  1.00  0.00     0.030 A 
HETATM   20  N   UNL     1     -42.673  53.613 -51.990  1.00  0.00    -0.359 N 
HETATM   21  C   UNL     1     -40.229  53.351 -54.778  1.00  0.00     0.002 A 
HETATM   22  C   UNL     1     -40.045  54.717 -54.956  1.00  0.00     0.001 A 
HETATM   23  H   UNL     1     -42.980  52.702 -51.675  1.00  0.00     0.166 HD
HETATM   24  C   UNL     1     -43.077  54.809 -51.454  1.00  0.00     0.016 A 
HETATM   25  C   UNL     1     -44.028  54.825 -50.309  1.00  0.00     0.069 C 
ENDBRANCH   9  15
TORSDOF 2
ENDMDL
MODEL 8
REMARK VINA RESULT:      -7.3      2.396      4.012
REMARK  2 active torsions:
REMARK  status: ('A' for Active; 'I' for Inactive)
REMARK    1  A    between atoms: C_9  and  O_10 
REMARK    2  A    between atoms: C_9  and  C_11 
ROOT
HETATM    1  C   UNL     1     -40.736  52.260 -54.318  1.00  0.00     0.048 C 
HETATM    2  C   UNL     1     -40.759  53.296 -53.232  1.00  0.00    -0.061 A 
HETATM    3  C   UNL     1     -41.078  54.630 -53.527  1.00  0.00     0.020 A 
HETATM    4  C   UNL     1     -41.103  55.553 -52.490  1.00  0.00     0.018 A 
HETATM    5  C   UNL     1     -40.797  55.156 -51.188  1.00  0.00     0.045 A 
HETATM    6  N   UNL     1     -40.855  56.239 -50.324  1.00  0.00    -0.323 N 
HETATM    7  C   UNL     1     -41.207  57.412 -50.995  1.00  0.00     0.266 A 
HETATM    8  O   UNL     1     -41.303  58.503 -50.456  1.00  0.00    -0.269 OA
HETATM    9  C   UNL     1     -41.381  57.043 -52.514  1.00  0.00     0.199 A 
HETATM   10  C   UNL     1     -40.480  53.855 -50.864  1.00  0.00     0.031 A 
HETATM   11  C   UNL     1     -40.465  52.919 -51.902  1.00  0.00     0.009 A 
HETATM   12  H   UNL     1     -40.675  56.217 -49.332  1.00  0.00     0.169 HD
ENDROOT
BRANCH   9  13
HETATM   13  O   UNL     1     -40.390  57.699 -53.298  1.00  0.00    -0.371 OA
HETATM   14  H   UNL     1     -39.697  57.041 -53.471  1.00  0.00     0.212 HD
ENDBRANCH   9  13
BRANCH   9  15
HETATM   15  C   UNL     1     -42.795  57.207 -53.035  1.00  0.00     0.025 A 
HETATM   16  C   UNL     1     -43.158  57.551 -54.393  1.00  0.00     0.003 A 
HETATM   17  C   UNL     1     -44.550  57.571 -54.473  1.00  0.00     0.043 A 
HETATM   18  C   UNL     1     -42.432  57.836 -55.571  1.00  0.00     0.014 A 
HETATM   19  C   UNL     1     -45.246  57.857 -55.655  1.00  0.00     0.030 A 
HETATM   20  N   UNL     1     -45.027  57.274 -53.225  1.00  0.00    -0.359 N 
HETATM   21  C   UNL     1     -44.498  58.131 -56.802  1.00  0.00     0.002 A 
HETATM   22  C   UNL     1     -43.109  58.122 -56.763  1.00  0.00     0.001 A 
HETATM   23  H   UNL     1     -46.010  57.227 -52.993  1.00  0.00     0.166 HD
HETATM   24  C   UNL     1     -44.000  57.031 -52.350  1.00  0.00     0.016 A 
HETATM   25  C   UNL     1     -44.298  56.652 -50.941  1.00  0.00     0.069 C 
ENDBRANCH   9  15
TORSDOF 2
ENDMDL
MODEL 9
REMARK VINA RESULT:      -7.1     15.056     16.818
REMARK  2 active torsions:
REMARK  status: ('A' for Active; 'I' for Inactive)
REMARK    1  A    between atoms: C_9  and  O_10 
REMARK    2  A    between atoms: C_9  and  C_11 
ROOT
HETATM    1  C   UNL     1     -31.965  40.418 -51.450  1.00  0.00     0.048 C 
HETATM    2  C   UNL     1     -33.463  40.383 -51.350  1.00  0.00    -0.061 A 
HETATM    3  C   UNL     1     -34.259  40.834 -52.414  1.00  0.00     0.020 A 
HETATM    4  C   UNL     1     -35.639  40.770 -52.286  1.00  0.00     0.018 A 
HETATM    5  C   UNL     1     -36.215  40.283 -51.113  1.00  0.00     0.045 A 
HETATM    6  N   UNL     1     -37.598  40.336 -51.192  1.00  0.00    -0.323 N 
HETATM    7  C   UNL     1     -38.022  40.852 -52.419  1.00  0.00     0.266 A 
HETATM    8  O   UNL     1     -39.193  41.017 -52.720  1.00  0.00    -0.269 OA
HETATM    9  C   UNL     1     -36.731  41.205 -53.245  1.00  0.00     0.199 A 
HETATM   10  C   UNL     1     -35.463  39.832 -50.049  1.00  0.00     0.031 A 
HETATM   11  C   UNL     1     -34.073  39.884 -50.177  1.00  0.00     0.009 A 
HETATM   12  H   UNL     1     -38.245  40.044 -50.475  1.00  0.00     0.169 HD
ENDROOT
BRANCH   9  13
HETATM   13  O   UNL     1     -36.647  42.611 -53.453  1.00  0.00    -0.371 OA
HETATM   14  H   UNL     1     -36.906  42.768 -54.376  1.00  0.00     0.212 HD
ENDBRANCH   9  13
BRANCH   9  15
HETATM   15  C   UNL     1     -36.553  40.377 -54.502  1.00  0.00     0.025 A 
HETATM   16  C   UNL     1     -36.691  40.864 -55.858  1.00  0.00     0.003 A 
HETATM   17  C   UNL     1     -36.417  39.807 -56.724  1.00  0.00     0.043 A 
HETATM   18  C   UNL     1     -37.012  42.114 -56.434  1.00  0.00     0.014 A 
HETATM   19  C   UNL     1     -36.445  39.931 -58.119  1.00  0.00     0.030 A 
HETATM   20  N   UNL     1     -36.141  38.714 -55.947  1.00  0.00    -0.359 N 
HETATM   21  C   UNL     1     -36.764  41.180 -58.656  1.00  0.00     0.002 A 
HETATM   22  C   UNL     1     -37.044  42.260 -57.826  1.00  0.00     0.001 A 
HETATM   23  H   UNL     1     -35.914  37.801 -56.317  1.00  0.00     0.166 HD
HETATM   24  C   UNL     1     -36.195  39.032 -54.613  1.00  0.00     0.016 A 
HETATM   25  C   UNL     1     -35.891  37.994 -53.590  1.00  0.00     0.069 C 
ENDBRANCH   9  15
TORSDOF 2
ENDMDL
MODEL 10
REMARK VINA RESULT:      -6.9      1.803      5.095
REMARK  2 active torsions:
REMARK  status: ('A' for Active; 'I' for Inactive)
REMARK    1  A    between atoms: C_9  and  O_10 
REMARK    2  A    between atoms: C_9  and  C_11 
ROOT
HETATM    1  C   UNL     1     -41.315  59.785 -50.980  1.00  0.00     0.048 C 
HETATM    2  C   UNL     1     -42.205  58.853 -51.752  1.00  0.00    -0.061 A 
HETATM    3  C   UNL     1     -41.696  57.657 -52.279  1.00  0.00     0.020 A 
HETATM    4  C   UNL     1     -42.557  56.818 -52.973  1.00  0.00     0.018 A 
HETATM    5  C   UNL     1     -43.894  57.174 -53.154  1.00  0.00     0.045 A 
HETATM    6  N   UNL     1     -44.557  56.209 -53.896  1.00  0.00    -0.323 N 
HETATM    7  C   UNL     1     -43.708  55.156 -54.244  1.00  0.00     0.266 A 
HETATM    8  O   UNL     1     -44.053  54.196 -54.915  1.00  0.00    -0.269 OA
HETATM    9  C   UNL     1     -42.286  55.496 -53.666  1.00  0.00     0.199 A 
HETATM   10  C   UNL     1     -44.424  58.341 -52.649  1.00  0.00     0.031 A 
HETATM   11  C   UNL     1     -43.566  59.184 -51.940  1.00  0.00     0.009 A 
HETATM   12  H   UNL     1     -45.529  56.231 -54.164  1.00  0.00     0.169 HD
ENDROOT
BRANCH   9  13
HETATM   13  O   UNL     1     -41.357  55.698 -54.726  1.00  0.00    -0.371 OA
HETATM   14  H   UNL     1     -41.693  55.196 -55.486  1.00  0.00     0.212 HD
ENDBRANCH   9  13
BRANCH   9  15
HETATM   15  C   UNL     1     -41.806  54.540 -52.593  1.00  0.00     0.025 A 
HETATM   16  C   UNL     1     -40.913  53.419 -52.801  1.00  0.00     0.003 A 
HETATM   17  C   UNL     1     -40.693  52.812 -51.566  1.00  0.00     0.043 A 
HETATM   18  C   UNL     1     -40.258  52.870 -53.926  1.00  0.00     0.014 A 
HETATM   19  C   UNL     1     -39.860  51.698 -51.396  1.00  0.00     0.030 A 
HETATM   20  N   UNL     1     -41.425  53.507 -50.641  1.00  0.00    -0.359 N 
HETATM   21  C   UNL     1     -39.225  51.181 -52.528  1.00  0.00     0.002 A 
HETATM   22  C   UNL     1     -39.420  51.757 -53.778  1.00  0.00     0.001 A 
HETATM   23  H   UNL     1     -41.457  53.276 -49.657  1.00  0.00     0.166 HD
HETATM   24  C   UNL     1     -42.085  54.558 -51.225  1.00  0.00     0.016 A 
HETATM   25  C   UNL     1     -42.915  55.469 -50.390  1.00  0.00     0.069 C 
ENDBRANCH   9  15
TORSDOF 2
ENDMDL
