MODEL 1
REMARK VINA RESULT:      -7.9      0.000      0.000
REMARK  7 active torsions:
REMARK  status: ('A' for Active; 'I' for Inactive)
REMARK    1  A    between atoms: C_2  and  N_3 
REMARK    2  A    between atoms: C_4  and  C_5 
REMARK       I    between atoms: C_5  and  N_6 
REMARK    3  A    between atoms: N_6  and  C_7 
REMARK    4  A    between atoms: C_7  and  C_8 
REMARK    5  A    between atoms: C_19  and  N_20 
REMARK       I    between atoms: N_20  and  C_21 
REMARK    6  A    between atoms: C_21  and  C_22 
REMARK    7  A    between atoms: C_25  and  O_26 
ROOT
HETATM    1  N   UNL     1     -43.979  61.166 -51.337  1.00  0.00    -0.342 N 
HETATM    2  C   UNL     1     -45.213  60.842 -50.788  1.00  0.00     0.104 A 
HETATM    3  C   UNL     1     -45.285  59.454 -50.819  1.00  0.00     0.049 A 
HETATM    4  C   UNL     1     -44.087  58.935 -51.371  1.00  0.00    -0.005 A 
HETATM    5  C   UNL     1     -43.281  60.023 -51.695  1.00  0.00     0.045 A 
HETATM    6  C   UNL     1     -43.614  57.626 -51.611  1.00  0.00     0.043 A 
HETATM    7  C   UNL     1     -42.345  57.429 -52.166  1.00  0.00     0.035 A 
HETATM    8  C   UNL     1     -41.563  58.541 -52.495  1.00  0.00     0.032 A 
HETATM    9  C   UNL     1     -42.010  59.848 -52.264  1.00  0.00     0.033 A 
ENDROOT
BRANCH   7  10
HETATM   10  N   UNL     1     -41.790  56.156 -52.422  1.00  0.00    -0.323 N 
HETATM   11  C   UNL     1     -41.195  55.308 -51.504  1.00  0.00     0.256 C 
HETATM   12  O   UNL     1     -40.995  55.525 -50.314  1.00  0.00    -0.267 OA
HETATM   13  H   UNL     1     -41.743  55.883 -53.394  1.00  0.00     0.169 HD
BRANCH  11  14
HETATM   14  C   UNL     1     -40.712  54.020 -52.070  1.00  0.00     0.032 A 
HETATM   15  C   UNL     1     -40.046  53.129 -51.224  1.00  0.00     0.020 A 
HETATM   16  C   UNL     1     -39.595  51.904 -51.717  1.00  0.00     0.038 A 
HETATM   17  C   UNL     1     -39.832  51.544 -53.046  1.00  0.00     0.068 A 
HETATM   18  C   UNL     1     -40.496  52.435 -53.893  1.00  0.00     0.038 A 
HETATM   19  C   UNL     1     -40.940  53.671 -53.408  1.00  0.00     0.020 A 
BRANCH  17  20
HETATM   20  O   UNL     1     -39.356  50.312 -53.402  1.00  0.00    -0.356 OA
HETATM   21  C   UNL     1     -39.783  49.813 -54.663  1.00  0.00     0.210 C 
ENDBRANCH  17  20
ENDBRANCH  11  14
ENDBRANCH   7  10
BRANCH   2  22
HETATM   22  C   UNL     1     -46.178  61.797 -50.265  1.00  0.00     0.268 C 
HETATM   23  N   UNL     1     -46.072  62.065 -48.919  1.00  0.00    -0.353 N 
HETATM   24  H   UNL     1     -45.500  61.465 -48.340  1.00  0.00     0.162 HD
HETATM   25  O   UNL     1     -47.039  62.341 -50.954  1.00  0.00    -0.266 OA
BRANCH  23  26
HETATM   26  C   UNL     1     -47.027  62.910 -48.224  1.00  0.00     0.160 C 
BRANCH  26  27
HETATM   27  C   UNL     1     -46.819  62.911 -46.698  1.00  0.00     0.073 C 
HETATM   28  C   UNL     1     -47.000  61.482 -46.165  1.00  0.00     0.047 C 
HETATM   29  O   UNL     1     -45.467  63.322 -46.391  1.00  0.00    -0.379 OA
HETATM   30  C   UNL     1     -45.496  64.209 -45.261  1.00  0.00     0.169 C 
HETATM   31  C   UNL     1     -46.916  64.238 -44.736  1.00  0.00     0.029 C 
HETATM   32  C   UNL     1     -47.724  63.902 -45.965  1.00  0.00     0.041 C 
ENDBRANCH  26  27
ENDBRANCH  23  26
ENDBRANCH   2  22
BRANCH   1  33
HETATM   33  C   UNL     1     -43.461  62.516 -51.526  1.00  0.00     0.125 C 
HETATM   34  C   UNL     1     -42.795  63.059 -50.273  1.00  0.00     0.027 C 
ENDBRANCH   1  33
TORSDOF 7
ENDMDL
MODEL 2
REMARK VINA RESULT:      -7.7      1.736      2.240
REMARK  7 active torsions:
REMARK  status: ('A' for Active; 'I' for Inactive)
REMARK    1  A    between atoms: C_2  and  N_3 
REMARK    2  A    between atoms: C_4  and  C_5 
REMARK       I    between atoms: C_5  and  N_6 
REMARK    3  A    between atoms: N_6  and  C_7 
REMARK    4  A    between atoms: C_7  and  C_8 
REMARK    5  A    between atoms: C_19  and  N_20 
REMARK       I    between atoms: N_20  and  C_21 
REMARK    6  A    between atoms: C_21  and  C_22 
REMARK    7  A    between atoms: C_25  and  O_26 
ROOT
HETATM    1  N   UNL     1     -45.109  60.252 -52.676  1.00  0.00    -0.342 N 
HETATM    2  C   UNL     1     -44.797  60.731 -51.409  1.00  0.00     0.104 A 
HETATM    3  C   UNL     1     -44.008  59.751 -50.820  1.00  0.00     0.049 A 
HETATM    4  C   UNL     1     -43.825  58.684 -51.736  1.00  0.00    -0.005 A 
HETATM    5  C   UNL     1     -44.527  59.012 -52.892  1.00  0.00     0.045 A 
HETATM    6  C   UNL     1     -43.109  57.468 -51.681  1.00  0.00     0.043 A 
HETATM    7  C   UNL     1     -43.104  56.606 -52.784  1.00  0.00     0.035 A 
HETATM    8  C   UNL     1     -43.830  56.955 -53.926  1.00  0.00     0.032 A 
HETATM    9  C   UNL     1     -44.546  58.157 -54.004  1.00  0.00     0.033 A 
ENDROOT
BRANCH   7  10
HETATM   10  N   UNL     1     -42.402  55.382 -52.818  1.00  0.00    -0.323 N 
HETATM   11  C   UNL     1     -41.194  55.133 -53.448  1.00  0.00     0.256 C 
HETATM   12  O   UNL     1     -40.539  55.912 -54.131  1.00  0.00    -0.267 OA
HETATM   13  H   UNL     1     -42.882  54.587 -52.420  1.00  0.00     0.169 HD
BRANCH  11  14
HETATM   14  C   UNL     1     -40.691  53.741 -53.299  1.00  0.00     0.032 A 
HETATM   15  C   UNL     1     -40.350  53.290 -52.020  1.00  0.00     0.020 A 
HETATM   16  C   UNL     1     -39.892  51.984 -51.841  1.00  0.00     0.038 A 
HETATM   17  C   UNL     1     -39.799  51.110 -52.927  1.00  0.00     0.068 A 
HETATM   18  C   UNL     1     -40.138  51.561 -54.205  1.00  0.00     0.038 A 
HETATM   19  C   UNL     1     -40.587  52.873 -54.394  1.00  0.00     0.020 A 
BRANCH  17  20
HETATM   20  O   UNL     1     -39.353  49.854 -52.618  1.00  0.00    -0.356 OA
HETATM   21  C   UNL     1     -39.522  49.442 -51.267  1.00  0.00     0.210 C 
ENDBRANCH  17  20
ENDBRANCH  11  14
ENDBRANCH   7  10
BRANCH   2  22
HETATM   22  C   UNL     1     -45.207  62.021 -50.874  1.00  0.00     0.268 C 
HETATM   23  N   UNL     1     -46.307  61.992 -50.048  1.00  0.00    -0.353 N 
HETATM   24  H   UNL     1     -46.880  61.160 -50.017  1.00  0.00     0.162 HD
HETATM   25  O   UNL     1     -44.629  63.077 -51.125  1.00  0.00    -0.266 OA
BRANCH  23  26
HETATM   26  C   UNL     1     -46.907  63.206 -49.522  1.00  0.00     0.160 C 
BRANCH  26  27
HETATM   27  C   UNL     1     -46.955  63.226 -47.982  1.00  0.00     0.073 C 
HETATM   28  C   UNL     1     -48.071  64.177 -47.526  1.00  0.00     0.047 C 
HETATM   29  O   UNL     1     -47.277  61.906 -47.488  1.00  0.00    -0.379 OA
HETATM   30  C   UNL     1     -46.457  61.626 -46.343  1.00  0.00     0.169 C 
HETATM   31  C   UNL     1     -45.690  62.887 -46.007  1.00  0.00     0.029 C 
HETATM   32  C   UNL     1     -45.614  63.587 -47.341  1.00  0.00     0.041 C 
ENDBRANCH  26  27
ENDBRANCH  23  26
ENDBRANCH   2  22
BRANCH   1  33
HETATM   33  C   UNL     1     -45.935  60.936 -53.663  1.00  0.00     0.125 C 
HETATM   34  C   UNL     1     -45.113  61.806 -54.600  1.00  0.00     0.027 C 
ENDBRANCH   1  33
TORSDOF 7
ENDMDL
MODEL 3
REMARK VINA RESULT:      -7.6      2.298      3.699
REMARK  7 active torsions:
REMARK  status: ('A' for Active; 'I' for Inactive)
REMARK    1  A    between atoms: C_2  and  N_3 
REMARK    2  A    between atoms: C_4  and  C_5 
REMARK       I    between atoms: C_5  and  N_6 
REMARK    3  A    between atoms: N_6  and  C_7 
REMARK    4  A    between atoms: C_7  and  C_8 
REMARK    5  A    between atoms: C_19  and  N_20 
REMARK       I    between atoms: N_20  and  C_21 
REMARK    6  A    between atoms: C_21  and  C_22 
REMARK    7  A    between atoms: C_25  and  O_26 
ROOT
HETATM    1  N   UNL     1     -44.224  61.355 -51.303  1.00  0.00    -0.342 N 
HETATM    2  C   UNL     1     -45.528  61.013 -50.964  1.00  0.00     0.104 A 
HETATM    3  C   UNL     1     -45.594  59.629 -51.072  1.00  0.00     0.049 A 
HETATM    4  C   UNL     1     -44.326  59.129 -51.460  1.00  0.00    -0.005 A 
HETATM    5  C   UNL     1     -43.480  60.225 -51.605  1.00  0.00     0.045 A 
HETATM    6  C   UNL     1     -43.821  57.829 -51.688  1.00  0.00     0.043 A 
HETATM    7  C   UNL     1     -42.482  57.650 -52.052  1.00  0.00     0.035 A 
HETATM    8  C   UNL     1     -41.660  58.770 -52.205  1.00  0.00     0.032 A 
HETATM    9  C   UNL     1     -42.137  60.068 -51.982  1.00  0.00     0.033 A 
ENDROOT
BRANCH   7  10
HETATM   10  N   UNL     1     -41.895  56.386 -52.281  1.00  0.00    -0.323 N 
HETATM   11  C   UNL     1     -41.699  55.379 -51.352  1.00  0.00     0.256 C 
HETATM   12  O   UNL     1     -41.952  55.416 -50.153  1.00  0.00    -0.267 OA
HETATM   13  H   UNL     1     -41.494  56.246 -53.198  1.00  0.00     0.169 HD
BRANCH  11  14
HETATM   14  C   UNL     1     -41.063  54.149 -51.895  1.00  0.00     0.032 A 
HETATM   15  C   UNL     1     -41.224  53.860 -53.253  1.00  0.00     0.020 A 
HETATM   16  C   UNL     1     -40.626  52.724 -53.800  1.00  0.00     0.038 A 
HETATM   17  C   UNL     1     -39.841  51.884 -53.006  1.00  0.00     0.068 A 
HETATM   18  C   UNL     1     -39.682  52.171 -51.647  1.00  0.00     0.038 A 
HETATM   19  C   UNL     1     -40.288  53.303 -51.091  1.00  0.00     0.020 A 
BRANCH  17  20
HETATM   20  O   UNL     1     -39.297  50.815 -53.663  1.00  0.00    -0.356 OA
HETATM   21  C   UNL     1     -40.204  49.999 -54.394  1.00  0.00     0.210 C 
ENDBRANCH  17  20
ENDBRANCH  11  14
ENDBRANCH   7  10
BRANCH   2  22
HETATM   22  C   UNL     1     -46.562  61.950 -50.549  1.00  0.00     0.268 C 
HETATM   23  N   UNL     1     -47.257  62.549 -51.574  1.00  0.00    -0.353 N 
HETATM   24  H   UNL     1     -46.903  62.480 -52.519  1.00  0.00     0.162 HD
HETATM   25  O   UNL     1     -46.816  62.206 -49.374  1.00  0.00    -0.266 OA
BRANCH  23  26
HETATM   26  C   UNL     1     -48.244  63.588 -51.331  1.00  0.00     0.160 C 
BRANCH  26  27
HETATM   27  C   UNL     1     -49.457  63.487 -52.276  1.00  0.00     0.073 C 
HETATM   28  C   UNL     1     -49.447  64.685 -53.236  1.00  0.00     0.047 C 
HETATM   29  O   UNL     1     -49.353  62.287 -53.076  1.00  0.00    -0.379 OA
HETATM   30  C   UNL     1     -50.649  61.675 -53.166  1.00  0.00     0.169 C 
HETATM   31  C   UNL     1     -51.647  62.614 -52.521  1.00  0.00     0.029 C 
HETATM   32  C   UNL     1     -50.791  63.372 -51.536  1.00  0.00     0.041 C 
ENDBRANCH  26  27
ENDBRANCH  23  26
ENDBRANCH   2  22
BRANCH   1  33
HETATM   33  C   UNL     1     -43.685  62.708 -51.346  1.00  0.00     0.125 C 
HETATM   34  C   UNL     1     -43.153  63.161 -49.997  1.00  0.00     0.027 C 
ENDBRANCH   1  33
TORSDOF 7
ENDMDL
MODEL 4
REMARK VINA RESULT:      -7.6      3.221      4.499
REMARK  7 active torsions:
REMARK  status: ('A' for Active; 'I' for Inactive)
REMARK    1  A    between atoms: C_2  and  N_3 
REMARK    2  A    between atoms: C_4  and  C_5 
REMARK       I    between atoms: C_5  and  N_6 
REMARK    3  A    between atoms: N_6  and  C_7 
REMARK    4  A    between atoms: C_7  and  C_8 
REMARK    5  A    between atoms: C_19  and  N_20 
REMARK       I    between atoms: N_20  and  C_21 
REMARK    6  A    between atoms: C_21  and  C_22 
REMARK    7  A    between atoms: C_25  and  O_26 
ROOT
HETATM    1  N   UNL     1     -45.126  61.060 -52.435  1.00  0.00    -0.342 N 
HETATM    2  C   UNL     1     -45.814  61.097 -53.641  1.00  0.00     0.104 A 
HETATM    3  C   UNL     1     -45.470  59.926 -54.307  1.00  0.00     0.049 A 
HETATM    4  C   UNL     1     -44.587  59.169 -53.496  1.00  0.00    -0.005 A 
HETATM    5  C   UNL     1     -44.378  59.897 -52.328  1.00  0.00     0.045 A 
HETATM    6  C   UNL     1     -43.957  57.915 -53.653  1.00  0.00     0.043 A 
HETATM    7  C   UNL     1     -43.133  57.411 -52.640  1.00  0.00     0.035 A 
HETATM    8  C   UNL     1     -42.930  58.171 -51.485  1.00  0.00     0.032 A 
HETATM    9  C   UNL     1     -43.546  59.416 -51.305  1.00  0.00     0.033 A 
ENDROOT
BRANCH   7  10
HETATM   10  N   UNL     1     -42.480  56.161 -52.710  1.00  0.00    -0.323 N 
HETATM   11  C   UNL     1     -41.277  55.885 -53.336  1.00  0.00     0.256 C 
HETATM   12  O   UNL     1     -40.582  56.660 -53.984  1.00  0.00    -0.267 OA
HETATM   13  H   UNL     1     -42.997  55.374 -52.345  1.00  0.00     0.169 HD
BRANCH  11  14
HETATM   14  C   UNL     1     -40.833  54.469 -53.230  1.00  0.00     0.032 A 
HETATM   15  C   UNL     1     -40.626  53.747 -54.410  1.00  0.00     0.020 A 
HETATM   16  C   UNL     1     -40.192  52.422 -54.348  1.00  0.00     0.038 A 
HETATM   17  C   UNL     1     -39.932  51.817 -53.116  1.00  0.00     0.068 A 
HETATM   18  C   UNL     1     -40.140  52.538 -51.937  1.00  0.00     0.038 A 
HETATM   19  C   UNL     1     -40.586  53.864 -51.991  1.00  0.00     0.020 A 
BRANCH  17  20
HETATM   20  O   UNL     1     -39.496  50.523 -53.191  1.00  0.00    -0.356 OA
HETATM   21  C   UNL     1     -39.807  49.824 -54.390  1.00  0.00     0.210 C 
ENDBRANCH  17  20
ENDBRANCH  11  14
ENDBRANCH   7  10
BRANCH   2  22
HETATM   22  C   UNL     1     -46.726  62.152 -54.057  1.00  0.00     0.268 C 
HETATM   23  N   UNL     1     -48.048  61.950 -53.729  1.00  0.00    -0.353 N 
HETATM   24  H   UNL     1     -48.345  61.035 -53.419  1.00  0.00     0.162 HD
HETATM   25  O   UNL     1     -46.369  63.162 -54.660  1.00  0.00    -0.266 OA
BRANCH  23  26
HETATM   26  C   UNL     1     -49.097  62.854 -54.168  1.00  0.00     0.160 C 
BRANCH  26  27
HETATM   27  C   UNL     1     -50.201  63.040 -53.110  1.00  0.00     0.073 C 
HETATM   28  C   UNL     1     -49.563  63.515 -51.796  1.00  0.00     0.047 C 
HETATM   29  O   UNL     1     -51.122  64.067 -53.542  1.00  0.00    -0.379 OA
HETATM   30  C   UNL     1     -52.462  63.646 -53.242  1.00  0.00     0.169 C 
HETATM   31  C   UNL     1     -52.372  62.362 -52.444  1.00  0.00     0.029 C 
HETATM   32  C   UNL     1     -51.053  61.788 -52.899  1.00  0.00     0.041 C 
ENDBRANCH  26  27
ENDBRANCH  23  26
ENDBRANCH   2  22
BRANCH   1  33
HETATM   33  C   UNL     1     -45.164  62.089 -51.403  1.00  0.00     0.125 C 
HETATM   34  C   UNL     1     -46.244  61.828 -50.367  1.00  0.00     0.027 C 
ENDBRANCH   1  33
TORSDOF 7
ENDMDL
MODEL 5
REMARK VINA RESULT:      -7.5     19.670     22.539
REMARK  7 active torsions:
REMARK  status: ('A' for Active; 'I' for Inactive)
REMARK    1  A    between atoms: C_2  and  N_3 
REMARK    2  A    between atoms: C_4  and  C_5 
REMARK       I    between atoms: C_5  and  N_6 
REMARK    3  A    between atoms: N_6  and  C_7 
REMARK    4  A    between atoms: C_7  and  C_8 
REMARK    5  A    between atoms: C_19  and  N_20 
REMARK       I    between atoms: N_20  and  C_21 
REMARK    6  A    between atoms: C_21  and  C_22 
REMARK    7  A    between atoms: C_25  and  O_26 
ROOT
HETATM    1  N   UNL     1     -34.234  40.300 -54.094  1.00  0.00    -0.342 N 
HETATM    2  C   UNL     1     -35.332  41.125 -53.884  1.00  0.00     0.104 A 
HETATM    3  C   UNL     1     -35.311  41.440 -52.531  1.00  0.00     0.049 A 
HETATM    4  C   UNL     1     -34.190  40.821 -51.923  1.00  0.00    -0.005 A 
HETATM    5  C   UNL     1     -33.528  40.106 -52.917  1.00  0.00     0.045 A 
HETATM    6  C   UNL     1     -33.675  40.820 -50.608  1.00  0.00     0.043 A 
HETATM    7  C   UNL     1     -32.507  40.108 -50.312  1.00  0.00     0.035 A 
HETATM    8  C   UNL     1     -31.872  39.387 -51.328  1.00  0.00     0.032 A 
HETATM    9  C   UNL     1     -32.363  39.375 -52.639  1.00  0.00     0.033 A 
ENDROOT
BRANCH   7  10
HETATM   10  N   UNL     1     -31.917  40.068 -49.030  1.00  0.00    -0.323 N 
HETATM   11  C   UNL     1     -32.012  39.047 -48.101  1.00  0.00     0.256 C 
HETATM   12  O   UNL     1     -32.664  38.013 -48.199  1.00  0.00    -0.267 OA
HETATM   13  H   UNL     1     -31.457  40.917 -48.731  1.00  0.00     0.169 HD
BRANCH  11  14
HETATM   14  C   UNL     1     -31.268  39.286 -46.836  1.00  0.00     0.032 A 
HETATM   15  C   UNL     1     -30.393  40.376 -46.774  1.00  0.00     0.020 A 
HETATM   16  C   UNL     1     -29.692  40.641 -45.597  1.00  0.00     0.038 A 
HETATM   17  C   UNL     1     -29.879  39.843 -44.465  1.00  0.00     0.068 A 
HETATM   18  C   UNL     1     -30.751  38.753 -44.527  1.00  0.00     0.038 A 
HETATM   19  C   UNL     1     -31.449  38.475 -45.709  1.00  0.00     0.020 A 
BRANCH  17  20
HETATM   20  O   UNL     1     -29.148  40.216 -43.372  1.00  0.00    -0.356 OA
HETATM   21  C   UNL     1     -28.763  39.173 -42.486  1.00  0.00     0.210 C 
ENDBRANCH  17  20
ENDBRANCH  11  14
ENDBRANCH   7  10
BRANCH   2  22
HETATM   22  C   UNL     1     -36.259  41.569 -54.915  1.00  0.00     0.268 C 
HETATM   23  N   UNL     1     -37.097  40.597 -55.411  1.00  0.00    -0.353 N 
HETATM   24  H   UNL     1     -36.903  39.626 -55.205  1.00  0.00     0.162 HD
HETATM   25  O   UNL     1     -36.312  42.725 -55.330  1.00  0.00    -0.266 OA
BRANCH  23  26
HETATM   26  C   UNL     1     -38.003  40.852 -56.517  1.00  0.00     0.160 C 
BRANCH  26  27
HETATM   27  C   UNL     1     -37.399  40.466 -57.880  1.00  0.00     0.073 C 
HETATM   28  C   UNL     1     -36.851  41.727 -58.562  1.00  0.00     0.047 C 
HETATM   29  O   UNL     1     -36.290  39.559 -57.683  1.00  0.00    -0.379 OA
HETATM   30  C   UNL     1     -36.352  38.525 -58.678  1.00  0.00     0.169 C 
HETATM   31  C   UNL     1     -37.464  38.881 -59.642  1.00  0.00     0.029 C 
HETATM   32  C   UNL     1     -38.381  39.720 -58.786  1.00  0.00     0.041 C 
ENDBRANCH  26  27
ENDBRANCH  23  26
ENDBRANCH   2  22
BRANCH   1  33
HETATM   33  C   UNL     1     -33.851  39.703 -55.369  1.00  0.00     0.125 C 
HETATM   34  C   UNL     1     -32.909  40.592 -56.163  1.00  0.00     0.027 C 
ENDBRANCH   1  33
TORSDOF 7
ENDMDL
MODEL 6
REMARK VINA RESULT:      -7.4      7.129      9.497
REMARK  7 active torsions:
REMARK  status: ('A' for Active; 'I' for Inactive)
REMARK    1  A    between atoms: C_2  and  N_3 
REMARK    2  A    between atoms: C_4  and  C_5 
REMARK       I    between atoms: C_5  and  N_6 
REMARK    3  A    between atoms: N_6  and  C_7 
REMARK    4  A    between atoms: C_7  and  C_8 
REMARK    5  A    between atoms: C_19  and  N_20 
REMARK       I    between atoms: N_20  and  C_21 
REMARK    6  A    between atoms: C_21  and  C_22 
REMARK    7  A    between atoms: C_25  and  O_26 
ROOT
HETATM    1  N   UNL     1     -43.417  57.667 -59.203  1.00  0.00    -0.342 N 
HETATM    2  C   UNL     1     -42.965  58.970 -59.034  1.00  0.00     0.104 A 
HETATM    3  C   UNL     1     -42.403  59.012 -57.764  1.00  0.00     0.049 A 
HETATM    4  C   UNL     1     -42.497  57.728 -57.168  1.00  0.00    -0.005 A 
HETATM    5  C   UNL     1     -43.140  56.899 -58.082  1.00  0.00     0.045 A 
HETATM    6  C   UNL     1     -42.075  57.199 -55.929  1.00  0.00     0.043 A 
HETATM    7  C   UNL     1     -42.301  55.851 -55.628  1.00  0.00     0.035 A 
HETATM    8  C   UNL     1     -42.963  55.046 -56.559  1.00  0.00     0.032 A 
HETATM    9  C   UNL     1     -43.388  55.548 -57.796  1.00  0.00     0.033 A 
ENDROOT
BRANCH   7  10
HETATM   10  N   UNL     1     -41.898  55.240 -54.421  1.00  0.00    -0.323 N 
HETATM   11  C   UNL     1     -40.736  54.519 -54.201  1.00  0.00     0.256 C 
HETATM   12  O   UNL     1     -39.871  54.237 -55.023  1.00  0.00    -0.267 OA
HETATM   13  H   UNL     1     -42.575  55.254 -53.672  1.00  0.00     0.169 HD
BRANCH  11  14
HETATM   14  C   UNL     1     -40.579  54.003 -52.815  1.00  0.00     0.032 A 
HETATM   15  C   UNL     1     -40.811  54.877 -51.749  1.00  0.00     0.020 A 
HETATM   16  C   UNL     1     -40.690  54.422 -50.435  1.00  0.00     0.038 A 
HETATM   17  C   UNL     1     -40.367  53.087 -50.174  1.00  0.00     0.068 A 
HETATM   18  C   UNL     1     -40.132  52.214 -51.239  1.00  0.00     0.038 A 
HETATM   19  C   UNL     1     -40.241  52.668 -52.559  1.00  0.00     0.020 A 
BRANCH  17  20
HETATM   20  O   UNL     1     -40.295  52.763 -48.848  1.00  0.00    -0.356 OA
HETATM   21  C   UNL     1     -40.648  53.789 -47.929  1.00  0.00     0.210 C 
ENDBRANCH  17  20
ENDBRANCH  11  14
ENDBRANCH   7  10
BRANCH   2  22
HETATM   22  C   UNL     1     -43.053  60.026 -60.032  1.00  0.00     0.268 C 
HETATM   23  N   UNL     1     -41.858  60.395 -60.604  1.00  0.00    -0.353 N 
HETATM   24  H   UNL     1     -40.992  60.086 -60.184  1.00  0.00     0.162 HD
HETATM   25  O   UNL     1     -44.108  60.568 -60.358  1.00  0.00    -0.266 OA
BRANCH  23  26
HETATM   26  C   UNL     1     -41.760  61.507 -61.535  1.00  0.00     0.160 C 
BRANCH  26  27
HETATM   27  C   UNL     1     -40.875  62.650 -61.003  1.00  0.00     0.073 C 
HETATM   28  C   UNL     1     -39.770  62.948 -62.027  1.00  0.00     0.047 C 
HETATM   29  O   UNL     1     -41.667  63.851 -60.855  1.00  0.00    -0.379 OA
HETATM   30  C   UNL     1     -41.302  64.500 -59.627  1.00  0.00     0.169 C 
HETATM   31  C   UNL     1     -40.116  63.756 -59.049  1.00  0.00     0.029 C 
HETATM   32  C   UNL     1     -40.293  62.369 -59.616  1.00  0.00     0.041 C 
ENDBRANCH  26  27
ENDBRANCH  23  26
ENDBRANCH   2  22
BRANCH   1  33
HETATM   33  C   UNL     1     -44.095  57.149 -60.385  1.00  0.00     0.125 C 
HETATM   34  C   UNL     1     -45.606  57.131 -60.223  1.00  0.00     0.027 C 
ENDBRANCH   1  33
TORSDOF 7
ENDMDL
MODEL 7
REMARK VINA RESULT:      -7.4      3.304      4.472
REMARK  7 active torsions:
REMARK  status: ('A' for Active; 'I' for Inactive)
REMARK    1  A    between atoms: C_2  and  N_3 
REMARK    2  A    between atoms: C_4  and  C_5 
REMARK       I    between atoms: C_5  and  N_6 
REMARK    3  A    between atoms: N_6  and  C_7 
REMARK    4  A    between atoms: C_7  and  C_8 
REMARK    5  A    between atoms: C_19  and  N_20 
REMARK       I    between atoms: N_20  and  C_21 
REMARK    6  A    between atoms: C_21  and  C_22 
REMARK    7  A    between atoms: C_25  and  O_26 
ROOT
HETATM    1  N   UNL     1     -45.824  60.741 -53.662  1.00  0.00    -0.342 N 
HETATM    2  C   UNL     1     -46.197  60.943 -52.339  1.00  0.00     0.104 A 
HETATM    3  C   UNL     1     -45.681  59.862 -51.633  1.00  0.00     0.049 A 
HETATM    4  C   UNL     1     -44.980  59.012 -52.526  1.00  0.00    -0.005 A 
HETATM    5  C   UNL     1     -45.084  59.576 -53.794  1.00  0.00     0.045 A 
HETATM    6  C   UNL     1     -44.253  57.814 -52.357  1.00  0.00     0.043 A 
HETATM    7  C   UNL     1     -43.641  57.203 -53.458  1.00  0.00     0.035 A 
HETATM    8  C   UNL     1     -43.775  57.784 -54.722  1.00  0.00     0.032 A 
HETATM    9  C   UNL     1     -44.489  58.974 -54.913  1.00  0.00     0.033 A 
ENDROOT
BRANCH   7  10
HETATM   10  N   UNL     1     -42.882  56.015 -53.373  1.00  0.00    -0.323 N 
HETATM   11  C   UNL     1     -41.502  55.907 -53.373  1.00  0.00     0.256 C 
HETATM   12  O   UNL     1     -40.687  56.815 -53.495  1.00  0.00    -0.267 OA
HETATM   13  H   UNL     1     -43.408  55.153 -53.413  1.00  0.00     0.169 HD
BRANCH  11  14
HETATM   14  C   UNL     1     -40.988  54.517 -53.259  1.00  0.00     0.032 A 
HETATM   15  C   UNL     1     -40.820  53.771 -54.431  1.00  0.00     0.020 A 
HETATM   16  C   UNL     1     -40.322  52.469 -54.363  1.00  0.00     0.038 A 
HETATM   17  C   UNL     1     -39.961  51.911 -53.133  1.00  0.00     0.068 A 
HETATM   18  C   UNL     1     -40.131  52.655 -51.963  1.00  0.00     0.038 A 
HETATM   19  C   UNL     1     -40.640  53.957 -52.023  1.00  0.00     0.020 A 
BRANCH  17  20
HETATM   20  O   UNL     1     -39.472  50.636 -53.203  1.00  0.00    -0.356 OA
HETATM   21  C   UNL     1     -39.726  49.930 -54.411  1.00  0.00     0.210 C 
ENDBRANCH  17  20
ENDBRANCH  11  14
ENDBRANCH   7  10
BRANCH   2  22
HETATM   22  C   UNL     1     -46.941  62.091 -51.840  1.00  0.00     0.268 C 
HETATM   23  N   UNL     1     -48.222  62.217 -52.326  1.00  0.00    -0.353 N 
HETATM   24  H   UNL     1     -48.506  61.662 -53.123  1.00  0.00     0.162 HD
HETATM   25  O   UNL     1     -46.482  62.905 -51.042  1.00  0.00    -0.266 OA
BRANCH  23  26
HETATM   26  C   UNL     1     -49.056  63.365 -52.013  1.00  0.00     0.160 C 
BRANCH  26  27
HETATM   27  C   UNL     1     -50.455  63.275 -52.651  1.00  0.00     0.073 C 
HETATM   28  C   UNL     1     -50.665  64.485 -53.573  1.00  0.00     0.047 C 
HETATM   29  O   UNL     1     -50.542  62.085 -53.468  1.00  0.00    -0.379 OA
HETATM   30  C   UNL     1     -51.825  61.473 -53.261  1.00  0.00     0.169 C 
HETATM   31  C   UNL     1     -52.644  62.403 -52.391  1.00  0.00     0.029 C 
HETATM   32  C   UNL     1     -51.581  63.150 -51.623  1.00  0.00     0.041 C 
ENDBRANCH  26  27
ENDBRANCH  23  26
ENDBRANCH   2  22
BRANCH   1  33
HETATM   33  C   UNL     1     -46.154  61.616 -54.780  1.00  0.00     0.125 C 
HETATM   34  C   UNL     1     -45.078  62.658 -55.034  1.00  0.00     0.027 C 
ENDBRANCH   1  33
TORSDOF 7
ENDMDL
MODEL 8
REMARK VINA RESULT:      -7.2      7.029      9.497
REMARK  7 active torsions:
REMARK  status: ('A' for Active; 'I' for Inactive)
REMARK    1  A    between atoms: C_2  and  N_3 
REMARK    2  A    between atoms: C_4  and  C_5 
REMARK       I    between atoms: C_5  and  N_6 
REMARK    3  A    between atoms: N_6  and  C_7 
REMARK    4  A    between atoms: C_7  and  C_8 
REMARK    5  A    between atoms: C_19  and  N_20 
REMARK       I    between atoms: N_20  and  C_21 
REMARK    6  A    between atoms: C_21  and  C_22 
REMARK    7  A    between atoms: C_25  and  O_26 
ROOT
HETATM    1  N   UNL     1     -44.766  58.328 -57.733  1.00  0.00    -0.342 N 
HETATM    2  C   UNL     1     -44.282  58.093 -59.014  1.00  0.00     0.104 A 
HETATM    3  C   UNL     1     -43.382  57.041 -58.890  1.00  0.00     0.049 A 
HETATM    4  C   UNL     1     -43.333  56.626 -57.535  1.00  0.00    -0.005 A 
HETATM    5  C   UNL     1     -44.203  57.447 -56.823  1.00  0.00     0.045 A 
HETATM    6  C   UNL     1     -42.628  55.609 -56.855  1.00  0.00     0.043 A 
HETATM    7  C   UNL     1     -42.808  55.429 -55.479  1.00  0.00     0.035 A 
HETATM    8  C   UNL     1     -43.677  56.278 -54.788  1.00  0.00     0.032 A 
HETATM    9  C   UNL     1     -44.388  57.292 -55.441  1.00  0.00     0.033 A 
ENDROOT
BRANCH   7  10
HETATM   10  N   UNL     1     -42.156  54.426 -54.728  1.00  0.00    -0.323 N 
HETATM   11  C   UNL     1     -40.790  54.230 -54.609  1.00  0.00     0.256 C 
HETATM   12  O   UNL     1     -39.900  54.858 -55.172  1.00  0.00    -0.267 OA
HETATM   13  H   UNL     1     -42.756  53.727 -54.313  1.00  0.00     0.169 HD
BRANCH  11  14
HETATM   14  C   UNL     1     -40.400  53.094 -53.734  1.00  0.00     0.032 A 
HETATM   15  C   UNL     1     -40.082  51.871 -54.333  1.00  0.00     0.020 A 
HETATM   16  C   UNL     1     -39.693  50.788 -53.543  1.00  0.00     0.038 A 
HETATM   17  C   UNL     1     -39.590  50.923 -52.156  1.00  0.00     0.068 A 
HETATM   18  C   UNL     1     -39.910  52.144 -51.557  1.00  0.00     0.038 A 
HETATM   19  C   UNL     1     -40.311  53.231 -52.343  1.00  0.00     0.020 A 
BRANCH  17  20
HETATM   20  O   UNL     1     -39.184  49.795 -51.498  1.00  0.00    -0.356 OA
HETATM   21  C   UNL     1     -39.920  49.447 -50.332  1.00  0.00     0.210 C 
ENDBRANCH  17  20
ENDBRANCH  11  14
ENDBRANCH   7  10
BRANCH   2  22
HETATM   22  C   UNL     1     -44.697  58.806 -60.214  1.00  0.00     0.268 C 
HETATM   23  N   UNL     1     -43.719  59.565 -60.814  1.00  0.00    -0.353 N 
HETATM   24  H   UNL     1     -42.863  59.755 -60.311  1.00  0.00     0.162 HD
HETATM   25  O   UNL     1     -45.834  58.751 -60.679  1.00  0.00    -0.266 OA
BRANCH  23  26
HETATM   26  C   UNL     1     -43.999  60.421 -61.954  1.00  0.00     0.160 C 
BRANCH  26  27
HETATM   27  C   UNL     1     -42.834  61.373 -62.283  1.00  0.00     0.073 C 
HETATM   28  C   UNL     1     -42.553  61.321 -63.791  1.00  0.00     0.047 C 
HETATM   29  O   UNL     1     -43.207  62.731 -61.955  1.00  0.00    -0.379 OA
HETATM   30  C   UNL     1     -42.089  63.383 -61.332  1.00  0.00     0.169 C 
HETATM   31  C   UNL     1     -40.907  62.440 -61.408  1.00  0.00     0.029 C 
HETATM   32  C   UNL     1     -41.572  61.087 -61.467  1.00  0.00     0.041 C 
ENDBRANCH  26  27
ENDBRANCH  23  26
ENDBRANCH   2  22
BRANCH   1  33
HETATM   33  C   UNL     1     -45.732  59.356 -57.365  1.00  0.00     0.125 C 
HETATM   34  C   UNL     1     -47.166  58.870 -57.488  1.00  0.00     0.027 C 
ENDBRANCH   1  33
TORSDOF 7
ENDMDL
MODEL 9
REMARK VINA RESULT:      -7.1     19.519     22.453
REMARK  7 active torsions:
REMARK  status: ('A' for Active; 'I' for Inactive)
REMARK    1  A    between atoms: C_2  and  N_3 
REMARK    2  A    between atoms: C_4  and  C_5 
REMARK       I    between atoms: C_5  and  N_6 
REMARK    3  A    between atoms: N_6  and  C_7 
REMARK    4  A    between atoms: C_7  and  C_8 
REMARK    5  A    between atoms: C_19  and  N_20 
REMARK       I    between atoms: N_20  and  C_21 
REMARK    6  A    between atoms: C_21  and  C_22 
REMARK    7  A    between atoms: C_25  and  O_26 
ROOT
HETATM    1  N   UNL     1     -33.169  38.810 -48.536  1.00  0.00    -0.342 N 
HETATM    2  C   UNL     1     -31.840  39.197 -48.643  1.00  0.00     0.104 A 
HETATM    3  C   UNL     1     -31.707  39.738 -49.916  1.00  0.00     0.049 A 
HETATM    4  C   UNL     1     -32.961  39.696 -50.575  1.00  0.00    -0.005 A 
HETATM    5  C   UNL     1     -33.866  39.106 -49.697  1.00  0.00     0.045 A 
HETATM    6  C   UNL     1     -33.406  40.124 -51.845  1.00  0.00     0.043 A 
HETATM    7  C   UNL     1     -34.746  39.958 -52.213  1.00  0.00     0.035 A 
HETATM    8  C   UNL     1     -35.629  39.349 -51.316  1.00  0.00     0.032 A 
HETATM    9  C   UNL     1     -35.211  38.918 -50.050  1.00  0.00     0.033 A 
ENDROOT
BRANCH   7  10
HETATM   10  N   UNL     1     -35.276  40.373 -53.454  1.00  0.00    -0.323 N 
HETATM   11  C   UNL     1     -35.748  41.633 -53.778  1.00  0.00     0.256 C 
HETATM   12  O   UNL     1     -35.840  42.604 -53.035  1.00  0.00    -0.267 OA
HETATM   13  H   UNL     1     -35.407  39.644 -54.142  1.00  0.00     0.169 HD
BRANCH  11  14
HETATM   14  C   UNL     1     -36.236  41.773 -55.176  1.00  0.00     0.032 A 
HETATM   15  C   UNL     1     -35.310  42.085 -56.176  1.00  0.00     0.020 A 
HETATM   16  C   UNL     1     -35.730  42.206 -57.501  1.00  0.00     0.038 A 
HETATM   17  C   UNL     1     -37.067  41.988 -57.845  1.00  0.00     0.068 A 
HETATM   18  C   UNL     1     -37.993  41.678 -56.845  1.00  0.00     0.038 A 
HETATM   19  C   UNL     1     -37.580  41.566 -55.512  1.00  0.00     0.020 A 
BRANCH  17  20
HETATM   20  O   UNL     1     -37.347  42.120 -59.176  1.00  0.00    -0.356 OA
HETATM   21  C   UNL     1     -37.197  40.949 -59.970  1.00  0.00     0.210 C 
ENDBRANCH  17  20
ENDBRANCH  11  14
ENDBRANCH   7  10
BRANCH   2  22
HETATM   22  C   UNL     1     -30.840  39.073 -47.591  1.00  0.00     0.268 C 
HETATM   23  N   UNL     1     -30.446  40.258 -47.013  1.00  0.00    -0.353 N 
HETATM   24  H   UNL     1     -30.693  41.132 -47.458  1.00  0.00     0.162 HD
HETATM   25  O   UNL     1     -30.365  38.000 -47.226  1.00  0.00    -0.266 OA
BRANCH  23  26
HETATM   26  C   UNL     1     -29.380  40.317 -46.028  1.00  0.00     0.160 C 
BRANCH  26  27
HETATM   27  C   UNL     1     -29.884  40.079 -44.592  1.00  0.00     0.073 C 
HETATM   28  C   UNL     1     -29.923  41.419 -43.844  1.00  0.00     0.047 C 
HETATM   29  O   UNL     1     -31.234  39.561 -44.629  1.00  0.00    -0.379 OA
HETATM   30  C   UNL     1     -31.358  38.518 -43.650  1.00  0.00     0.169 C 
HETATM   31  C   UNL     1     -30.072  38.480 -42.852  1.00  0.00     0.029 C 
HETATM   32  C   UNL     1     -29.066  39.034 -43.830  1.00  0.00     0.041 C 
ENDBRANCH  26  27
ENDBRANCH  23  26
ENDBRANCH   2  22
BRANCH   1  33
HETATM   33  C   UNL     1     -33.779  38.174 -47.374  1.00  0.00     0.125 C 
HETATM   34  C   UNL     1     -33.717  36.658 -47.446  1.00  0.00     0.027 C 
ENDBRANCH   1  33
TORSDOF 7
ENDMDL
MODEL 10
REMARK VINA RESULT:      -7.1      6.411      7.525
REMARK  7 active torsions:
REMARK  status: ('A' for Active; 'I' for Inactive)
REMARK    1  A    between atoms: C_2  and  N_3 
REMARK    2  A    between atoms: C_4  and  C_5 
REMARK       I    between atoms: C_5  and  N_6 
REMARK    3  A    between atoms: N_6  and  C_7 
REMARK    4  A    between atoms: C_7  and  C_8 
REMARK    5  A    between atoms: C_19  and  N_20 
REMARK       I    between atoms: N_20  and  C_21 
REMARK    6  A    between atoms: C_21  and  C_22 
REMARK    7  A    between atoms: C_25  and  O_26 
ROOT
HETATM    1  N   UNL     1     -44.842  58.639 -57.976  1.00  0.00    -0.342 N 
HETATM    2  C   UNL     1     -45.309  59.432 -56.935  1.00  0.00     0.104 A 
HETATM    3  C   UNL     1     -44.917  58.788 -55.767  1.00  0.00     0.049 A 
HETATM    4  C   UNL     1     -44.196  57.613 -56.100  1.00  0.00    -0.005 A 
HETATM    5  C   UNL     1     -44.163  57.532 -57.489  1.00  0.00     0.045 A 
HETATM    6  C   UNL     1     -43.556  56.616 -55.332  1.00  0.00     0.043 A 
HETATM    7  C   UNL     1     -42.893  55.559 -55.966  1.00  0.00     0.035 A 
HETATM    8  C   UNL     1     -42.889  55.496 -57.363  1.00  0.00     0.032 A 
HETATM    9  C   UNL     1     -43.515  56.475 -58.145  1.00  0.00     0.033 A 
ENDROOT
BRANCH   7  10
HETATM   10  N   UNL     1     -42.215  54.532 -55.275  1.00  0.00    -0.323 N 
HETATM   11  C   UNL     1     -41.034  54.647 -54.562  1.00  0.00     0.256 C 
HETATM   12  O   UNL     1     -40.336  55.648 -54.441  1.00  0.00    -0.267 OA
HETATM   13  H   UNL     1     -42.586  53.600 -55.396  1.00  0.00     0.169 HD
BRANCH  11  14
HETATM   14  C   UNL     1     -40.565  53.387 -53.927  1.00  0.00     0.032 A 
HETATM   15  C   UNL     1     -40.415  53.357 -52.537  1.00  0.00     0.020 A 
HETATM   16  C   UNL     1     -39.995  52.185 -51.907  1.00  0.00     0.038 A 
HETATM   17  C   UNL     1     -39.751  51.028 -52.650  1.00  0.00     0.068 A 
HETATM   18  C   UNL     1     -39.899  51.058 -54.039  1.00  0.00     0.038 A 
HETATM   19  C   UNL     1     -40.309  52.233 -54.679  1.00  0.00     0.020 A 
BRANCH  17  20
HETATM   20  O   UNL     1     -39.361  49.943 -51.914  1.00  0.00    -0.356 OA
HETATM   21  C   UNL     1     -39.712  49.960 -50.536  1.00  0.00     0.210 C 
ENDBRANCH  17  20
ENDBRANCH  11  14
ENDBRANCH   7  10
BRANCH   2  22
HETATM   22  C   UNL     1     -46.023  60.691 -57.091  1.00  0.00     0.268 C 
HETATM   23  N   UNL     1     -47.373  60.636 -56.835  1.00  0.00    -0.353 N 
HETATM   24  H   UNL     1     -47.826  59.735 -56.758  1.00  0.00     0.162 HD
HETATM   25  O   UNL     1     -45.482  61.742 -57.428  1.00  0.00    -0.266 OA
BRANCH  23  26
HETATM   26  C   UNL     1     -48.245  61.778 -57.051  1.00  0.00     0.160 C 
BRANCH  26  27
HETATM   27  C   UNL     1     -49.544  61.403 -57.788  1.00  0.00     0.073 C 
HETATM   28  C   UNL     1     -49.201  60.964 -59.219  1.00  0.00     0.047 C 
HETATM   29  O   UNL     1     -50.173  60.280 -57.128  1.00  0.00    -0.379 OA
HETATM   30  C   UNL     1     -51.590  60.506 -57.076  1.00  0.00     0.169 C 
HETATM   31  C   UNL     1     -51.886  61.757 -57.877  1.00  0.00     0.029 C 
HETATM   32  C   UNL     1     -50.589  62.520 -57.780  1.00  0.00     0.041 C 
ENDBRANCH  26  27
ENDBRANCH  23  26
ENDBRANCH   2  22
BRANCH   1  33
HETATM   33  C   UNL     1     -45.027  58.907 -59.397  1.00  0.00     0.125 C 
HETATM   34  C   UNL     1     -46.275  58.241 -59.953  1.00  0.00     0.027 C 
ENDBRANCH   1  33
TORSDOF 7
ENDMDL
