MODEL 1
REMARK VINA RESULT:      -8.7      0.000      0.000
REMARK  3 active torsions:
REMARK  status: ('A' for Active; 'I' for Inactive)
REMARK    1  A    between atoms: C_8  and  C_9 
REMARK       I    between atoms: C_9  and  N_10 
REMARK    2  A    between atoms: C_13  and  O_14 
REMARK    3  A    between atoms: C_13  and  C_15 
ROOT
HETATM    1  C   UNL     1     -43.554  56.687 -54.374  1.00  0.00     0.259 C 
HETATM    2  N   UNL     1     -42.811  55.993 -53.401  1.00  0.00    -0.348 N 
HETATM    3  C   UNL     1     -41.381  56.186 -53.169  1.00  0.00     0.129 C 
HETATM    4  C   UNL     1     -40.921  55.753 -51.779  1.00  0.00     0.063 C 
HETATM    5  C   UNL     1     -41.397  54.334 -51.413  1.00  0.00     0.088 C 
HETATM    6  C   UNL     1     -42.933  54.375 -51.514  1.00  0.00     0.063 C 
HETATM    7  C   UNL     1     -43.390  54.740 -52.920  1.00  0.00     0.129 C 
HETATM    8  O   UNL     1     -44.740  56.417 -54.567  1.00  0.00    -0.267 OA
ENDROOT
BRANCH   1   9
HETATM    9  C   UNL     1     -42.973  57.793 -55.120  1.00  0.00     0.099 A 
HETATM   10  C   UNL     1     -42.676  57.939 -56.466  1.00  0.00     0.168 A 
HETATM   11  N   UNL     1     -42.778  57.088 -57.535  1.00  0.00    -0.233 NA
HETATM   12  N   UNL     1     -42.213  59.257 -56.627  1.00  0.00    -0.219 N 
HETATM   13  C   UNL     1     -42.388  57.536 -58.692  1.00  0.00     0.035 A 
HETATM   14  C   UNL     1     -42.466  56.614 -59.881  1.00  0.00     0.070 C 
HETATM   15  C   UNL     1     -41.874  58.915 -58.948  1.00  0.00     0.053 A 
HETATM   16  C   UNL     1     -41.813  59.734 -57.884  1.00  0.00     0.036 A 
HETATM   17  C   UNL     1     -41.340  61.153 -57.980  1.00  0.00     0.070 C 
HETATM   18  N   UNL     1     -42.225  59.938 -55.455  1.00  0.00    -0.177 NA
HETATM   19  C   UNL     1     -42.715  59.070 -54.575  1.00  0.00     0.160 A 
ENDBRANCH   1   9
BRANCH   5  20
HETATM   20  O   UNL     1     -41.070  54.140 -50.026  1.00  0.00    -0.385 OA
HETATM   21  H   UNL     1     -41.712  54.638 -49.491  1.00  0.00     0.211 HD
ENDBRANCH   5  20
BRANCH   5  22
HETATM   22  C   UNL     1     -40.751  53.178 -52.189  1.00  0.00    -0.024 A 
HETATM   23  C   UNL     1     -40.811  53.079 -53.590  1.00  0.00     0.010 A 
HETATM   24  C   UNL     1     -40.207  52.015 -54.271  1.00  0.00     0.001 A 
HETATM   25  C   UNL     1     -39.511  51.039 -53.567  1.00  0.00     0.000 A 
HETATM   26  C   UNL     1     -39.403  51.133 -52.185  1.00  0.00     0.001 A 
HETATM   27  C   UNL     1     -40.005  52.196 -51.507  1.00  0.00     0.010 A 
ENDBRANCH   5  22
TORSDOF 3
ENDMDL
MODEL 2
REMARK VINA RESULT:      -8.5      2.247      7.075
REMARK  3 active torsions:
REMARK  status: ('A' for Active; 'I' for Inactive)
REMARK    1  A    between atoms: C_8  and  C_9 
REMARK       I    between atoms: C_9  and  N_10 
REMARK    2  A    between atoms: C_13  and  O_14 
REMARK    3  A    between atoms: C_13  and  C_15 
ROOT
HETATM    1  C   UNL     1     -41.391  58.594 -53.621  1.00  0.00     0.259 C 
HETATM    2  N   UNL     1     -42.332  58.611 -54.666  1.00  0.00    -0.348 N 
HETATM    3  C   UNL     1     -43.290  57.538 -54.925  1.00  0.00     0.129 C 
HETATM    4  C   UNL     1     -44.511  57.985 -55.726  1.00  0.00     0.063 C 
HETATM    5  C   UNL     1     -44.131  58.764 -56.999  1.00  0.00     0.088 C 
HETATM    6  C   UNL     1     -43.300  59.967 -56.515  1.00  0.00     0.063 C 
HETATM    7  C   UNL     1     -42.046  59.517 -55.777  1.00  0.00     0.129 C 
HETATM    8  O   UNL     1     -40.561  59.499 -53.509  1.00  0.00    -0.267 OA
ENDROOT
BRANCH   1   9
HETATM    9  C   UNL     1     -41.417  57.559 -52.598  1.00  0.00     0.099 A 
HETATM   10  C   UNL     1     -41.138  56.202 -52.655  1.00  0.00     0.168 A 
HETATM   11  N   UNL     1     -40.796  55.370 -53.688  1.00  0.00    -0.233 NA
HETATM   12  N   UNL     1     -41.243  55.723 -51.338  1.00  0.00    -0.219 N 
HETATM   13  C   UNL     1     -40.616  54.113 -53.404  1.00  0.00     0.035 A 
HETATM   14  C   UNL     1     -40.262  53.169 -54.525  1.00  0.00     0.070 C 
HETATM   15  C   UNL     1     -40.719  53.520 -52.037  1.00  0.00     0.053 A 
HETATM   16  C   UNL     1     -41.028  54.369 -51.042  1.00  0.00     0.036 A 
HETATM   17  C   UNL     1     -41.148  53.932 -49.614  1.00  0.00     0.070 C 
HETATM   18  N   UNL     1     -41.554  56.714 -50.467  1.00  0.00    -0.177 NA
HETATM   19  C   UNL     1     -41.617  57.807 -51.223  1.00  0.00     0.160 A 
ENDBRANCH   1   9
BRANCH   5  20
HETATM   20  O   UNL     1     -45.358  59.288 -57.537  1.00  0.00    -0.385 OA
HETATM   21  H   UNL     1     -45.225  59.454 -58.487  1.00  0.00     0.211 HD
ENDBRANCH   5  20
BRANCH   5  22
HETATM   22  C   UNL     1     -43.464  57.954 -58.119  1.00  0.00    -0.024 A 
HETATM   23  C   UNL     1     -43.686  56.577 -58.293  1.00  0.00     0.010 A 
HETATM   24  C   UNL     1     -43.067  55.865 -59.328  1.00  0.00     0.001 A 
HETATM   25  C   UNL     1     -42.230  56.519 -60.224  1.00  0.00     0.000 A 
HETATM   26  C   UNL     1     -42.023  57.887 -60.098  1.00  0.00     0.001 A 
HETATM   27  C   UNL     1     -42.642  58.597 -59.066  1.00  0.00     0.010 A 
ENDBRANCH   5  22
TORSDOF 3
ENDMDL
MODEL 3
REMARK VINA RESULT:      -8.3      3.311      5.130
REMARK  3 active torsions:
REMARK  status: ('A' for Active; 'I' for Inactive)
REMARK    1  A    between atoms: C_8  and  C_9 
REMARK       I    between atoms: C_9  and  N_10 
REMARK    2  A    between atoms: C_13  and  O_14 
REMARK    3  A    between atoms: C_13  and  C_15 
ROOT
HETATM    1  C   UNL     1     -41.082  58.618 -52.972  1.00  0.00     0.259 C 
HETATM    2  N   UNL     1     -41.499  57.326 -53.342  1.00  0.00    -0.348 N 
HETATM    3  C   UNL     1     -42.498  56.547 -52.614  1.00  0.00     0.129 C 
HETATM    4  C   UNL     1     -43.160  55.457 -53.455  1.00  0.00     0.063 C 
HETATM    5  C   UNL     1     -42.134  54.573 -54.189  1.00  0.00     0.088 C 
HETATM    6  C   UNL     1     -41.305  55.535 -55.059  1.00  0.00     0.063 C 
HETATM    7  C   UNL     1     -40.591  56.579 -54.211  1.00  0.00     0.129 C 
HETATM    8  O   UNL     1     -40.177  59.184 -53.588  1.00  0.00    -0.267 OA
ENDROOT
BRANCH   1   9
HETATM    9  C   UNL     1     -41.753  59.353 -51.911  1.00  0.00     0.099 A 
HETATM   10  C   UNL     1     -42.983  59.993 -51.872  1.00  0.00     0.168 A 
HETATM   11  N   UNL     1     -43.953  60.194 -52.818  1.00  0.00    -0.233 NA
HETATM   12  N   UNL     1     -43.144  60.455 -50.554  1.00  0.00    -0.219 N 
HETATM   13  C   UNL     1     -45.005  60.868 -52.456  1.00  0.00     0.035 A 
HETATM   14  C   UNL     1     -46.079  61.126 -53.483  1.00  0.00     0.070 C 
HETATM   15  C   UNL     1     -45.251  61.403 -51.084  1.00  0.00     0.053 A 
HETATM   16  C   UNL     1     -44.293  61.164 -50.172  1.00  0.00     0.036 A 
HETATM   17  C   UNL     1     -44.400  61.617 -48.748  1.00  0.00     0.070 C 
HETATM   18  N   UNL     1     -42.088  60.119 -49.773  1.00  0.00    -0.177 NA
HETATM   19  C   UNL     1     -41.287  59.432 -50.581  1.00  0.00     0.160 A 
ENDBRANCH   1   9
BRANCH   5  20
HETATM   20  O   UNL     1     -42.886  53.735 -55.084  1.00  0.00    -0.385 OA
HETATM   21  H   UNL     1     -43.706  53.469 -54.633  1.00  0.00     0.211 HD
ENDBRANCH   5  20
BRANCH   5  22
HETATM   22  C   UNL     1     -41.289  53.639 -53.311  1.00  0.00    -0.024 A 
HETATM   23  C   UNL     1     -41.320  53.685 -51.906  1.00  0.00     0.010 A 
HETATM   24  C   UNL     1     -40.542  52.817 -51.132  1.00  0.00     0.001 A 
HETATM   25  C   UNL     1     -39.730  51.869 -51.745  1.00  0.00     0.000 A 
HETATM   26  C   UNL     1     -39.709  51.777 -53.132  1.00  0.00     0.001 A 
HETATM   27  C   UNL     1     -40.487  52.643 -53.903  1.00  0.00     0.010 A 
ENDBRANCH   5  22
TORSDOF 3
ENDMDL
MODEL 4
REMARK VINA RESULT:      -8.2      2.311      3.167
REMARK  3 active torsions:
REMARK  status: ('A' for Active; 'I' for Inactive)
REMARK    1  A    between atoms: C_8  and  C_9 
REMARK       I    between atoms: C_9  and  N_10 
REMARK    2  A    between atoms: C_13  and  O_14 
REMARK    3  A    between atoms: C_13  and  C_15 
ROOT
HETATM    1  C   UNL     1     -43.984  57.409 -51.156  1.00  0.00     0.259 C 
HETATM    2  N   UNL     1     -42.903  56.541 -50.914  1.00  0.00    -0.348 N 
HETATM    3  C   UNL     1     -41.514  56.849 -51.249  1.00  0.00     0.129 C 
HETATM    4  C   UNL     1     -40.496  56.041 -50.446  1.00  0.00     0.063 C 
HETATM    5  C   UNL     1     -40.793  54.530 -50.464  1.00  0.00     0.088 C 
HETATM    6  C   UNL     1     -42.214  54.380 -49.891  1.00  0.00     0.063 C 
HETATM    7  C   UNL     1     -43.237  55.129 -50.733  1.00  0.00     0.129 C 
HETATM    8  O   UNL     1     -45.140  57.051 -50.920  1.00  0.00    -0.267 OA
ENDROOT
BRANCH   1   9
HETATM    9  C   UNL     1     -43.769  58.773 -51.613  1.00  0.00     0.099 A 
HETATM   10  C   UNL     1     -43.428  59.285 -52.855  1.00  0.00     0.168 A 
HETATM   11  N   UNL     1     -43.129  58.688 -54.052  1.00  0.00    -0.233 NA
HETATM   12  N   UNL     1     -43.449  60.685 -52.725  1.00  0.00    -0.219 N 
HETATM   13  C   UNL     1     -42.824  59.470 -55.046  1.00  0.00     0.035 A 
HETATM   14  C   UNL     1     -42.467  58.841 -56.369  1.00  0.00     0.070 C 
HETATM   15  C   UNL     1     -42.811  60.962 -54.990  1.00  0.00     0.053 A 
HETATM   16  C   UNL     1     -43.136  61.516 -53.810  1.00  0.00     0.036 A 
HETATM   17  C   UNL     1     -43.189  62.999 -53.598  1.00  0.00     0.070 C 
HETATM   18  N   UNL     1     -43.803  61.065 -51.473  1.00  0.00    -0.177 NA
HETATM   19  C   UNL     1     -44.028  59.921 -50.832  1.00  0.00     0.160 A 
ENDBRANCH   1   9
BRANCH   5  20
HETATM   20  O   UNL     1     -39.890  53.927 -49.521  1.00  0.00    -0.385 OA
HETATM   21  H   UNL     1     -40.327  53.911 -48.651  1.00  0.00     0.211 HD
ENDBRANCH   5  20
BRANCH   5  22
HETATM   22  C   UNL     1     -40.581  53.811 -51.804  1.00  0.00    -0.024 A 
HETATM   23  C   UNL     1     -40.789  54.441 -53.044  1.00  0.00     0.010 A 
HETATM   24  C   UNL     1     -40.583  53.762 -54.249  1.00  0.00     0.001 A 
HETATM   25  C   UNL     1     -40.143  52.443 -54.243  1.00  0.00     0.000 A 
HETATM   26  C   UNL     1     -39.893  51.808 -53.033  1.00  0.00     0.001 A 
HETATM   27  C   UNL     1     -40.098  52.488 -51.830  1.00  0.00     0.010 A 
ENDBRANCH   5  22
TORSDOF 3
ENDMDL
MODEL 5
REMARK VINA RESULT:      -8.1      3.854      5.631
REMARK  3 active torsions:
REMARK  status: ('A' for Active; 'I' for Inactive)
REMARK    1  A    between atoms: C_8  and  C_9 
REMARK       I    between atoms: C_9  and  N_10 
REMARK    2  A    between atoms: C_13  and  O_14 
REMARK    3  A    between atoms: C_13  and  C_15 
ROOT
HETATM    1  C   UNL     1     -44.352  58.028 -51.242  1.00  0.00     0.259 C 
HETATM    2  N   UNL     1     -43.297  57.109 -51.092  1.00  0.00    -0.348 N 
HETATM    3  C   UNL     1     -41.888  57.439 -51.292  1.00  0.00     0.129 C 
HETATM    4  C   UNL     1     -40.927  56.486 -50.583  1.00  0.00     0.063 C 
HETATM    5  C   UNL     1     -41.240  55.007 -50.875  1.00  0.00     0.088 C 
HETATM    6  C   UNL     1     -42.693  54.792 -50.415  1.00  0.00     0.063 C 
HETATM    7  C   UNL     1     -43.657  55.694 -51.173  1.00  0.00     0.129 C 
HETATM    8  O   UNL     1     -45.524  57.660 -51.134  1.00  0.00    -0.267 OA
ENDROOT
BRANCH   1   9
HETATM    9  C   UNL     1     -44.096  59.445 -51.446  1.00  0.00     0.099 A 
HETATM   10  C   UNL     1     -44.179  60.529 -50.586  1.00  0.00     0.168 A 
HETATM   11  N   UNL     1     -44.574  60.645 -49.279  1.00  0.00    -0.233 NA
HETATM   12  N   UNL     1     -43.725  61.644 -51.311  1.00  0.00    -0.219 N 
HETATM   13  C   UNL     1     -44.553  61.836 -48.756  1.00  0.00     0.035 A 
HETATM   14  C   UNL     1     -45.006  61.999 -47.327  1.00  0.00     0.070 C 
HETATM   15  C   UNL     1     -44.098  63.073 -49.458  1.00  0.00     0.053 A 
HETATM   16  C   UNL     1     -43.689  62.919 -50.729  1.00  0.00     0.036 A 
HETATM   17  C   UNL     1     -43.185  64.059 -51.560  1.00  0.00     0.070 C 
HETATM   18  N   UNL     1     -43.349  61.304 -52.569  1.00  0.00    -0.177 NA
HETATM   19  C   UNL     1     -43.538  59.988 -52.624  1.00  0.00     0.160 A 
ENDBRANCH   1   9
BRANCH   5  20
HETATM   20  O   UNL     1     -40.401  54.233 -50.000  1.00  0.00    -0.385 OA
HETATM   21  H   UNL     1     -39.807  53.691 -50.549  1.00  0.00     0.211 HD
ENDBRANCH   5  20
BRANCH   5  22
HETATM   22  C   UNL     1     -40.959  54.521 -52.304  1.00  0.00    -0.024 A 
HETATM   23  C   UNL     1     -40.838  55.401 -53.394  1.00  0.00     0.010 A 
HETATM   24  C   UNL     1     -40.576  54.929 -54.685  1.00  0.00     0.001 A 
HETATM   25  C   UNL     1     -40.408  53.568 -54.912  1.00  0.00     0.000 A 
HETATM   26  C   UNL     1     -40.484  52.679 -53.847  1.00  0.00     0.001 A 
HETATM   27  C   UNL     1     -40.744  53.152 -52.558  1.00  0.00     0.010 A 
ENDBRANCH   5  22
TORSDOF 3
ENDMDL
MODEL 6
REMARK VINA RESULT:      -8.1      2.782      7.687
REMARK  3 active torsions:
REMARK  status: ('A' for Active; 'I' for Inactive)
REMARK    1  A    between atoms: C_8  and  C_9 
REMARK       I    between atoms: C_9  and  N_10 
REMARK    2  A    between atoms: C_13  and  O_14 
REMARK    3  A    between atoms: C_13  and  C_15 
ROOT
HETATM    1  C   UNL     1     -42.989  55.266 -53.971  1.00  0.00     0.259 C 
HETATM    2  N   UNL     1     -42.622  56.624 -53.968  1.00  0.00    -0.348 N 
HETATM    3  C   UNL     1     -41.380  57.137 -53.394  1.00  0.00     0.129 C 
HETATM    4  C   UNL     1     -40.957  58.492 -53.957  1.00  0.00     0.063 C 
HETATM    5  C   UNL     1     -42.098  59.527 -53.927  1.00  0.00     0.088 C 
HETATM    6  C   UNL     1     -43.242  58.905 -54.749  1.00  0.00     0.063 C 
HETATM    7  C   UNL     1     -43.708  57.587 -54.146  1.00  0.00     0.129 C 
HETATM    8  O   UNL     1     -44.089  54.915 -54.403  1.00  0.00    -0.267 OA
ENDROOT
BRANCH   1   9
HETATM    9  C   UNL     1     -42.059  54.232 -53.543  1.00  0.00     0.099 A 
HETATM   10  C   UNL     1     -41.518  53.937 -52.301  1.00  0.00     0.168 A 
HETATM   11  N   UNL     1     -41.631  54.540 -51.076  1.00  0.00    -0.233 NA
HETATM   12  N   UNL     1     -40.751  52.772 -52.472  1.00  0.00    -0.219 N 
HETATM   13  C   UNL     1     -40.964  54.013 -50.091  1.00  0.00     0.035 A 
HETATM   14  C   UNL     1     -41.049  54.669 -48.736  1.00  0.00     0.070 C 
HETATM   15  C   UNL     1     -40.118  52.786 -50.188  1.00  0.00     0.053 A 
HETATM   16  C   UNL     1     -40.052  52.203 -51.397  1.00  0.00     0.036 A 
HETATM   17  C   UNL     1     -39.263  50.955 -51.652  1.00  0.00     0.070 C 
HETATM   18  N   UNL     1     -40.804  52.320 -53.749  1.00  0.00    -0.177 NA
HETATM   19  C   UNL     1     -41.615  53.174 -54.366  1.00  0.00     0.160 A 
ENDBRANCH   1   9
BRANCH   5  20
HETATM   20  O   UNL     1     -41.627  60.672 -54.659  1.00  0.00    -0.385 OA
HETATM   21  H   UNL     1     -41.452  60.396 -55.575  1.00  0.00     0.211 HD
ENDBRANCH   5  20
BRANCH   5  22
HETATM   22  C   UNL     1     -42.526  60.029 -52.541  1.00  0.00    -0.024 A 
HETATM   23  C   UNL     1     -41.696  59.931 -51.410  1.00  0.00     0.010 A 
HETATM   24  C   UNL     1     -42.111  60.403 -50.160  1.00  0.00     0.001 A 
HETATM   25  C   UNL     1     -43.358  61.002 -50.016  1.00  0.00     0.000 A 
HETATM   26  C   UNL     1     -44.183  61.146 -51.125  1.00  0.00     0.001 A 
HETATM   27  C   UNL     1     -43.766  60.676 -52.373  1.00  0.00     0.010 A 
ENDBRANCH   5  22
TORSDOF 3
ENDMDL
MODEL 7
REMARK VINA RESULT:      -8.1      1.770      2.457
REMARK  3 active torsions:
REMARK  status: ('A' for Active; 'I' for Inactive)
REMARK    1  A    between atoms: C_8  and  C_9 
REMARK       I    between atoms: C_9  and  N_10 
REMARK    2  A    between atoms: C_13  and  O_14 
REMARK    3  A    between atoms: C_13  and  C_15 
ROOT
HETATM    1  C   UNL     1     -43.894  57.504 -54.981  1.00  0.00     0.259 C 
HETATM    2  N   UNL     1     -43.113  57.417 -53.814  1.00  0.00    -0.348 N 
HETATM    3  C   UNL     1     -41.655  57.516 -53.794  1.00  0.00     0.129 C 
HETATM    4  C   UNL     1     -41.086  57.920 -52.435  1.00  0.00     0.063 C 
HETATM    5  C   UNL     1     -41.640  57.061 -51.283  1.00  0.00     0.088 C 
HETATM    6  C   UNL     1     -43.169  57.240 -51.332  1.00  0.00     0.063 C 
HETATM    7  C   UNL     1     -43.742  56.772 -52.663  1.00  0.00     0.129 C 
HETATM    8  O   UNL     1     -45.114  57.333 -54.933  1.00  0.00    -0.267 OA
ENDROOT
BRANCH   1   9
HETATM    9  C   UNL     1     -43.304  57.875 -56.258  1.00  0.00     0.099 A 
HETATM   10  C   UNL     1     -43.350  57.268 -57.504  1.00  0.00     0.168 A 
HETATM   11  N   UNL     1     -43.914  56.100 -57.945  1.00  0.00    -0.233 NA
HETATM   12  N   UNL     1     -42.670  58.127 -58.385  1.00  0.00    -0.219 N 
HETATM   13  C   UNL     1     -43.755  55.800 -59.200  1.00  0.00     0.035 A 
HETATM   14  C   UNL     1     -44.344  54.509 -59.709  1.00  0.00     0.070 C 
HETATM   15  C   UNL     1     -43.039  56.648 -60.200  1.00  0.00     0.053 A 
HETATM   16  C   UNL     1     -42.522  57.801 -59.741  1.00  0.00     0.036 A 
HETATM   17  C   UNL     1     -41.794  58.769 -60.623  1.00  0.00     0.070 C 
HETATM   18  N   UNL     1     -42.223  59.240 -57.755  1.00  0.00    -0.177 NA
HETATM   19  C   UNL     1     -42.640  59.097 -56.500  1.00  0.00     0.160 A 
ENDBRANCH   1   9
BRANCH   5  20
HETATM   20  O   UNL     1     -41.183  57.672 -50.064  1.00  0.00    -0.385 OA
HETATM   21  H   UNL     1     -41.945  57.762 -49.465  1.00  0.00     0.211 HD
ENDBRANCH   5  20
BRANCH   5  22
HETATM   22  C   UNL     1     -41.184  55.596 -51.245  1.00  0.00    -0.024 A 
HETATM   23  C   UNL     1     -41.037  54.818 -52.406  1.00  0.00     0.010 A 
HETATM   24  C   UNL     1     -40.613  53.486 -52.340  1.00  0.00     0.001 A 
HETATM   25  C   UNL     1     -40.307  52.908 -51.113  1.00  0.00     0.000 A 
HETATM   26  C   UNL     1     -40.407  53.666 -49.953  1.00  0.00     0.001 A 
HETATM   27  C   UNL     1     -40.828  54.996 -50.020  1.00  0.00     0.010 A 
ENDBRANCH   5  22
TORSDOF 3
ENDMDL
MODEL 8
REMARK VINA RESULT:      -7.9      2.711      3.712
REMARK  3 active torsions:
REMARK  status: ('A' for Active; 'I' for Inactive)
REMARK    1  A    between atoms: C_8  and  C_9 
REMARK       I    between atoms: C_9  and  N_10 
REMARK    2  A    between atoms: C_13  and  O_14 
REMARK    3  A    between atoms: C_13  and  C_15 
ROOT
HETATM    1  C   UNL     1     -42.365  57.508 -56.125  1.00  0.00     0.259 C 
HETATM    2  N   UNL     1     -42.213  56.238 -55.537  1.00  0.00    -0.348 N 
HETATM    3  C   UNL     1     -43.327  55.387 -55.124  1.00  0.00     0.129 C 
HETATM    4  C   UNL     1     -42.963  53.907 -55.020  1.00  0.00     0.063 C 
HETATM    5  C   UNL     1     -41.691  53.669 -54.185  1.00  0.00     0.088 C 
HETATM    6  C   UNL     1     -40.581  54.477 -54.883  1.00  0.00     0.063 C 
HETATM    7  C   UNL     1     -40.915  55.962 -54.924  1.00  0.00     0.129 C 
HETATM    8  O   UNL     1     -41.379  58.204 -56.376  1.00  0.00    -0.267 OA
ENDROOT
BRANCH   1   9
HETATM    9  C   UNL     1     -43.673  58.002 -56.526  1.00  0.00     0.099 A 
HETATM   10  C   UNL     1     -44.500  57.660 -57.585  1.00  0.00     0.168 A 
HETATM   11  N   UNL     1     -44.352  56.789 -58.632  1.00  0.00    -0.233 NA
HETATM   12  N   UNL     1     -45.681  58.405 -57.418  1.00  0.00    -0.219 N 
HETATM   13  C   UNL     1     -45.331  56.714 -59.486  1.00  0.00     0.035 A 
HETATM   14  C   UNL     1     -45.186  55.782 -60.662  1.00  0.00     0.070 C 
HETATM   15  C   UNL     1     -46.612  57.476 -59.390  1.00  0.00     0.053 A 
HETATM   16  C   UNL     1     -46.737  58.300 -58.336  1.00  0.00     0.036 A 
HETATM   17  C   UNL     1     -47.968  59.117 -58.088  1.00  0.00     0.070 C 
HETATM   18  N   UNL     1     -45.635  59.174 -56.303  1.00  0.00    -0.177 NA
HETATM   19  C   UNL     1     -44.452  58.897 -55.761  1.00  0.00     0.160 A 
ENDBRANCH   1   9
BRANCH   5  20
HETATM   20  O   UNL     1     -41.359  52.278 -54.338  1.00  0.00    -0.385 OA
HETATM   21  H   UNL     1     -40.969  51.966 -53.503  1.00  0.00     0.211 HD
ENDBRANCH   5  20
BRANCH   5  22
HETATM   22  C   UNL     1     -41.804  53.937 -52.678  1.00  0.00    -0.024 A 
HETATM   23  C   UNL     1     -43.035  54.174 -52.041  1.00  0.00     0.010 A 
HETATM   24  C   UNL     1     -43.108  54.409 -50.664  1.00  0.00     0.001 A 
HETATM   25  C   UNL     1     -41.954  54.393 -49.888  1.00  0.00     0.000 A 
HETATM   26  C   UNL     1     -40.729  54.124 -50.486  1.00  0.00     0.001 A 
HETATM   27  C   UNL     1     -40.658  53.887 -51.861  1.00  0.00     0.010 A 
ENDBRANCH   5  22
TORSDOF 3
ENDMDL
MODEL 9
REMARK VINA RESULT:      -7.9      1.096      2.346
REMARK  3 active torsions:
REMARK  status: ('A' for Active; 'I' for Inactive)
REMARK    1  A    between atoms: C_8  and  C_9 
REMARK       I    between atoms: C_9  and  N_10 
REMARK    2  A    between atoms: C_13  and  O_14 
REMARK    3  A    between atoms: C_13  and  C_15 
ROOT
HETATM    1  C   UNL     1     -43.663  55.944 -54.470  1.00  0.00     0.259 C 
HETATM    2  N   UNL     1     -42.725  55.401 -53.573  1.00  0.00    -0.348 N 
HETATM    3  C   UNL     1     -41.277  55.551 -53.709  1.00  0.00     0.129 C 
HETATM    4  C   UNL     1     -40.514  55.358 -52.400  1.00  0.00     0.063 C 
HETATM    5  C   UNL     1     -40.912  54.063 -51.669  1.00  0.00     0.088 C 
HETATM    6  C   UNL     1     -42.429  54.172 -51.429  1.00  0.00     0.063 C 
HETATM    7  C   UNL     1     -43.193  54.294 -52.741  1.00  0.00     0.129 C 
HETATM    8  O   UNL     1     -44.866  55.711 -54.336  1.00  0.00    -0.267 OA
ENDROOT
BRANCH   1   9
HETATM    9  C   UNL     1     -43.255  56.856 -55.528  1.00  0.00     0.099 A 
HETATM   10  C   UNL     1     -42.984  58.216 -55.516  1.00  0.00     0.168 A 
HETATM   11  N   UNL     1     -43.054  59.166 -54.531  1.00  0.00    -0.233 NA
HETATM   12  N   UNL     1     -42.547  58.541 -56.813  1.00  0.00    -0.219 N 
HETATM   13  C   UNL     1     -42.743  60.385 -54.859  1.00  0.00     0.035 A 
HETATM   14  C   UNL     1     -42.834  61.457 -53.802  1.00  0.00     0.070 C 
HETATM   15  C   UNL     1     -42.282  60.819 -56.212  1.00  0.00     0.053 A 
HETATM   16  C   UNL     1     -42.197  59.857 -57.147  1.00  0.00     0.036 A 
HETATM   17  C   UNL     1     -41.732  60.128 -58.546  1.00  0.00     0.070 C 
HETATM   18  N   UNL     1     -42.518  57.452 -57.619  1.00  0.00    -0.177 NA
HETATM   19  C   UNL     1     -42.903  56.451 -56.834  1.00  0.00     0.160 A 
ENDBRANCH   1   9
BRANCH   5  20
HETATM   20  O   UNL     1     -40.276  54.111 -50.380  1.00  0.00    -0.385 OA
HETATM   21  H   UNL     1     -39.344  53.856 -50.492  1.00  0.00     0.211 HD
ENDBRANCH   5  20
BRANCH   5  22
HETATM   22  C   UNL     1     -40.478  52.747 -52.330  1.00  0.00    -0.024 A 
HETATM   23  C   UNL     1     -40.598  52.517 -53.712  1.00  0.00     0.010 A 
HETATM   24  C   UNL     1     -40.188  51.309 -54.287  1.00  0.00     0.001 A 
HETATM   25  C   UNL     1     -39.629  50.311 -53.497  1.00  0.00     0.000 A 
HETATM   26  C   UNL     1     -39.463  50.527 -52.134  1.00  0.00     0.001 A 
HETATM   27  C   UNL     1     -39.871  51.734 -51.561  1.00  0.00     0.010 A 
ENDBRANCH   5  22
TORSDOF 3
ENDMDL
MODEL 10
REMARK VINA RESULT:      -7.9      1.684      2.231
REMARK  3 active torsions:
REMARK  status: ('A' for Active; 'I' for Inactive)
REMARK    1  A    between atoms: C_8  and  C_9 
REMARK       I    between atoms: C_9  and  N_10 
REMARK    2  A    between atoms: C_13  and  O_14 
REMARK    3  A    between atoms: C_13  and  C_15 
ROOT
HETATM    1  C   UNL     1     -44.234  57.635 -55.091  1.00  0.00     0.259 C 
HETATM    2  N   UNL     1     -43.261  57.303 -54.131  1.00  0.00    -0.348 N 
HETATM    3  C   UNL     1     -41.820  57.424 -54.348  1.00  0.00     0.129 C 
HETATM    4  C   UNL     1     -41.011  57.522 -53.056  1.00  0.00     0.063 C 
HETATM    5  C   UNL     1     -41.371  56.415 -52.047  1.00  0.00     0.088 C 
HETATM    6  C   UNL     1     -42.880  56.570 -51.784  1.00  0.00     0.063 C 
HETATM    7  C   UNL     1     -43.689  56.402 -53.063  1.00  0.00     0.129 C 
HETATM    8  O   UNL     1     -45.429  57.433 -54.868  1.00  0.00    -0.267 OA
ENDROOT
BRANCH   1   9
HETATM    9  C   UNL     1     -43.872  58.297 -56.335  1.00  0.00     0.099 A 
HETATM   10  C   UNL     1     -43.819  57.836 -57.642  1.00  0.00     0.168 A 
HETATM   11  N   UNL     1     -44.035  56.602 -58.197  1.00  0.00    -0.233 NA
HETATM   12  N   UNL     1     -43.490  58.946 -58.439  1.00  0.00    -0.219 N 
HETATM   13  C   UNL     1     -43.881  56.495 -59.484  1.00  0.00     0.035 A 
HETATM   14  C   UNL     1     -44.089  55.144 -60.121  1.00  0.00     0.070 C 
HETATM   15  C   UNL     1     -43.522  57.618 -60.402  1.00  0.00     0.053 A 
HETATM   16  C   UNL     1     -43.345  58.821 -59.828  1.00  0.00     0.036 A 
HETATM   17  C   UNL     1     -43.002  60.049 -60.614  1.00  0.00     0.070 C 
HETATM   18  N   UNL     1     -43.355  60.072 -57.697  1.00  0.00    -0.177 NA
HETATM   19  C   UNL     1     -43.622  59.682 -56.454  1.00  0.00     0.160 A 
ENDBRANCH   1   9
BRANCH   5  20
HETATM   20  O   UNL     1     -40.693  56.744 -50.823  1.00  0.00    -0.385 OA
HETATM   21  H   UNL     1     -40.436  57.682 -50.861  1.00  0.00     0.211 HD
ENDBRANCH   5  20
BRANCH   5  22
HETATM   22  C   UNL     1     -40.945  54.989 -52.422  1.00  0.00    -0.024 A 
HETATM   23  C   UNL     1     -40.797  53.967 -51.468  1.00  0.00     0.010 A 
HETATM   24  C   UNL     1     -40.413  52.673 -51.841  1.00  0.00     0.001 A 
HETATM   25  C   UNL     1     -40.189  52.367 -53.179  1.00  0.00     0.000 A 
HETATM   26  C   UNL     1     -40.366  53.349 -54.146  1.00  0.00     0.001 A 
HETATM   27  C   UNL     1     -40.751  54.639 -53.773  1.00  0.00     0.010 A 
ENDBRANCH   5  22
TORSDOF 3
ENDMDL
