MODEL 1
REMARK VINA RESULT:      -8.3      0.000      0.000
REMARK  7 active torsions:
REMARK  status: ('A' for Active; 'I' for Inactive)
REMARK    1  A    between atoms: C_2  and  O_3 
REMARK    2  A    between atoms: O_3  and  C_4 
REMARK    3  A    between atoms: C_9  and  C_10 
REMARK       I    between atoms: C_10  and  N_11 
REMARK    4  A    between atoms: N_11  and  C_12 
REMARK    5  A    between atoms: C_12  and  C_13 
REMARK    6  A    between atoms: C_14  and  C_15 
REMARK    7  A    between atoms: C_15  and  N_16 
ROOT
HETATM    1  C   UNL     1     -42.390  55.033 -55.009  1.00  0.00     0.276 C 
HETATM    2  N   UNL     1     -41.108  54.510 -54.922  1.00  0.00    -0.351 N 
HETATM    3  O   UNL     1     -43.191  54.883 -54.087  1.00  0.00    -0.265 OA
HETATM    4  H   UNL     1     -40.459  54.783 -55.651  1.00  0.00     0.163 HD
ENDROOT
BRANCH   2   5
HETATM    5  C   UNL     1     -40.541  54.247 -53.623  1.00  0.00     0.162 C 
BRANCH   5   6
HETATM    6  C   UNL     1     -40.239  52.783 -53.429  1.00  0.00    -0.033 A 
HETATM    7  C   UNL     1     -39.830  52.238 -52.189  1.00  0.00    -0.025 A 
HETATM    8  C   UNL     1     -39.574  50.853 -52.107  1.00  0.00     0.009 A 
HETATM    9  C   UNL     1     -39.711  50.028 -53.221  1.00  0.00     0.001 A 
HETATM   10  C   UNL     1     -40.116  50.566 -54.436  1.00  0.00     0.001 A 
HETATM   11  C   UNL     1     -40.383  51.928 -54.537  1.00  0.00     0.009 A 
BRANCH   7  12
HETATM   12  C   UNL     1     -39.653  53.071 -50.938  1.00  0.00     0.274 C 
BRANCH  12  13
HETATM   13  N   UNL     1     -40.835  52.985 -49.997  1.00  0.00    -0.067 N 
HETATM   14  H   UNL     1     -41.058  51.989 -49.886  1.00  0.00     0.280 HD
HETATM   15  C   UNL     1     -42.054  53.713 -50.499  1.00  0.00     0.235 C 
HETATM   16  C   UNL     1     -41.855  55.137 -50.025  1.00  0.00     0.029 C 
HETATM   17  C   UNL     1     -40.998  55.041 -48.770  1.00  0.00     0.029 C 
HETATM   18  C   UNL     1     -40.599  53.581 -48.634  1.00  0.00     0.235 C 
ENDBRANCH  12  13
ENDBRANCH   7  12
ENDBRANCH   5   6
ENDBRANCH   2   5
BRANCH   1  19
HETATM   19  C   UNL     1     -42.660  55.786 -56.214  1.00  0.00     0.150 A 
HETATM   20  O   UNL     1     -43.003  55.058 -57.319  1.00  0.00    -0.304 OA
HETATM   21  C   UNL     1     -43.299  55.931 -58.314  1.00  0.00     0.087 A 
HETATM   22  C   UNL     1     -43.116  57.235 -57.878  1.00  0.00     0.009 A 
HETATM   23  C   UNL     1     -43.734  55.584 -59.589  1.00  0.00     0.041 A 
HETATM   24  C   UNL     1     -43.363  58.277 -58.793  1.00  0.00     0.051 A 
HETATM   25  C   UNL     1     -42.696  57.144 -56.511  1.00  0.00    -0.009 A 
HETATM   26  C   UNL     1     -43.782  57.968 -60.099  1.00  0.00     0.069 A 
HETATM   27  C   UNL     1     -43.980  56.637 -60.480  1.00  0.00     0.039 A 
HETATM   28  C   UNL     1     -42.356  58.289 -55.629  1.00  0.00     0.052 C 
BRANCH  26  29
HETATM   29  O   UNL     1     -43.973  59.061 -60.902  1.00  0.00    -0.351 OA
BRANCH  29  30
HETATM   30  C   UNL     1     -43.239  60.241 -60.575  1.00  0.00     0.171 C 
HETATM   31  C   UNL     1     -42.073  60.354 -61.541  1.00  0.00     0.034 C 
ENDBRANCH  29  30
ENDBRANCH  26  29
ENDBRANCH   1  19
TORSDOF 7
ENDMDL
MODEL 2
REMARK VINA RESULT:      -8.0      3.872      8.229
REMARK  7 active torsions:
REMARK  status: ('A' for Active; 'I' for Inactive)
REMARK    1  A    between atoms: C_2  and  O_3 
REMARK    2  A    between atoms: O_3  and  C_4 
REMARK    3  A    between atoms: C_9  and  C_10 
REMARK       I    between atoms: C_10  and  N_11 
REMARK    4  A    between atoms: N_11  and  C_12 
REMARK    5  A    between atoms: C_12  and  C_13 
REMARK    6  A    between atoms: C_14  and  C_15 
REMARK    7  A    between atoms: C_15  and  N_16 
ROOT
HETATM    1  C   UNL     1     -44.183  56.713 -53.643  1.00  0.00     0.276 C 
HETATM    2  N   UNL     1     -44.545  57.399 -52.493  1.00  0.00    -0.351 N 
HETATM    3  O   UNL     1     -44.691  56.997 -54.728  1.00  0.00    -0.265 OA
HETATM    4  H   UNL     1     -43.994  57.210 -51.664  1.00  0.00     0.163 HD
ENDROOT
BRANCH   2   5
HETATM    5  C   UNL     1     -45.098  58.726 -52.609  1.00  0.00     0.162 C 
BRANCH   5   6
HETATM    6  C   UNL     1     -44.715  59.596 -51.439  1.00  0.00    -0.033 A 
HETATM    7  C   UNL     1     -43.437  60.187 -51.304  1.00  0.00    -0.025 A 
HETATM    8  C   UNL     1     -43.177  60.990 -50.174  1.00  0.00     0.009 A 
HETATM    9  C   UNL     1     -44.149  61.199 -49.198  1.00  0.00     0.001 A 
HETATM   10  C   UNL     1     -45.404  60.620 -49.335  1.00  0.00     0.001 A 
HETATM   11  C   UNL     1     -45.686  59.832 -50.448  1.00  0.00     0.009 A 
BRANCH   7  12
HETATM   12  C   UNL     1     -42.329  60.001 -52.317  1.00  0.00     0.274 C 
BRANCH  12  13
HETATM   13  N   UNL     1     -41.591  58.689 -52.152  1.00  0.00    -0.067 N 
HETATM   14  H   UNL     1     -42.274  57.939 -52.307  1.00  0.00     0.280 HD
HETATM   15  C   UNL     1     -40.969  58.520 -50.791  1.00  0.00     0.235 C 
HETATM   16  C   UNL     1     -39.619  59.197 -50.915  1.00  0.00     0.029 C 
HETATM   17  C   UNL     1     -39.237  59.092 -52.386  1.00  0.00     0.029 C 
HETATM   18  C   UNL     1     -40.437  58.493 -53.100  1.00  0.00     0.235 C 
ENDBRANCH  12  13
ENDBRANCH   7  12
ENDBRANCH   5   6
ENDBRANCH   2   5
BRANCH   1  19
HETATM   19  C   UNL     1     -43.154  55.714 -53.458  1.00  0.00     0.150 A 
HETATM   20  O   UNL     1     -42.506  55.727 -52.254  1.00  0.00    -0.304 OA
HETATM   21  C   UNL     1     -41.648  54.677 -52.235  1.00  0.00     0.087 A 
HETATM   22  C   UNL     1     -41.701  53.992 -53.440  1.00  0.00     0.009 A 
HETATM   23  C   UNL     1     -40.833  54.321 -51.165  1.00  0.00     0.041 A 
HETATM   24  C   UNL     1     -40.857  52.876 -53.601  1.00  0.00     0.051 A 
HETATM   25  C   UNL     1     -42.678  54.667 -54.240  1.00  0.00    -0.009 A 
HETATM   26  C   UNL     1     -40.002  52.497 -52.552  1.00  0.00     0.069 A 
HETATM   27  C   UNL     1     -40.008  53.204 -51.346  1.00  0.00     0.039 A 
HETATM   28  C   UNL     1     -43.063  54.306 -55.628  1.00  0.00     0.052 C 
BRANCH  26  29
HETATM   29  O   UNL     1     -39.217  51.409 -52.831  1.00  0.00    -0.351 OA
BRANCH  29  30
HETATM   30  C   UNL     1     -39.888  50.177 -53.094  1.00  0.00     0.171 C 
HETATM   31  C   UNL     1     -39.600  49.780 -54.531  1.00  0.00     0.034 C 
ENDBRANCH  29  30
ENDBRANCH  26  29
ENDBRANCH   1  19
TORSDOF 7
ENDMDL
MODEL 3
REMARK VINA RESULT:      -7.9      3.953      9.017
REMARK  7 active torsions:
REMARK  status: ('A' for Active; 'I' for Inactive)
REMARK    1  A    between atoms: C_2  and  O_3 
REMARK    2  A    between atoms: O_3  and  C_4 
REMARK    3  A    between atoms: C_9  and  C_10 
REMARK       I    between atoms: C_10  and  N_11 
REMARK    4  A    between atoms: N_11  and  C_12 
REMARK    5  A    between atoms: C_12  and  C_13 
REMARK    6  A    between atoms: C_14  and  C_15 
REMARK    7  A    between atoms: C_15  and  N_16 
ROOT
HETATM    1  C   UNL     1     -43.971  56.681 -50.963  1.00  0.00     0.276 C 
HETATM    2  N   UNL     1     -43.623  58.003 -51.200  1.00  0.00    -0.351 N 
HETATM    3  O   UNL     1     -45.070  56.399 -50.486  1.00  0.00    -0.265 OA
HETATM    4  H   UNL     1     -42.765  58.158 -51.716  1.00  0.00     0.163 HD
ENDROOT
BRANCH   2   5
HETATM    5  C   UNL     1     -44.664  58.985 -51.375  1.00  0.00     0.162 C 
BRANCH   5   6
HETATM    6  C   UNL     1     -44.144  60.390 -51.204  1.00  0.00    -0.033 A 
HETATM    7  C   UNL     1     -43.669  61.173 -52.282  1.00  0.00    -0.025 A 
HETATM    8  C   UNL     1     -43.206  62.479 -52.020  1.00  0.00     0.009 A 
HETATM    9  C   UNL     1     -43.204  62.998 -50.727  1.00  0.00     0.001 A 
HETATM   10  C   UNL     1     -43.673  62.227 -49.671  1.00  0.00     0.001 A 
HETATM   11  C   UNL     1     -44.144  60.939 -49.908  1.00  0.00     0.009 A 
BRANCH   7  12
HETATM   12  C   UNL     1     -43.634  60.677 -53.711  1.00  0.00     0.274 C 
BRANCH  12  13
HETATM   13  N   UNL     1     -42.227  60.536 -54.254  1.00  0.00    -0.067 N 
HETATM   14  H   UNL     1     -41.797  61.467 -54.217  1.00  0.00     0.280 HD
HETATM   15  C   UNL     1     -42.181  60.023 -55.668  1.00  0.00     0.235 C 
HETATM   16  C   UNL     1     -42.211  58.516 -55.517  1.00  0.00     0.029 C 
HETATM   17  C   UNL     1     -41.590  58.224 -54.157  1.00  0.00     0.029 C 
HETATM   18  C   UNL     1     -41.354  59.571 -53.494  1.00  0.00     0.235 C 
ENDBRANCH  12  13
ENDBRANCH   7  12
ENDBRANCH   5   6
ENDBRANCH   2   5
BRANCH   1  19
HETATM   19  C   UNL     1     -42.980  55.708 -51.367  1.00  0.00     0.150 A 
HETATM   20  O   UNL     1     -42.059  55.353 -50.421  1.00  0.00    -0.304 OA
HETATM   21  C   UNL     1     -41.277  54.380 -50.951  1.00  0.00     0.087 A 
HETATM   22  C   UNL     1     -41.656  54.119 -52.259  1.00  0.00     0.009 A 
HETATM   23  C   UNL     1     -40.245  53.724 -50.286  1.00  0.00     0.041 A 
HETATM   24  C   UNL     1     -40.934  53.142 -52.972  1.00  0.00     0.051 A 
HETATM   25  C   UNL     1     -42.762  54.986 -52.535  1.00  0.00    -0.009 A 
HETATM   26  C   UNL     1     -39.870  52.471 -52.344  1.00  0.00     0.069 A 
HETATM   27  C   UNL     1     -39.546  52.751 -51.013  1.00  0.00     0.039 A 
HETATM   28  C   UNL     1     -43.491  55.080 -53.825  1.00  0.00     0.052 C 
BRANCH  26  29
HETATM   29  O   UNL     1     -39.232  51.556 -53.141  1.00  0.00    -0.351 OA
BRANCH  29  30
HETATM   30  C   UNL     1     -39.773  50.235 -53.170  1.00  0.00     0.171 C 
HETATM   31  C   UNL     1     -39.992  49.847 -54.621  1.00  0.00     0.034 C 
ENDBRANCH  29  30
ENDBRANCH  26  29
ENDBRANCH   1  19
TORSDOF 7
ENDMDL
MODEL 4
REMARK VINA RESULT:      -7.8      3.770      8.676
REMARK  7 active torsions:
REMARK  status: ('A' for Active; 'I' for Inactive)
REMARK    1  A    between atoms: C_2  and  O_3 
REMARK    2  A    between atoms: O_3  and  C_4 
REMARK    3  A    between atoms: C_9  and  C_10 
REMARK       I    between atoms: C_10  and  N_11 
REMARK    4  A    between atoms: N_11  and  C_12 
REMARK    5  A    between atoms: C_12  and  C_13 
REMARK    6  A    between atoms: C_14  and  C_15 
REMARK    7  A    between atoms: C_15  and  N_16 
ROOT
HETATM    1  C   UNL     1     -44.071  56.703 -50.971  1.00  0.00     0.276 C 
HETATM    2  N   UNL     1     -43.716  58.014 -51.251  1.00  0.00    -0.351 N 
HETATM    3  O   UNL     1     -45.105  56.453 -50.352  1.00  0.00    -0.265 OA
HETATM    4  H   UNL     1     -42.930  58.144 -51.878  1.00  0.00     0.163 HD
ENDROOT
BRANCH   2   5
HETATM    5  C   UNL     1     -44.739  59.029 -51.285  1.00  0.00     0.162 C 
BRANCH   5   6
HETATM    6  C   UNL     1     -44.160  60.414 -51.142  1.00  0.00    -0.033 A 
HETATM    7  C   UNL     1     -43.643  61.149 -52.234  1.00  0.00    -0.025 A 
HETATM    8  C   UNL     1     -43.125  62.440 -51.999  1.00  0.00     0.009 A 
HETATM    9  C   UNL     1     -43.111  62.989 -50.719  1.00  0.00     0.001 A 
HETATM   10  C   UNL     1     -43.622  62.266 -49.649  1.00  0.00     0.001 A 
HETATM   11  C   UNL     1     -44.147  60.993 -49.860  1.00  0.00     0.009 A 
BRANCH   7  12
HETATM   12  C   UNL     1     -43.616  60.618 -53.650  1.00  0.00     0.274 C 
BRANCH  12  13
HETATM   13  N   UNL     1     -42.214  60.480 -54.205  1.00  0.00    -0.067 N 
HETATM   14  H   UNL     1     -41.792  61.416 -54.190  1.00  0.00     0.280 HD
HETATM   15  C   UNL     1     -42.178  59.941 -55.610  1.00  0.00     0.235 C 
HETATM   16  C   UNL     1     -42.192  58.437 -55.430  1.00  0.00     0.029 C 
HETATM   17  C   UNL     1     -41.554  58.176 -54.072  1.00  0.00     0.029 C 
HETATM   18  C   UNL     1     -41.324  59.537 -53.437  1.00  0.00     0.235 C 
ENDBRANCH  12  13
ENDBRANCH   7  12
ENDBRANCH   5   6
ENDBRANCH   2   5
BRANCH   1  19
HETATM   19  C   UNL     1     -43.175  55.701 -51.505  1.00  0.00     0.150 A 
HETATM   20  O   UNL     1     -43.311  55.414 -52.834  1.00  0.00    -0.304 OA
HETATM   21  C   UNL     1     -42.340  54.527 -53.167  1.00  0.00     0.087 A 
HETATM   22  C   UNL     1     -41.586  54.200 -52.050  1.00  0.00     0.009 A 
HETATM   23  C   UNL     1     -42.115  54.018 -54.442  1.00  0.00     0.041 A 
HETATM   24  C   UNL     1     -40.538  53.272 -52.210  1.00  0.00     0.051 A 
HETATM   25  C   UNL     1     -42.130  54.960 -50.964  1.00  0.00    -0.009 A 
HETATM   26  C   UNL     1     -40.292  52.717 -53.478  1.00  0.00     0.069 A 
HETATM   27  C   UNL     1     -41.063  53.102 -54.579  1.00  0.00     0.039 A 
HETATM   28  C   UNL     1     -41.660  54.922 -49.556  1.00  0.00     0.052 C 
BRANCH  26  29
HETATM   29  O   UNL     1     -39.261  51.815 -53.507  1.00  0.00    -0.351 OA
BRANCH  29  30
HETATM   30  C   UNL     1     -39.586  50.452 -53.230  1.00  0.00     0.171 C 
HETATM   31  C   UNL     1     -39.824  49.745 -54.552  1.00  0.00     0.034 C 
ENDBRANCH  29  30
ENDBRANCH  26  29
ENDBRANCH   1  19
TORSDOF 7
ENDMDL
MODEL 5
REMARK VINA RESULT:      -7.7      2.677      9.234
REMARK  7 active torsions:
REMARK  status: ('A' for Active; 'I' for Inactive)
REMARK    1  A    between atoms: C_2  and  O_3 
REMARK    2  A    between atoms: O_3  and  C_4 
REMARK    3  A    between atoms: C_9  and  C_10 
REMARK       I    between atoms: C_10  and  N_11 
REMARK    4  A    between atoms: N_11  and  C_12 
REMARK    5  A    between atoms: C_12  and  C_13 
REMARK    6  A    between atoms: C_14  and  C_15 
REMARK    7  A    between atoms: C_15  and  N_16 
ROOT
HETATM    1  C   UNL     1     -44.018  56.934 -54.833  1.00  0.00     0.276 C 
HETATM    2  N   UNL     1     -43.480  57.493 -55.983  1.00  0.00    -0.351 N 
HETATM    3  O   UNL     1     -45.129  57.277 -54.430  1.00  0.00    -0.265 OA
HETATM    4  H   UNL     1     -42.627  57.072 -56.332  1.00  0.00     0.163 HD
ENDROOT
BRANCH   2   5
HETATM    5  C   UNL     1     -44.364  58.066 -56.967  1.00  0.00     0.162 C 
BRANCH   5   6
HETATM    6  C   UNL     1     -43.613  58.884 -57.987  1.00  0.00    -0.033 A 
HETATM    7  C   UNL     1     -43.799  58.737 -59.381  1.00  0.00    -0.025 A 
HETATM    8  C   UNL     1     -43.051  59.553 -60.256  1.00  0.00     0.009 A 
HETATM    9  C   UNL     1     -42.137  60.484 -59.768  1.00  0.00     0.001 A 
HETATM   10  C   UNL     1     -41.958  60.628 -58.398  1.00  0.00     0.001 A 
HETATM   11  C   UNL     1     -42.694  59.840 -57.516  1.00  0.00     0.009 A 
BRANCH   7  12
HETATM   12  C   UNL     1     -44.767  57.744 -59.986  1.00  0.00     0.274 C 
BRANCH  12  13
HETATM   13  N   UNL     1     -44.073  56.596 -60.690  1.00  0.00    -0.067 N 
HETATM   14  H   UNL     1     -43.602  56.989 -61.512  1.00  0.00     0.280 HD
HETATM   15  C   UNL     1     -45.016  55.508 -61.130  1.00  0.00     0.235 C 
HETATM   16  C   UNL     1     -45.141  54.612 -59.916  1.00  0.00     0.029 C 
HETATM   17  C   UNL     1     -43.837  54.774 -59.145  1.00  0.00     0.029 C 
HETATM   18  C   UNL     1     -43.054  55.868 -59.851  1.00  0.00     0.235 C 
ENDBRANCH  12  13
ENDBRANCH   7  12
ENDBRANCH   5   6
ENDBRANCH   2   5
BRANCH   1  19
HETATM   19  C   UNL     1     -43.202  55.914 -54.212  1.00  0.00     0.150 A 
HETATM   20  O   UNL     1     -42.469  55.128 -55.058  1.00  0.00    -0.304 OA
HETATM   21  C   UNL     1     -41.712  54.298 -54.298  1.00  0.00     0.087 A 
HETATM   22  C   UNL     1     -41.972  54.509 -52.952  1.00  0.00     0.009 A 
HETATM   23  C   UNL     1     -40.795  53.371 -54.784  1.00  0.00     0.041 A 
HETATM   24  C   UNL     1     -41.282  53.715 -52.015  1.00  0.00     0.051 A 
HETATM   25  C   UNL     1     -42.946  55.558 -52.893  1.00  0.00    -0.009 A 
HETATM   26  C   UNL     1     -40.364  52.751 -52.466  1.00  0.00     0.069 A 
HETATM   27  C   UNL     1     -40.116  52.598 -53.833  1.00  0.00     0.039 A 
HETATM   28  C   UNL     1     -43.551  56.112 -51.656  1.00  0.00     0.052 C 
BRANCH  26  29
HETATM   29  O   UNL     1     -39.768  52.029 -51.465  1.00  0.00    -0.351 OA
BRANCH  29  30
HETATM   30  C   UNL     1     -39.381  50.690 -51.775  1.00  0.00     0.171 C 
HETATM   31  C   UNL     1     -39.796  49.799 -50.618  1.00  0.00     0.034 C 
ENDBRANCH  29  30
ENDBRANCH  26  29
ENDBRANCH   1  19
TORSDOF 7
ENDMDL
MODEL 6
REMARK VINA RESULT:      -7.5      5.206      8.790
REMARK  7 active torsions:
REMARK  status: ('A' for Active; 'I' for Inactive)
REMARK    1  A    between atoms: C_2  and  O_3 
REMARK    2  A    between atoms: O_3  and  C_4 
REMARK    3  A    between atoms: C_9  and  C_10 
REMARK       I    between atoms: C_10  and  N_11 
REMARK    4  A    between atoms: N_11  and  C_12 
REMARK    5  A    between atoms: C_12  and  C_13 
REMARK    6  A    between atoms: C_14  and  C_15 
REMARK    7  A    between atoms: C_15  and  N_16 
ROOT
HETATM    1  C   UNL     1     -41.308  58.467 -51.128  1.00  0.00     0.276 C 
HETATM    2  N   UNL     1     -41.969  59.454 -51.844  1.00  0.00    -0.351 N 
HETATM    3  O   UNL     1     -40.850  58.704 -50.010  1.00  0.00    -0.265 OA
HETATM    4  H   UNL     1     -42.437  59.158 -52.693  1.00  0.00     0.163 HD
ENDROOT
BRANCH   2   5
HETATM    5  C   UNL     1     -42.561  60.562 -51.136  1.00  0.00     0.162 C 
BRANCH   5   6
HETATM    6  C   UNL     1     -44.026  60.713 -51.458  1.00  0.00    -0.033 A 
HETATM    7  C   UNL     1     -44.984  61.144 -50.510  1.00  0.00    -0.025 A 
HETATM    8  C   UNL     1     -46.332  61.258 -50.911  1.00  0.00     0.009 A 
HETATM    9  C   UNL     1     -46.726  60.949 -52.210  1.00  0.00     0.001 A 
HETATM   10  C   UNL     1     -45.783  60.530 -53.140  1.00  0.00     0.001 A 
HETATM   11  C   UNL     1     -44.446  60.419 -52.769  1.00  0.00     0.009 A 
BRANCH   7  12
HETATM   12  C   UNL     1     -44.633  61.490 -49.080  1.00  0.00     0.274 C 
BRANCH  12  13
HETATM   13  N   UNL     1     -45.836  61.493 -48.160  1.00  0.00    -0.067 N 
HETATM   14  H   UNL     1     -46.653  61.251 -48.733  1.00  0.00     0.280 HD
HETATM   15  C   UNL     1     -46.074  62.821 -47.492  1.00  0.00     0.235 C 
HETATM   16  C   UNL     1     -45.201  62.775 -46.255  1.00  0.00     0.029 C 
HETATM   17  C   UNL     1     -45.074  61.301 -45.892  1.00  0.00     0.029 C 
HETATM   18  C   UNL     1     -45.750  60.524 -47.009  1.00  0.00     0.235 C 
ENDBRANCH  12  13
ENDBRANCH   7  12
ENDBRANCH   5   6
ENDBRANCH   2   5
BRANCH   1  19
HETATM   19  C   UNL     1     -41.263  57.173 -51.773  1.00  0.00     0.150 A 
HETATM   20  O   UNL     1     -40.998  57.175 -53.114  1.00  0.00    -0.304 OA
HETATM   21  C   UNL     1     -40.911  55.883 -53.519  1.00  0.00     0.087 A 
HETATM   22  C   UNL     1     -41.155  55.029 -52.455  1.00  0.00     0.009 A 
HETATM   23  C   UNL     1     -40.611  55.462 -54.811  1.00  0.00     0.041 A 
HETATM   24  C   UNL     1     -41.123  53.642 -52.701  1.00  0.00     0.051 A 
HETATM   25  C   UNL     1     -41.389  55.866 -51.316  1.00  0.00    -0.009 A 
HETATM   26  C   UNL     1     -40.846  53.175 -53.998  1.00  0.00     0.069 A 
HETATM   27  C   UNL     1     -40.577  54.079 -55.031  1.00  0.00     0.039 A 
HETATM   28  C   UNL     1     -41.717  55.397 -49.946  1.00  0.00     0.052 C 
BRANCH  26  29
HETATM   29  O   UNL     1     -40.858  51.811 -54.119  1.00  0.00    -0.351 OA
BRANCH  29  30
HETATM   30  C   UNL     1     -39.663  51.118 -53.757  1.00  0.00     0.171 C 
HETATM   31  C   UNL     1     -39.638  49.797 -54.507  1.00  0.00     0.034 C 
ENDBRANCH  29  30
ENDBRANCH  26  29
ENDBRANCH   1  19
TORSDOF 7
ENDMDL
MODEL 7
REMARK VINA RESULT:      -7.5      2.757      8.911
REMARK  7 active torsions:
REMARK  status: ('A' for Active; 'I' for Inactive)
REMARK    1  A    between atoms: C_2  and  O_3 
REMARK    2  A    between atoms: O_3  and  C_4 
REMARK    3  A    between atoms: C_9  and  C_10 
REMARK       I    between atoms: C_10  and  N_11 
REMARK    4  A    between atoms: N_11  and  C_12 
REMARK    5  A    between atoms: C_12  and  C_13 
REMARK    6  A    between atoms: C_14  and  C_15 
REMARK    7  A    between atoms: C_15  and  N_16 
ROOT
HETATM    1  C   UNL     1     -42.576  57.277 -55.930  1.00  0.00     0.276 C 
HETATM    2  N   UNL     1     -42.199  57.184 -57.262  1.00  0.00    -0.351 N 
HETATM    3  O   UNL     1     -43.315  58.186 -55.551  1.00  0.00    -0.265 OA
HETATM    4  H   UNL     1     -41.704  56.342 -57.532  1.00  0.00     0.163 HD
ENDROOT
BRANCH   2   5
HETATM    5  C   UNL     1     -43.025  57.796 -58.273  1.00  0.00     0.162 C 
BRANCH   5   6
HETATM    6  C   UNL     1     -43.833  56.773 -59.031  1.00  0.00    -0.033 A 
HETATM    7  C   UNL     1     -44.914  57.117 -59.875  1.00  0.00    -0.025 A 
HETATM    8  C   UNL     1     -45.607  56.087 -60.545  1.00  0.00     0.009 A 
HETATM    9  C   UNL     1     -45.246  54.751 -60.382  1.00  0.00     0.001 A 
HETATM   10  C   UNL     1     -44.182  54.417 -59.555  1.00  0.00     0.001 A 
HETATM   11  C   UNL     1     -43.478  55.419 -58.891  1.00  0.00     0.009 A 
BRANCH   7  12
HETATM   12  C   UNL     1     -45.369  58.543 -60.097  1.00  0.00     0.274 C 
BRANCH  12  13
HETATM   13  N   UNL     1     -46.676  58.862 -59.402  1.00  0.00    -0.067 N 
HETATM   14  H   UNL     1     -47.425  58.711 -60.087  1.00  0.00     0.280 HD
HETATM   15  C   UNL     1     -46.750  60.276 -58.889  1.00  0.00     0.235 C 
HETATM   16  C   UNL     1     -46.106  60.207 -57.520  1.00  0.00     0.029 C 
HETATM   17  C   UNL     1     -46.328  58.782 -57.028  1.00  0.00     0.029 C 
HETATM   18  C   UNL     1     -46.961  58.024 -58.183  1.00  0.00     0.235 C 
ENDBRANCH  12  13
ENDBRANCH   7  12
ENDBRANCH   5   6
ENDBRANCH   2   5
BRANCH   1  19
HETATM   19  C   UNL     1     -42.082  56.216 -55.081  1.00  0.00     0.150 A 
HETATM   20  O   UNL     1     -41.619  55.098 -55.717  1.00  0.00    -0.304 OA
HETATM   21  C   UNL     1     -41.124  54.261 -54.771  1.00  0.00     0.087 A 
HETATM   22  C   UNL     1     -41.295  54.808 -53.509  1.00  0.00     0.009 A 
HETATM   23  C   UNL     1     -40.522  53.031 -55.019  1.00  0.00     0.041 A 
HETATM   24  C   UNL     1     -40.851  54.060 -52.400  1.00  0.00     0.051 A 
HETATM   25  C   UNL     1     -41.923  56.080 -53.706  1.00  0.00    -0.009 A 
HETATM   26  C   UNL     1     -40.257  52.803 -52.606  1.00  0.00     0.069 A 
HETATM   27  C   UNL     1     -40.082  52.308 -53.902  1.00  0.00     0.039 A 
HETATM   28  C   UNL     1     -42.325  57.026 -52.635  1.00  0.00     0.052 C 
BRANCH  26  29
HETATM   29  O   UNL     1     -39.882  52.163 -51.454  1.00  0.00    -0.351 OA
BRANCH  29  30
HETATM   30  C   UNL     1     -39.370  50.836 -51.588  1.00  0.00     0.171 C 
HETATM   31  C   UNL     1     -39.954  49.990 -50.471  1.00  0.00     0.034 C 
ENDBRANCH  29  30
ENDBRANCH  26  29
ENDBRANCH   1  19
TORSDOF 7
ENDMDL
MODEL 8
REMARK VINA RESULT:      -7.4      2.779      3.998
REMARK  7 active torsions:
REMARK  status: ('A' for Active; 'I' for Inactive)
REMARK    1  A    between atoms: C_2  and  O_3 
REMARK    2  A    between atoms: O_3  and  C_4 
REMARK    3  A    between atoms: C_9  and  C_10 
REMARK       I    between atoms: C_10  and  N_11 
REMARK    4  A    between atoms: N_11  and  C_12 
REMARK    5  A    between atoms: C_12  and  C_13 
REMARK    6  A    between atoms: C_14  and  C_15 
REMARK    7  A    between atoms: C_15  and  N_16 
ROOT
HETATM    1  C   UNL     1     -42.518  57.178 -56.115  1.00  0.00     0.276 C 
HETATM    2  N   UNL     1     -42.117  56.020 -55.466  1.00  0.00    -0.351 N 
HETATM    3  O   UNL     1     -42.090  58.276 -55.758  1.00  0.00    -0.265 OA
HETATM    4  H   UNL     1     -42.398  55.144 -55.892  1.00  0.00     0.163 HD
ENDROOT
BRANCH   2   5
HETATM    5  C   UNL     1     -40.868  56.012 -54.745  1.00  0.00     0.162 C 
BRANCH   5   6
HETATM    6  C   UNL     1     -40.983  55.279 -53.433  1.00  0.00    -0.033 A 
HETATM    7  C   UNL     1     -41.358  55.914 -52.226  1.00  0.00    -0.025 A 
HETATM    8  C   UNL     1     -41.441  55.140 -51.049  1.00  0.00     0.009 A 
HETATM    9  C   UNL     1     -41.154  53.776 -51.061  1.00  0.00     0.001 A 
HETATM   10  C   UNL     1     -40.789  53.156 -52.249  1.00  0.00     0.001 A 
HETATM   11  C   UNL     1     -40.711  53.898 -53.424  1.00  0.00     0.009 A 
BRANCH   7  12
HETATM   12  C   UNL     1     -41.676  57.390 -52.132  1.00  0.00     0.274 C 
BRANCH  12  13
HETATM   13  N   UNL     1     -43.013  57.666 -51.477  1.00  0.00    -0.067 N 
HETATM   14  H   UNL     1     -42.965  57.284 -50.525  1.00  0.00     0.280 HD
HETATM   15  C   UNL     1     -44.175  57.044 -52.204  1.00  0.00     0.235 C 
HETATM   16  C   UNL     1     -44.545  58.069 -53.256  1.00  0.00     0.029 C 
HETATM   17  C   UNL     1     -44.120  59.417 -52.689  1.00  0.00     0.029 C 
HETATM   18  C   UNL     1     -43.382  59.125 -51.393  1.00  0.00     0.235 C 
ENDBRANCH  12  13
ENDBRANCH   7  12
ENDBRANCH   5   6
ENDBRANCH   2   5
BRANCH   1  19
HETATM   19  C   UNL     1     -43.407  56.971 -57.237  1.00  0.00     0.150 A 
HETATM   20  O   UNL     1     -43.013  56.039 -58.157  1.00  0.00    -0.304 OA
HETATM   21  C   UNL     1     -44.002  55.925 -59.077  1.00  0.00     0.087 A 
HETATM   22  C   UNL     1     -45.032  56.808 -58.788  1.00  0.00     0.009 A 
HETATM   23  C   UNL     1     -44.002  55.046 -60.156  1.00  0.00     0.041 A 
HETATM   24  C   UNL     1     -46.140  56.836 -59.658  1.00  0.00     0.051 A 
HETATM   25  C   UNL     1     -44.645  57.494 -57.593  1.00  0.00    -0.009 A 
HETATM   26  C   UNL     1     -46.168  55.979 -60.772  1.00  0.00     0.069 A 
HETATM   27  C   UNL     1     -45.117  55.086 -61.003  1.00  0.00     0.039 A 
HETATM   28  C   UNL     1     -45.425  58.558 -56.911  1.00  0.00     0.052 C 
BRANCH  26  29
HETATM   29  O   UNL     1     -47.287  56.108 -61.553  1.00  0.00    -0.351 OA
BRANCH  29  30
HETATM   30  C   UNL     1     -47.869  57.410 -61.640  1.00  0.00     0.171 C 
HETATM   31  C   UNL     1     -49.103  57.316 -62.519  1.00  0.00     0.034 C 
ENDBRANCH  29  30
ENDBRANCH  26  29
ENDBRANCH   1  19
TORSDOF 7
ENDMDL
MODEL 9
REMARK VINA RESULT:      -7.4      5.358      9.156
REMARK  7 active torsions:
REMARK  status: ('A' for Active; 'I' for Inactive)
REMARK    1  A    between atoms: C_2  and  O_3 
REMARK    2  A    between atoms: O_3  and  C_4 
REMARK    3  A    between atoms: C_9  and  C_10 
REMARK       I    between atoms: C_10  and  N_11 
REMARK    4  A    between atoms: N_11  and  C_12 
REMARK    5  A    between atoms: C_12  and  C_13 
REMARK    6  A    between atoms: C_14  and  C_15 
REMARK    7  A    between atoms: C_15  and  N_16 
ROOT
HETATM    1  C   UNL     1     -44.203  57.552 -51.288  1.00  0.00     0.276 C 
HETATM    2  N   UNL     1     -43.877  58.851 -51.646  1.00  0.00    -0.351 N 
HETATM    3  O   UNL     1     -45.191  57.324 -50.588  1.00  0.00    -0.265 OA
HETATM    4  H   UNL     1     -43.137  58.957 -52.330  1.00  0.00     0.163 HD
ENDROOT
BRANCH   2   5
HETATM    5  C   UNL     1     -44.906  59.861 -51.651  1.00  0.00     0.162 C 
BRANCH   5   6
HETATM    6  C   UNL     1     -44.363  61.217 -51.281  1.00  0.00    -0.033 A 
HETATM    7  C   UNL     1     -44.376  61.717 -49.958  1.00  0.00    -0.025 A 
HETATM    8  C   UNL     1     -43.839  62.998 -49.711  1.00  0.00     0.009 A 
HETATM    9  C   UNL     1     -43.310  63.769 -50.743  1.00  0.00     0.001 A 
HETATM   10  C   UNL     1     -43.295  63.274 -52.041  1.00  0.00     0.001 A 
HETATM   11  C   UNL     1     -43.811  62.008 -52.306  1.00  0.00     0.009 A 
BRANCH   7  12
HETATM   12  C   UNL     1     -44.940  60.943 -48.787  1.00  0.00     0.274 C 
BRANCH  12  13
HETATM   13  N   UNL     1     -45.056  61.776 -47.527  1.00  0.00    -0.067 N 
HETATM   14  H   UNL     1     -44.446  62.593 -47.651  1.00  0.00     0.280 HD
HETATM   15  C   UNL     1     -44.646  61.036 -46.282  1.00  0.00     0.235 C 
HETATM   16  C   UNL     1     -45.906  60.314 -45.850  1.00  0.00     0.029 C 
HETATM   17  C   UNL     1     -47.065  61.154 -46.371  1.00  0.00     0.029 C 
HETATM   18  C   UNL     1     -46.449  62.256 -47.216  1.00  0.00     0.235 C 
ENDBRANCH  12  13
ENDBRANCH   7  12
ENDBRANCH   5   6
ENDBRANCH   2   5
BRANCH   1  19
HETATM   19  C   UNL     1     -43.340  56.531 -51.840  1.00  0.00     0.150 A 
HETATM   20  O   UNL     1     -42.440  55.969 -50.978  1.00  0.00    -0.304 OA
HETATM   21  C   UNL     1     -41.787  54.986 -51.646  1.00  0.00     0.087 A 
HETATM   22  C   UNL     1     -42.227  54.924 -52.960  1.00  0.00     0.009 A 
HETATM   23  C   UNL     1     -40.819  54.147 -51.103  1.00  0.00     0.041 A 
HETATM   24  C   UNL     1     -41.639  53.965 -53.808  1.00  0.00     0.051 A 
HETATM   25  C   UNL     1     -43.236  55.933 -53.090  1.00  0.00    -0.009 A 
HETATM   26  C   UNL     1     -40.641  53.113 -53.304  1.00  0.00     0.069 A 
HETATM   27  C   UNL     1     -40.253  53.197 -51.963  1.00  0.00     0.039 A 
HETATM   28  C   UNL     1     -43.984  56.258 -54.332  1.00  0.00     0.052 C 
BRANCH  26  29
HETATM   29  O   UNL     1     -40.133  52.236 -54.225  1.00  0.00    -0.351 OA
BRANCH  29  30
HETATM   30  C   UNL     1     -39.445  51.092 -53.718  1.00  0.00     0.171 C 
HETATM   31  C   UNL     1     -40.016  49.859 -54.396  1.00  0.00     0.034 C 
ENDBRANCH  29  30
ENDBRANCH  26  29
ENDBRANCH   1  19
TORSDOF 7
ENDMDL
MODEL 10
REMARK VINA RESULT:      -7.4      4.771      7.550
REMARK  7 active torsions:
REMARK  status: ('A' for Active; 'I' for Inactive)
REMARK    1  A    between atoms: C_2  and  O_3 
REMARK    2  A    between atoms: O_3  and  C_4 
REMARK    3  A    between atoms: C_9  and  C_10 
REMARK       I    between atoms: C_10  and  N_11 
REMARK    4  A    between atoms: N_11  and  C_12 
REMARK    5  A    between atoms: C_12  and  C_13 
REMARK    6  A    between atoms: C_14  and  C_15 
REMARK    7  A    between atoms: C_15  and  N_16 
ROOT
HETATM    1  C   UNL     1     -41.423  59.132 -52.971  1.00  0.00     0.276 C 
HETATM    2  N   UNL     1     -40.871  57.895 -52.675  1.00  0.00    -0.351 N 
HETATM    3  O   UNL     1     -41.106  59.729 -54.000  1.00  0.00    -0.265 OA
HETATM    4  H   UNL     1     -41.273  57.399 -51.887  1.00  0.00     0.163 HD
ENDROOT
BRANCH   2   5
HETATM    5  C   UNL     1     -40.345  57.083 -53.744  1.00  0.00     0.162 C 
BRANCH   5   6
HETATM    6  C   UNL     1     -41.338  56.043 -54.199  1.00  0.00    -0.033 A 
HETATM    7  C   UNL     1     -41.478  54.785 -53.568  1.00  0.00    -0.025 A 
HETATM    8  C   UNL     1     -42.440  53.880 -54.066  1.00  0.00     0.009 A 
HETATM    9  C   UNL     1     -43.237  54.205 -55.161  1.00  0.00     0.001 A 
HETATM   10  C   UNL     1     -43.099  55.443 -55.776  1.00  0.00     0.001 A 
HETATM   11  C   UNL     1     -42.163  56.355 -55.295  1.00  0.00     0.009 A 
BRANCH   7  12
HETATM   12  C   UNL     1     -40.645  54.357 -52.381  1.00  0.00     0.274 C 
BRANCH  12  13
HETATM   13  N   UNL     1     -41.480  53.870 -51.216  1.00  0.00    -0.067 N 
HETATM   14  H   UNL     1     -42.159  53.199 -51.593  1.00  0.00     0.280 HD
HETATM   15  C   UNL     1     -42.217  54.974 -50.505  1.00  0.00     0.235 C 
HETATM   16  C   UNL     1     -41.217  55.495 -49.494  1.00  0.00     0.029 C 
HETATM   17  C   UNL     1     -40.300  54.321 -49.176  1.00  0.00     0.029 C 
HETATM   18  C   UNL     1     -40.697  53.198 -50.118  1.00  0.00     0.235 C 
ENDBRANCH  12  13
ENDBRANCH   7  12
ENDBRANCH   5   6
ENDBRANCH   2   5
BRANCH   1  19
HETATM   19  C   UNL     1     -42.406  59.604 -52.021  1.00  0.00     0.150 A 
HETATM   20  O   UNL     1     -42.165  60.827 -51.459  1.00  0.00    -0.304 OA
HETATM   21  C   UNL     1     -43.225  61.135 -50.671  1.00  0.00     0.087 A 
HETATM   22  C   UNL     1     -44.148  60.100 -50.682  1.00  0.00     0.009 A 
HETATM   23  C   UNL     1     -43.382  62.318 -49.956  1.00  0.00     0.041 A 
HETATM   24  C   UNL     1     -45.311  60.245 -49.899  1.00  0.00     0.051 A 
HETATM   25  C   UNL     1     -43.615  59.099 -51.557  1.00  0.00    -0.009 A 
HETATM   26  C   UNL     1     -45.496  61.416 -49.144  1.00  0.00     0.069 A 
HETATM   27  C   UNL     1     -44.549  62.443 -49.190  1.00  0.00     0.039 A 
HETATM   28  C   UNL     1     -44.246  57.791 -51.867  1.00  0.00     0.052 C 
BRANCH  26  29
HETATM   29  O   UNL     1     -46.653  61.435 -48.410  1.00  0.00    -0.351 OA
BRANCH  29  30
HETATM   30  C   UNL     1     -46.535  61.760 -47.025  1.00  0.00     0.171 C 
HETATM   31  C   UNL     1     -46.019  60.533 -46.295  1.00  0.00     0.034 C 
ENDBRANCH  29  30
ENDBRANCH  26  29
ENDBRANCH   1  19
TORSDOF 7
ENDMDL
