MODEL 1
REMARK VINA RESULT:      -8.9      0.000      0.000
REMARK  6 active torsions:
REMARK  status: ('A' for Active; 'I' for Inactive)
REMARK    1  A    between atoms: C_4  and  C_5 
REMARK    2  A    between atoms: C_8  and  C_9 
REMARK    3  A    between atoms: C_9  and  N_10 
REMARK       I    between atoms: N_10  and  C_11 
REMARK       I    between atoms: C_11  and  N_12 
REMARK    4  A    between atoms: N_12  and  C_13 
REMARK    5  A    between atoms: C_16  and  C_17 
REMARK    6  A    between atoms: C_29  and  C_30 
ROOT
HETATM    1  C   UNL     1     -44.048  61.250 -52.759  1.00  0.00     0.068 C 
HETATM    2  C   UNL     1     -43.893  61.750 -51.289  1.00  0.00     0.001 C 
HETATM    3  C   UNL     1     -44.117  60.619 -50.258  1.00  0.00     0.040 C 
HETATM    4  C   UNL     1     -45.460  59.911 -50.502  1.00  0.00     0.206 C 
HETATM    5  N   UNL     1     -46.176  60.694 -51.603  1.00  0.00    -0.065 N 
HETATM    6  H   UNL     1     -47.094  60.220 -51.752  1.00  0.00     0.280 HD
HETATM    7  C   UNL     1     -45.456  60.653 -52.935  1.00  0.00     0.246 C 
HETATM    8  C   UNL     1     -45.019  62.787 -51.041  1.00  0.00     0.033 C 
HETATM    9  C   UNL     1     -46.398  62.124 -51.175  1.00  0.00     0.236 C 
ENDROOT
BRANCH   4  10
HETATM   10  C   UNL     1     -45.317  58.395 -50.811  1.00  0.00     0.157 C 
BRANCH  10  11
HETATM   11  N   UNL     1     -43.952  57.915 -51.031  1.00  0.00    -0.341 N 
HETATM   12  C   UNL     1     -43.598  56.584 -51.033  1.00  0.00     0.320 C 
HETATM   13  N   UNL     1     -42.287  56.414 -51.397  1.00  0.00    -0.309 N 
HETATM   14  O   UNL     1     -44.388  55.711 -50.691  1.00  0.00    -0.247 OA
HETATM   15  H   UNL     1     -41.720  57.250 -51.443  1.00  0.00     0.170 HD
HETATM   16  H   UNL     1     -43.400  58.487 -51.659  1.00  0.00     0.164 HD
BRANCH  13  17
HETATM   17  C   UNL     1     -41.592  55.199 -51.572  1.00  0.00     0.036 A 
HETATM   18  C   UNL     1     -40.720  54.653 -50.627  1.00  0.00     0.030 A 
HETATM   19  C   UNL     1     -40.066  53.438 -50.876  1.00  0.00     0.017 A 
HETATM   20  C   UNL     1     -40.281  52.751 -52.075  1.00  0.00     0.009 A 
HETATM   21  C   UNL     1     -41.161  53.294 -53.018  1.00  0.00     0.017 A 
HETATM   22  C   UNL     1     -41.814  54.504 -52.767  1.00  0.00     0.030 A 
BRANCH  20  23
HETATM   23  C   UNL     1     -39.604  51.460 -52.393  1.00  0.00     0.155 C 
HETATM   24  C   UNL     1     -39.480  51.032 -53.832  1.00  0.00     0.096 C 
HETATM   25  O   UNL     1     -39.163  50.764 -51.481  1.00  0.00    -0.293 OA
ENDBRANCH  20  23
ENDBRANCH  13  17
ENDBRANCH  10  11
ENDBRANCH   4  10
BRANCH   1  26
HETATM   26  C   UNL     1     -43.008  60.270 -53.266  1.00  0.00     0.045 A 
HETATM   27  N   UNL     1     -41.910  60.066 -52.519  1.00  0.00    -0.238 NA
HETATM   28  C   UNL     1     -41.036  59.130 -52.940  1.00  0.00     0.123 A 
HETATM   29  C   UNL     1     -39.770  58.946 -52.163  1.00  0.00     0.093 C 
HETATM   30  N   UNL     1     -41.236  58.331 -53.995  1.00  0.00    -0.233 NA
HETATM   31  C   UNL     1     -42.365  58.515 -54.709  1.00  0.00     0.072 A 
HETATM   32  C   UNL     1     -43.262  59.522 -54.402  1.00  0.00     0.060 A 
BRANCH  31  33
HETATM   33  C   UNL     1     -42.574  57.571 -55.816  1.00  0.00     0.010 A 
HETATM   34  C   UNL     1     -42.431  57.912 -57.177  1.00  0.00     0.023 A 
HETATM   35 BR   UNL     1     -42.008  59.680 -57.759  1.00  0.00    -0.050 Br
HETATM   36  C   UNL     1     -42.645  56.962 -58.186  1.00  0.00     0.020 A 
HETATM   37  C   UNL     1     -43.019  55.661 -57.856  1.00  0.00     0.001 A 
HETATM   38  C   UNL     1     -43.188  55.307 -56.522  1.00  0.00     0.001 A 
HETATM   39  C   UNL     1     -42.970  56.252 -55.517  1.00  0.00     0.015 A 
ENDBRANCH  31  33
ENDBRANCH   1  26
TORSDOF 6
ENDMDL
MODEL 2
REMARK VINA RESULT:      -8.5      3.607      5.982
REMARK  6 active torsions:
REMARK  status: ('A' for Active; 'I' for Inactive)
REMARK    1  A    between atoms: C_4  and  C_5 
REMARK    2  A    between atoms: C_8  and  C_9 
REMARK    3  A    between atoms: C_9  and  N_10 
REMARK       I    between atoms: N_10  and  C_11 
REMARK       I    between atoms: C_11  and  N_12 
REMARK    4  A    between atoms: N_12  and  C_13 
REMARK    5  A    between atoms: C_16  and  C_17 
REMARK    6  A    between atoms: C_29  and  C_30 
ROOT
HETATM    1  C   UNL     1     -45.150  60.234 -58.993  1.00  0.00     0.068 C 
HETATM    2  C   UNL     1     -46.328  59.493 -58.290  1.00  0.00     0.001 C 
HETATM    3  C   UNL     1     -46.065  57.976 -58.144  1.00  0.00     0.040 C 
HETATM    4  C   UNL     1     -45.700  57.349 -59.500  1.00  0.00     0.206 C 
HETATM    5  N   UNL     1     -45.881  58.443 -60.553  1.00  0.00    -0.065 N 
HETATM    6  H   UNL     1     -45.649  58.008 -61.473  1.00  0.00     0.280 HD
HETATM    7  C   UNL     1     -44.926  59.606 -60.381  1.00  0.00     0.246 C 
HETATM    8  C   UNL     1     -47.566  59.629 -59.214  1.00  0.00     0.033 C 
HETATM    9  C   UNL     1     -47.307  58.937 -60.561  1.00  0.00     0.236 C 
ENDROOT
BRANCH   4  10
HETATM   10  C   UNL     1     -44.292  56.693 -59.523  1.00  0.00     0.157 C 
BRANCH  10  11
HETATM   11  N   UNL     1     -44.051  55.663 -58.512  1.00  0.00    -0.341 N 
HETATM   12  C   UNL     1     -43.158  55.802 -57.472  1.00  0.00     0.320 C 
HETATM   13  N   UNL     1     -43.231  54.746 -56.603  1.00  0.00    -0.309 N 
HETATM   14  O   UNL     1     -42.382  56.750 -57.418  1.00  0.00    -0.247 OA
HETATM   15  H   UNL     1     -43.774  53.949 -56.906  1.00  0.00     0.170 HD
HETATM   16  H   UNL     1     -44.861  55.099 -58.283  1.00  0.00     0.164 HD
BRANCH  13  17
HETATM   17  C   UNL     1     -42.521  54.572 -55.396  1.00  0.00     0.036 A 
HETATM   18  C   UNL     1     -41.141  54.371 -55.323  1.00  0.00     0.030 A 
HETATM   19  C   UNL     1     -40.507  54.207 -54.082  1.00  0.00     0.017 A 
HETATM   20  C   UNL     1     -41.249  54.245 -52.899  1.00  0.00     0.009 A 
HETATM   21  C   UNL     1     -42.631  54.454 -52.971  1.00  0.00     0.017 A 
HETATM   22  C   UNL     1     -43.260  54.621 -54.209  1.00  0.00     0.030 A 
BRANCH  20  23
HETATM   23  C   UNL     1     -40.626  54.068 -51.554  1.00  0.00     0.155 C 
HETATM   24  C   UNL     1     -40.919  55.072 -50.471  1.00  0.00     0.096 C 
HETATM   25  O   UNL     1     -39.881  53.110 -51.352  1.00  0.00    -0.293 OA
ENDBRANCH  20  23
ENDBRANCH  13  17
ENDBRANCH  10  11
ENDBRANCH   4  10
BRANCH   1  26
HETATM   26  C   UNL     1     -43.834  60.302 -58.243  1.00  0.00     0.045 A 
HETATM   27  N   UNL     1     -42.818  60.983 -58.801  1.00  0.00    -0.238 NA
HETATM   28  C   UNL     1     -41.683  61.107 -58.086  1.00  0.00     0.123 A 
HETATM   29  C   UNL     1     -40.517  61.794 -58.725  1.00  0.00     0.093 C 
HETATM   30  N   UNL     1     -41.535  60.680 -56.826  1.00  0.00    -0.233 NA
HETATM   31  C   UNL     1     -42.578  60.039 -56.261  1.00  0.00     0.072 A 
HETATM   32  C   UNL     1     -43.741  59.782 -56.964  1.00  0.00     0.060 A 
BRANCH  31  33
HETATM   33  C   UNL     1     -42.394  59.649 -54.855  1.00  0.00     0.010 A 
HETATM   34  C   UNL     1     -42.692  60.487 -53.761  1.00  0.00     0.023 A 
HETATM   35 BR   UNL     1     -43.316  62.278 -53.973  1.00  0.00    -0.050 Br
HETATM   36  C   UNL     1     -42.492  60.052 -52.443  1.00  0.00     0.020 A 
HETATM   37  C   UNL     1     -41.978  58.781 -52.194  1.00  0.00     0.001 A 
HETATM   38  C   UNL     1     -41.656  57.945 -53.257  1.00  0.00     0.001 A 
HETATM   39  C   UNL     1     -41.860  58.376 -54.570  1.00  0.00     0.015 A 
ENDBRANCH  31  33
ENDBRANCH   1  26
TORSDOF 6
ENDMDL
MODEL 3
REMARK VINA RESULT:      -8.4      2.790      3.946
REMARK  6 active torsions:
REMARK  status: ('A' for Active; 'I' for Inactive)
REMARK    1  A    between atoms: C_4  and  C_5 
REMARK    2  A    between atoms: C_8  and  C_9 
REMARK    3  A    between atoms: C_9  and  N_10 
REMARK       I    between atoms: N_10  and  C_11 
REMARK       I    between atoms: C_11  and  N_12 
REMARK    4  A    between atoms: N_12  and  C_13 
REMARK    5  A    between atoms: C_16  and  C_17 
REMARK    6  A    between atoms: C_29  and  C_30 
ROOT
HETATM    1  C   UNL     1     -44.500  61.223 -56.175  1.00  0.00     0.068 C 
HETATM    2  C   UNL     1     -43.354  61.700 -55.231  1.00  0.00     0.001 C 
HETATM    3  C   UNL     1     -42.542  60.519 -54.649  1.00  0.00     0.040 C 
HETATM    4  C   UNL     1     -43.470  59.493 -53.977  1.00  0.00     0.206 C 
HETATM    5  N   UNL     1     -44.875  60.096 -53.993  1.00  0.00    -0.065 N 
HETATM    6  H   UNL     1     -45.498  59.403 -53.521  1.00  0.00     0.280 HD
HETATM    7  C   UNL     1     -45.433  60.284 -55.389  1.00  0.00     0.246 C 
HETATM    8  C   UNL     1     -44.024  62.400 -54.021  1.00  0.00     0.033 C 
HETATM    9  C   UNL     1     -44.897  61.404 -53.242  1.00  0.00     0.236 C 
ENDROOT
BRANCH   4  10
HETATM   10  C   UNL     1     -43.395  58.078 -54.613  1.00  0.00     0.157 C 
BRANCH  10  11
HETATM   11  N   UNL     1     -42.211  57.287 -54.273  1.00  0.00    -0.341 N 
HETATM   12  C   UNL     1     -42.257  55.970 -53.873  1.00  0.00     0.320 C 
HETATM   13  N   UNL     1     -41.000  55.438 -53.749  1.00  0.00    -0.309 N 
HETATM   14  O   UNL     1     -43.321  55.413 -53.624  1.00  0.00    -0.247 OA
HETATM   15  H   UNL     1     -40.229  56.091 -53.789  1.00  0.00     0.170 HD
HETATM   16  H   UNL     1     -41.379  57.528 -54.797  1.00  0.00     0.164 HD
BRANCH  13  17
HETATM   17  C   UNL     1     -40.654  54.110 -53.425  1.00  0.00     0.036 A 
HETATM   18  C   UNL     1     -40.451  53.650 -52.122  1.00  0.00     0.030 A 
HETATM   19  C   UNL     1     -40.109  52.312 -51.881  1.00  0.00     0.017 A 
HETATM   20  C   UNL     1     -39.970  51.415 -52.944  1.00  0.00     0.009 A 
HETATM   21  C   UNL     1     -40.181  51.873 -54.249  1.00  0.00     0.017 A 
HETATM   22  C   UNL     1     -40.525  53.208 -54.487  1.00  0.00     0.030 A 
BRANCH  20  23
HETATM   23  C   UNL     1     -39.599  49.983 -52.744  1.00  0.00     0.155 C 
HETATM   24  C   UNL     1     -39.565  49.423 -51.346  1.00  0.00     0.096 C 
HETATM   25  O   UNL     1     -39.323  49.285 -53.718  1.00  0.00    -0.293 OA
ENDBRANCH  20  23
ENDBRANCH  13  17
ENDBRANCH  10  11
ENDBRANCH   4  10
BRANCH   1  26
HETATM   26  C   UNL     1     -44.089  60.564 -57.478  1.00  0.00     0.045 A 
HETATM   27  N   UNL     1     -43.120  61.144 -58.206  1.00  0.00    -0.238 NA
HETATM   28  C   UNL     1     -42.707  60.503 -59.317  1.00  0.00     0.123 A 
HETATM   29  C   UNL     1     -41.685  61.174 -60.181  1.00  0.00     0.093 C 
HETATM   30  N   UNL     1     -43.130  59.289 -59.689  1.00  0.00    -0.233 NA
HETATM   31  C   UNL     1     -44.069  58.697 -58.923  1.00  0.00     0.072 A 
HETATM   32  C   UNL     1     -44.618  59.333 -57.825  1.00  0.00     0.060 A 
BRANCH  31  33
HETATM   33  C   UNL     1     -44.454  57.338 -59.332  1.00  0.00     0.010 A 
HETATM   34  C   UNL     1     -45.644  57.032 -60.025  1.00  0.00     0.023 A 
HETATM   35 BR   UNL     1     -46.950  58.353 -60.464  1.00  0.00    -0.050 Br
HETATM   36  C   UNL     1     -45.951  55.713 -60.386  1.00  0.00     0.020 A 
HETATM   37  C   UNL     1     -45.085  54.674 -60.049  1.00  0.00     0.001 A 
HETATM   38  C   UNL     1     -43.917  54.948 -59.348  1.00  0.00     0.001 A 
HETATM   39  C   UNL     1     -43.608  56.263 -58.992  1.00  0.00     0.015 A 
ENDBRANCH  31  33
ENDBRANCH   1  26
TORSDOF 6
ENDMDL
MODEL 4
REMARK VINA RESULT:      -8.0      2.694      5.656
REMARK  6 active torsions:
REMARK  status: ('A' for Active; 'I' for Inactive)
REMARK    1  A    between atoms: C_4  and  C_5 
REMARK    2  A    between atoms: C_8  and  C_9 
REMARK    3  A    between atoms: C_9  and  N_10 
REMARK       I    between atoms: N_10  and  C_11 
REMARK       I    between atoms: C_11  and  N_12 
REMARK    4  A    between atoms: N_12  and  C_13 
REMARK    5  A    between atoms: C_16  and  C_17 
REMARK    6  A    between atoms: C_29  and  C_30 
ROOT
HETATM    1  C   UNL     1     -41.995  60.346 -58.162  1.00  0.00     0.068 C 
HETATM    2  C   UNL     1     -43.162  60.363 -59.197  1.00  0.00     0.001 C 
HETATM    3  C   UNL     1     -44.189  59.235 -58.942  1.00  0.00     0.040 C 
HETATM    4  C   UNL     1     -43.494  57.866 -58.860  1.00  0.00     0.206 C 
HETATM    5  N   UNL     1     -42.025  58.097 -59.219  1.00  0.00    -0.065 N 
HETATM    6  H   UNL     1     -41.562  57.163 -59.179  1.00  0.00     0.280 HD
HETATM    7  C   UNL     1     -41.295  58.976 -58.225  1.00  0.00     0.246 C 
HETATM    8  C   UNL     1     -42.540  60.072 -60.588  1.00  0.00     0.033 C 
HETATM    9  C   UNL     1     -41.906  58.672 -60.609  1.00  0.00     0.236 C 
ENDROOT
BRANCH   4  10
HETATM   10  C   UNL     1     -43.693  57.148 -57.497  1.00  0.00     0.157 C 
BRANCH  10  11
HETATM   11  N   UNL     1     -42.515  56.473 -56.953  1.00  0.00    -0.341 N 
HETATM   12  C   UNL     1     -42.522  55.733 -55.791  1.00  0.00     0.320 C 
HETATM   13  N   UNL     1     -41.322  55.103 -55.589  1.00  0.00    -0.309 N 
HETATM   14  O   UNL     1     -43.495  55.723 -55.045  1.00  0.00    -0.247 OA
HETATM   15  H   UNL     1     -40.558  55.384 -56.189  1.00  0.00     0.170 HD
HETATM   16  H   UNL     1     -41.864  56.132 -57.651  1.00  0.00     0.164 HD
BRANCH  13  17
HETATM   17  C   UNL     1     -40.980  54.214 -54.548  1.00  0.00     0.036 A 
HETATM   18  C   UNL     1     -40.598  52.885 -54.749  1.00  0.00     0.030 A 
HETATM   19  C   UNL     1     -40.271  52.063 -53.661  1.00  0.00     0.017 A 
HETATM   20  C   UNL     1     -40.321  52.563 -52.357  1.00  0.00     0.009 A 
HETATM   21  C   UNL     1     -40.696  53.896 -52.156  1.00  0.00     0.017 A 
HETATM   22  C   UNL     1     -41.018  54.715 -53.242  1.00  0.00     0.030 A 
BRANCH  20  23
HETATM   23  C   UNL     1     -39.992  51.729 -51.163  1.00  0.00     0.155 C 
HETATM   24  C   UNL     1     -39.431  50.346 -51.368  1.00  0.00     0.096 C 
HETATM   25  O   UNL     1     -40.188  52.178 -50.036  1.00  0.00    -0.293 OA
ENDBRANCH  20  23
ENDBRANCH  13  17
ENDBRANCH  10  11
ENDBRANCH   4  10
BRANCH   1  26
HETATM   26  C   UNL     1     -42.344  60.678 -56.725  1.00  0.00     0.045 A 
HETATM   27  N   UNL     1     -43.147  61.730 -56.492  1.00  0.00    -0.238 NA
HETATM   28  C   UNL     1     -43.518  61.961 -55.217  1.00  0.00     0.123 A 
HETATM   29  C   UNL     1     -44.345  63.175 -54.932  1.00  0.00     0.093 C 
HETATM   30  N   UNL     1     -43.217  61.161 -54.187  1.00  0.00    -0.233 NA
HETATM   31  C   UNL     1     -42.450  60.082 -54.442  1.00  0.00     0.072 A 
HETATM   32  C   UNL     1     -41.945  59.832 -55.705  1.00  0.00     0.060 A 
BRANCH  31  33
HETATM   33  C   UNL     1     -42.202  59.197 -53.294  1.00  0.00     0.010 A 
HETATM   34  C   UNL     1     -43.189  58.381 -52.704  1.00  0.00     0.023 A 
HETATM   35 BR   UNL     1     -45.006  58.373 -53.288  1.00  0.00    -0.050 Br
HETATM   36  C   UNL     1     -42.886  57.559 -51.610  1.00  0.00     0.020 A 
HETATM   37  C   UNL     1     -41.599  57.548 -51.076  1.00  0.00     0.001 A 
HETATM   38  C   UNL     1     -40.615  58.360 -51.627  1.00  0.00     0.001 A 
HETATM   39  C   UNL     1     -40.915  59.175 -52.720  1.00  0.00     0.015 A 
ENDBRANCH  31  33
ENDBRANCH   1  26
TORSDOF 6
ENDMDL
MODEL 5
REMARK VINA RESULT:      -8.0      1.825      2.695
REMARK  6 active torsions:
REMARK  status: ('A' for Active; 'I' for Inactive)
REMARK    1  A    between atoms: C_4  and  C_5 
REMARK    2  A    between atoms: C_8  and  C_9 
REMARK    3  A    between atoms: C_9  and  N_10 
REMARK       I    between atoms: N_10  and  C_11 
REMARK       I    between atoms: C_11  and  N_12 
REMARK    4  A    between atoms: N_12  and  C_13 
REMARK    5  A    between atoms: C_16  and  C_17 
REMARK    6  A    between atoms: C_29  and  C_30 
ROOT
HETATM    1  C   UNL     1     -45.952  60.546 -51.692  1.00  0.00     0.068 C 
HETATM    2  C   UNL     1     -45.507  61.993 -51.319  1.00  0.00     0.001 C 
HETATM    3  C   UNL     1     -43.968  62.134 -51.249  1.00  0.00     0.040 C 
HETATM    4  C   UNL     1     -43.361  61.072 -50.318  1.00  0.00     0.206 C 
HETATM    5  N   UNL     1     -44.533  60.340 -49.663  1.00  0.00    -0.065 N 
HETATM    6  H   UNL     1     -44.116  59.632 -49.019  1.00  0.00     0.280 HD
HETATM    7  C   UNL     1     -45.385  59.566 -50.649  1.00  0.00     0.246 C 
HETATM    8  C   UNL     1     -46.031  62.275 -49.887  1.00  0.00     0.033 C 
HETATM    9  C   UNL     1     -45.389  61.306 -48.882  1.00  0.00     0.236 C 
ENDROOT
BRANCH   4  10
HETATM   10  C   UNL     1     -42.356  60.124 -51.028  1.00  0.00     0.157 C 
BRANCH  10  11
HETATM   11  N   UNL     1     -42.095  58.851 -50.355  1.00  0.00    -0.341 N 
HETATM   12  C   UNL     1     -41.773  57.685 -51.015  1.00  0.00     0.320 C 
HETATM   13  N   UNL     1     -41.450  56.684 -50.137  1.00  0.00    -0.309 N 
HETATM   14  O   UNL     1     -41.839  57.603 -52.237  1.00  0.00    -0.247 OA
HETATM   15  H   UNL     1     -41.649  56.858 -49.161  1.00  0.00     0.170 HD
HETATM   16  H   UNL     1     -41.664  58.937 -49.442  1.00  0.00     0.164 HD
BRANCH  13  17
HETATM   17  C   UNL     1     -41.008  55.379 -50.443  1.00  0.00     0.036 A 
HETATM   18  C   UNL     1     -40.543  54.468 -49.492  1.00  0.00     0.030 A 
HETATM   19  C   UNL     1     -40.121  53.187 -49.875  1.00  0.00     0.017 A 
HETATM   20  C   UNL     1     -40.163  52.801 -51.218  1.00  0.00     0.009 A 
HETATM   21  C   UNL     1     -40.635  53.711 -52.170  1.00  0.00     0.017 A 
HETATM   22  C   UNL     1     -41.059  54.987 -51.785  1.00  0.00     0.030 A 
BRANCH  20  23
HETATM   23  C   UNL     1     -39.717  51.454 -51.681  1.00  0.00     0.155 C 
HETATM   24  C   UNL     1     -39.803  50.287 -50.732  1.00  0.00     0.096 C 
HETATM   25  O   UNL     1     -39.284  51.317 -52.823  1.00  0.00    -0.293 OA
ENDBRANCH  20  23
ENDBRANCH  13  17
ENDBRANCH  10  11
ENDBRANCH   4  10
BRANCH   1  26
HETATM   26  C   UNL     1     -45.615  60.059 -53.088  1.00  0.00     0.045 A 
HETATM   27  N   UNL     1     -45.726  60.928 -54.108  1.00  0.00    -0.238 NA
HETATM   28  C   UNL     1     -45.341  60.507 -55.329  1.00  0.00     0.123 A 
HETATM   29  C   UNL     1     -45.533  61.435 -56.488  1.00  0.00     0.093 C 
HETATM   30  N   UNL     1     -44.773  59.320 -55.574  1.00  0.00    -0.233 NA
HETATM   31  C   UNL     1     -44.625  58.476 -54.533  1.00  0.00     0.072 A 
HETATM   32  C   UNL     1     -45.086  58.793 -53.268  1.00  0.00     0.060 A 
BRANCH  31  33
HETATM   33  C   UNL     1     -43.934  57.214 -54.836  1.00  0.00     0.010 A 
HETATM   34  C   UNL     1     -42.913  57.088 -55.801  1.00  0.00     0.023 A 
HETATM   35 BR   UNL     1     -42.339  58.546 -56.891  1.00  0.00    -0.050 Br
HETATM   36  C   UNL     1     -42.295  55.853 -56.042  1.00  0.00     0.020 A 
HETATM   37  C   UNL     1     -42.695  54.720 -55.337  1.00  0.00     0.001 A 
HETATM   38  C   UNL     1     -43.714  54.814 -54.397  1.00  0.00     0.001 A 
HETATM   39  C   UNL     1     -44.327  56.045 -54.153  1.00  0.00     0.015 A 
ENDBRANCH  31  33
ENDBRANCH   1  26
TORSDOF 6
ENDMDL
MODEL 6
REMARK VINA RESULT:      -7.9      2.059      3.237
REMARK  6 active torsions:
REMARK  status: ('A' for Active; 'I' for Inactive)
REMARK    1  A    between atoms: C_4  and  C_5 
REMARK    2  A    between atoms: C_8  and  C_9 
REMARK    3  A    between atoms: C_9  and  N_10 
REMARK       I    between atoms: N_10  and  C_11 
REMARK       I    between atoms: C_11  and  N_12 
REMARK    4  A    between atoms: N_12  and  C_13 
REMARK    5  A    between atoms: C_16  and  C_17 
REMARK    6  A    between atoms: C_29  and  C_30 
ROOT
HETATM    1  C   UNL     1     -45.017  58.871 -53.172  1.00  0.00     0.068 C 
HETATM    2  C   UNL     1     -44.882  60.362 -52.732  1.00  0.00     0.001 C 
HETATM    3  C   UNL     1     -43.484  60.680 -52.155  1.00  0.00     0.040 C 
HETATM    4  C   UNL     1     -43.117  59.699 -51.029  1.00  0.00     0.206 C 
HETATM    5  N   UNL     1     -44.356  58.839 -50.776  1.00  0.00    -0.065 N 
HETATM    6  H   UNL     1     -44.108  58.186 -50.000  1.00  0.00     0.280 HD
HETATM    7  C   UNL     1     -44.734  57.968 -51.957  1.00  0.00     0.246 C 
HETATM    8  C   UNL     1     -45.888  60.586 -51.574  1.00  0.00     0.033 C 
HETATM    9  C   UNL     1     -45.525  59.702 -50.371  1.00  0.00     0.236 C 
ENDROOT
BRANCH   4  10
HETATM   10  C   UNL     1     -41.835  58.871 -51.319  1.00  0.00     0.157 C 
BRANCH  10  11
HETATM   11  N   UNL     1     -41.932  57.434 -51.061  1.00  0.00    -0.341 N 
HETATM   12  C   UNL     1     -41.446  56.466 -51.913  1.00  0.00     0.320 C 
HETATM   13  N   UNL     1     -41.550  55.215 -51.363  1.00  0.00    -0.309 N 
HETATM   14  O   UNL     1     -41.034  56.749 -53.033  1.00  0.00    -0.247 OA
HETATM   15  H   UNL     1     -42.104  55.137 -50.521  1.00  0.00     0.170 HD
HETATM   16  H   UNL     1     -41.888  57.177 -50.082  1.00  0.00     0.164 HD
BRANCH  13  17
HETATM   17  C   UNL     1     -41.100  53.994 -51.909  1.00  0.00     0.036 A 
HETATM   18  C   UNL     1     -41.313  53.605 -53.234  1.00  0.00     0.030 A 
HETATM   19  C   UNL     1     -40.833  52.373 -53.703  1.00  0.00     0.017 A 
HETATM   20  C   UNL     1     -40.130  51.517 -52.850  1.00  0.00     0.009 A 
HETATM   21  C   UNL     1     -39.911  51.910 -51.525  1.00  0.00     0.017 A 
HETATM   22  C   UNL     1     -40.387  53.141 -51.061  1.00  0.00     0.030 A 
BRANCH  20  23
HETATM   23  C   UNL     1     -39.606  50.192 -53.295  1.00  0.00     0.155 C 
HETATM   24  C   UNL     1     -39.503  49.902 -54.769  1.00  0.00     0.096 C 
HETATM   25  O   UNL     1     -39.272  49.359 -52.455  1.00  0.00    -0.293 OA
ENDBRANCH  20  23
ENDBRANCH  13  17
ENDBRANCH  10  11
ENDBRANCH   4  10
BRANCH   1  26
HETATM   26  C   UNL     1     -44.176  58.422 -54.351  1.00  0.00     0.045 A 
HETATM   27  N   UNL     1     -43.990  57.103 -54.534  1.00  0.00    -0.238 NA
HETATM   28  C   UNL     1     -43.314  56.716 -55.633  1.00  0.00     0.123 A 
HETATM   29  C   UNL     1     -43.030  55.257 -55.810  1.00  0.00     0.093 C 
HETATM   30  N   UNL     1     -42.898  57.549 -56.595  1.00  0.00    -0.233 NA
HETATM   31  C   UNL     1     -43.132  58.865 -56.422  1.00  0.00     0.072 A 
HETATM   32  C   UNL     1     -43.730  59.352 -55.273  1.00  0.00     0.060 A 
BRANCH  31  33
HETATM   33  C   UNL     1     -42.719  59.733 -57.535  1.00  0.00     0.010 A 
HETATM   34  C   UNL     1     -43.398  59.806 -58.769  1.00  0.00     0.023 A 
HETATM   35 BR   UNL     1     -44.918  58.725 -59.174  1.00  0.00    -0.050 Br
HETATM   36  C   UNL     1     -42.951  60.655 -59.790  1.00  0.00     0.020 A 
HETATM   37  C   UNL     1     -41.811  61.434 -59.605  1.00  0.00     0.001 A 
HETATM   38  C   UNL     1     -41.112  61.363 -58.406  1.00  0.00     0.001 A 
HETATM   39  C   UNL     1     -41.560  60.521 -57.386  1.00  0.00     0.015 A 
ENDBRANCH  31  33
ENDBRANCH   1  26
TORSDOF 6
ENDMDL
MODEL 7
REMARK VINA RESULT:      -7.8      1.804      2.777
REMARK  6 active torsions:
REMARK  status: ('A' for Active; 'I' for Inactive)
REMARK    1  A    between atoms: C_4  and  C_5 
REMARK    2  A    between atoms: C_8  and  C_9 
REMARK    3  A    between atoms: C_9  and  N_10 
REMARK       I    between atoms: N_10  and  C_11 
REMARK       I    between atoms: C_11  and  N_12 
REMARK    4  A    between atoms: N_12  and  C_13 
REMARK    5  A    between atoms: C_16  and  C_17 
REMARK    6  A    between atoms: C_29  and  C_30 
ROOT
HETATM    1  C   UNL     1     -44.910  60.059 -53.991  1.00  0.00     0.068 C 
HETATM    2  C   UNL     1     -44.029  61.324 -54.233  1.00  0.00     0.001 C 
HETATM    3  C   UNL     1     -42.700  61.273 -53.444  1.00  0.00     0.040 C 
HETATM    4  C   UNL     1     -42.957  61.012 -51.951  1.00  0.00     0.206 C 
HETATM    5  N   UNL     1     -44.473  61.047 -51.753  1.00  0.00    -0.065 N 
HETATM    6  H   UNL     1     -44.641  60.886 -50.735  1.00  0.00     0.280 HD
HETATM    7  C   UNL     1     -45.200  59.937 -52.484  1.00  0.00     0.246 C 
HETATM    8  C   UNL     1     -44.816  62.538 -53.675  1.00  0.00     0.033 C 
HETATM    9  C   UNL     1     -45.027  62.390 -52.161  1.00  0.00     0.236 C 
ENDROOT
BRANCH   4  10
HETATM   10  C   UNL     1     -42.293  59.709 -51.425  1.00  0.00     0.157 C 
BRANCH  10  11
HETATM   11  N   UNL     1     -41.771  58.802 -52.447  1.00  0.00    -0.341 N 
HETATM   12  C   UNL     1     -41.485  57.473 -52.220  1.00  0.00     0.320 C 
HETATM   13  N   UNL     1     -41.139  56.829 -53.379  1.00  0.00    -0.309 N 
HETATM   14  O   UNL     1     -41.503  56.999 -51.090  1.00  0.00    -0.247 OA
HETATM   15  H   UNL     1     -40.971  57.414 -54.187  1.00  0.00     0.170 HD
HETATM   16  H   UNL     1     -42.091  58.997 -53.388  1.00  0.00     0.164 HD
BRANCH  13  17
HETATM   17  C   UNL     1     -40.846  55.459 -53.550  1.00  0.00     0.036 A 
HETATM   18  C   UNL     1     -40.376  54.903 -54.742  1.00  0.00     0.030 A 
HETATM   19  C   UNL     1     -40.107  53.529 -54.832  1.00  0.00     0.017 A 
HETATM   20  C   UNL     1     -40.302  52.696 -53.726  1.00  0.00     0.009 A 
HETATM   21  C   UNL     1     -40.766  53.255 -52.530  1.00  0.00     0.017 A 
HETATM   22  C   UNL     1     -41.031  54.625 -52.442  1.00  0.00     0.030 A 
BRANCH  20  23
HETATM   23  C   UNL     1     -40.040  51.228 -53.771  1.00  0.00     0.155 C 
HETATM   24  C   UNL     1     -39.278  50.585 -52.643  1.00  0.00     0.096 C 
HETATM   25  O   UNL     1     -40.444  50.568 -54.727  1.00  0.00    -0.293 OA
ENDBRANCH  20  23
ENDBRANCH  13  17
ENDBRANCH  10  11
ENDBRANCH   4  10
BRANCH   1  26
HETATM   26  C   UNL     1     -44.381  58.740 -54.519  1.00  0.00     0.045 A 
HETATM   27  N   UNL     1     -44.592  57.632 -53.789  1.00  0.00    -0.238 NA
HETATM   28  C   UNL     1     -44.192  56.456 -54.311  1.00  0.00     0.123 A 
HETATM   29  C   UNL     1     -44.348  55.223 -53.476  1.00  0.00     0.093 C 
HETATM   30  N   UNL     1     -43.686  56.310 -55.541  1.00  0.00    -0.233 NA
HETATM   31  C   UNL     1     -43.523  57.424 -56.282  1.00  0.00     0.072 A 
HETATM   32  C   UNL     1     -43.814  58.680 -55.780  1.00  0.00     0.060 A 
BRANCH  31  33
HETATM   33  C   UNL     1     -43.028  57.208 -57.650  1.00  0.00     0.010 A 
HETATM   34  C   UNL     1     -42.275  58.156 -58.373  1.00  0.00     0.023 A 
HETATM   35 BR   UNL     1     -41.857  59.885 -57.682  1.00  0.00    -0.050 Br
HETATM   36  C   UNL     1     -41.834  57.886 -59.676  1.00  0.00     0.020 A 
HETATM   37  C   UNL     1     -42.148  56.673 -60.285  1.00  0.00     0.001 A 
HETATM   38  C   UNL     1     -42.907  55.731 -59.600  1.00  0.00     0.001 A 
HETATM   39  C   UNL     1     -43.343  55.998 -58.301  1.00  0.00     0.015 A 
ENDBRANCH  31  33
ENDBRANCH   1  26
TORSDOF 6
ENDMDL
MODEL 8
REMARK VINA RESULT:      -7.8      2.258      3.165
REMARK  6 active torsions:
REMARK  status: ('A' for Active; 'I' for Inactive)
REMARK    1  A    between atoms: C_4  and  C_5 
REMARK    2  A    between atoms: C_8  and  C_9 
REMARK    3  A    between atoms: C_9  and  N_10 
REMARK       I    between atoms: N_10  and  C_11 
REMARK       I    between atoms: C_11  and  N_12 
REMARK    4  A    between atoms: N_12  and  C_13 
REMARK    5  A    between atoms: C_16  and  C_17 
REMARK    6  A    between atoms: C_29  and  C_30 
ROOT
HETATM    1  C   UNL     1     -45.066  60.283 -54.899  1.00  0.00     0.068 C 
HETATM    2  C   UNL     1     -44.603  61.599 -54.200  1.00  0.00     0.001 C 
HETATM    3  C   UNL     1     -43.187  61.473 -53.591  1.00  0.00     0.040 C 
HETATM    4  C   UNL     1     -43.095  60.249 -52.664  1.00  0.00     0.206 C 
HETATM    5  N   UNL     1     -44.507  59.672 -52.556  1.00  0.00    -0.065 N 
HETATM    6  H   UNL     1     -44.442  58.853 -51.912  1.00  0.00     0.280 HD
HETATM    7  C   UNL     1     -45.039  59.139 -53.870  1.00  0.00     0.246 C 
HETATM    8  C   UNL     1     -45.564  61.843 -53.009  1.00  0.00     0.033 C 
HETATM    9  C   UNL     1     -45.455  60.700 -51.988  1.00  0.00     0.236 C 
ENDROOT
BRANCH   4  10
HETATM   10  C   UNL     1     -42.032  59.208 -53.112  1.00  0.00     0.157 C 
BRANCH  10  11
HETATM   11  N   UNL     1     -42.207  57.852 -52.591  1.00  0.00    -0.341 N 
HETATM   12  C   UNL     1     -41.527  56.753 -53.067  1.00  0.00     0.320 C 
HETATM   13  N   UNL     1     -41.782  55.638 -52.313  1.00  0.00    -0.309 N 
HETATM   14  O   UNL     1     -40.835  56.818 -54.078  1.00  0.00    -0.247 OA
HETATM   15  H   UNL     1     -42.537  55.711 -51.643  1.00  0.00     0.170 HD
HETATM   16  H   UNL     1     -42.421  57.805 -51.603  1.00  0.00     0.164 HD
BRANCH  13  17
HETATM   17  C   UNL     1     -41.219  54.353 -52.456  1.00  0.00     0.036 A 
HETATM   18  C   UNL     1     -40.423  53.736 -51.488  1.00  0.00     0.030 A 
HETATM   19  C   UNL     1     -39.899  52.453 -51.704  1.00  0.00     0.017 A 
HETATM   20  C   UNL     1     -40.169  51.771 -52.894  1.00  0.00     0.009 A 
HETATM   21  C   UNL     1     -40.973  52.385 -53.861  1.00  0.00     0.017 A 
HETATM   22  C   UNL     1     -41.497  53.663 -53.641  1.00  0.00     0.030 A 
BRANCH  20  23
HETATM   23  C   UNL     1     -39.630  50.408 -53.179  1.00  0.00     0.155 C 
HETATM   24  C   UNL     1     -39.499  49.956 -54.609  1.00  0.00     0.096 C 
HETATM   25  O   UNL     1     -39.305  49.676 -52.245  1.00  0.00    -0.293 OA
ENDBRANCH  20  23
ENDBRANCH  13  17
ENDBRANCH  10  11
ENDBRANCH   4  10
BRANCH   1  26
HETATM   26  C   UNL     1     -44.316  59.866 -56.149  1.00  0.00     0.045 A 
HETATM   27  N   UNL     1     -43.171  60.505 -56.446  1.00  0.00    -0.238 NA
HETATM   28  C   UNL     1     -42.472  60.066 -57.512  1.00  0.00     0.123 A 
HETATM   29  C   UNL     1     -41.238  60.817 -57.903  1.00  0.00     0.093 C 
HETATM   30  N   UNL     1     -42.794  58.985 -58.232  1.00  0.00    -0.233 NA
HETATM   31  C   UNL     1     -43.920  58.325 -57.894  1.00  0.00     0.072 A 
HETATM   32  C   UNL     1     -44.745  58.771 -56.877  1.00  0.00     0.060 A 
BRANCH  31  33
HETATM   33  C   UNL     1     -44.196  57.107 -58.668  1.00  0.00     0.010 A 
HETATM   34  C   UNL     1     -43.770  55.818 -58.285  1.00  0.00     0.023 A 
HETATM   35 BR   UNL     1     -42.714  55.502 -56.727  1.00  0.00    -0.050 Br
HETATM   36  C   UNL     1     -44.067  54.696 -59.070  1.00  0.00     0.020 A 
HETATM   37  C   UNL     1     -44.779  54.840 -60.259  1.00  0.00     0.001 A 
HETATM   38  C   UNL     1     -45.191  56.103 -60.669  1.00  0.00     0.001 A 
HETATM   39  C   UNL     1     -44.900  57.221 -59.884  1.00  0.00     0.015 A 
ENDBRANCH  31  33
ENDBRANCH   1  26
TORSDOF 6
ENDMDL
MODEL 9
REMARK VINA RESULT:      -7.7      3.565      6.177
REMARK  6 active torsions:
REMARK  status: ('A' for Active; 'I' for Inactive)
REMARK    1  A    between atoms: C_4  and  C_5 
REMARK    2  A    between atoms: C_8  and  C_9 
REMARK    3  A    between atoms: C_9  and  N_10 
REMARK       I    between atoms: N_10  and  C_11 
REMARK       I    between atoms: C_11  and  N_12 
REMARK    4  A    between atoms: N_12  and  C_13 
REMARK    5  A    between atoms: C_16  and  C_17 
REMARK    6  A    between atoms: C_29  and  C_30 
ROOT
HETATM    1  C   UNL     1     -45.631  59.867 -58.839  1.00  0.00     0.068 C 
HETATM    2  C   UNL     1     -46.803  58.881 -58.545  1.00  0.00     0.001 C 
HETATM    3  C   UNL     1     -46.362  57.402 -58.630  1.00  0.00     0.040 C 
HETATM    4  C   UNL     1     -45.670  57.111 -59.972  1.00  0.00     0.206 C 
HETATM    5  N   UNL     1     -45.806  58.376 -60.820  1.00  0.00    -0.065 N 
HETATM    6  H   UNL     1     -45.350  58.168 -61.735  1.00  0.00     0.280 HD
HETATM    7  C   UNL     1     -45.070  59.568 -60.241  1.00  0.00     0.246 C 
HETATM    8  C   UNL     1     -47.857  59.081 -59.665  1.00  0.00     0.033 C 
HETATM    9  C   UNL     1     -47.260  58.716 -61.033  1.00  0.00     0.236 C 
ENDROOT
BRANCH   4  10
HETATM   10  C   UNL     1     -44.204  56.619 -59.822  1.00  0.00     0.157 C 
BRANCH  10  11
HETATM   11  N   UNL     1     -43.976  55.596 -58.801  1.00  0.00    -0.341 N 
HETATM   12  C   UNL     1     -43.241  55.806 -57.655  1.00  0.00     0.320 C 
HETATM   13  N   UNL     1     -43.302  54.725 -56.815  1.00  0.00    -0.309 N 
HETATM   14  O   UNL     1     -42.592  56.833 -57.491  1.00  0.00    -0.247 OA
HETATM   15  H   UNL     1     -43.708  53.880 -57.195  1.00  0.00     0.170 HD
HETATM   16  H   UNL     1     -44.738  54.939 -58.685  1.00  0.00     0.164 HD
BRANCH  13  17
HETATM   17  C   UNL     1     -42.733  54.599 -55.530  1.00  0.00     0.036 A 
HETATM   18  C   UNL     1     -43.448  54.759 -54.340  1.00  0.00     0.030 A 
HETATM   19  C   UNL     1     -42.810  54.618 -53.099  1.00  0.00     0.017 A 
HETATM   20  C   UNL     1     -41.448  54.311 -53.034  1.00  0.00     0.009 A 
HETATM   21  C   UNL     1     -40.734  54.143 -54.226  1.00  0.00     0.017 A 
HETATM   22  C   UNL     1     -41.372  54.282 -55.462  1.00  0.00     0.030 A 
BRANCH  20  23
HETATM   23  C   UNL     1     -40.719  54.159 -51.741  1.00  0.00     0.155 C 
HETATM   24  C   UNL     1     -40.982  55.142 -50.631  1.00  0.00     0.096 C 
HETATM   25  O   UNL     1     -39.915  53.239 -51.602  1.00  0.00    -0.293 OA
ENDBRANCH  20  23
ENDBRANCH  13  17
ENDBRANCH  10  11
ENDBRANCH   4  10
BRANCH   1  26
HETATM   26  C   UNL     1     -44.498  59.909 -57.833  1.00  0.00     0.045 A 
HETATM   27  N   UNL     1     -43.328  60.451 -58.214  1.00  0.00    -0.238 NA
HETATM   28  C   UNL     1     -42.359  60.559 -57.284  1.00  0.00     0.123 A 
HETATM   29  C   UNL     1     -41.025  61.087 -57.712  1.00  0.00     0.093 C 
HETATM   30  N   UNL     1     -42.516  60.250 -55.991  1.00  0.00    -0.233 NA
HETATM   31  C   UNL     1     -43.710  59.751 -55.612  1.00  0.00     0.072 A 
HETATM   32  C   UNL     1     -44.722  59.515 -56.525  1.00  0.00     0.060 A 
BRANCH  31  33
HETATM   33  C   UNL     1     -43.858  59.491 -54.173  1.00  0.00     0.010 A 
HETATM   34  C   UNL     1     -42.922  58.769 -53.404  1.00  0.00     0.023 A 
HETATM   35 BR   UNL     1     -41.361  57.974 -54.160  1.00  0.00    -0.050 Br
HETATM   36  C   UNL     1     -43.124  58.556 -52.033  1.00  0.00     0.020 A 
HETATM   37  C   UNL     1     -44.269  59.046 -51.409  1.00  0.00     0.001 A 
HETATM   38  C   UNL     1     -45.217  59.742 -52.150  1.00  0.00     0.001 A 
HETATM   39  C   UNL     1     -45.014  59.958 -53.515  1.00  0.00     0.015 A 
ENDBRANCH  31  33
ENDBRANCH   1  26
TORSDOF 6
ENDMDL
MODEL 10
REMARK VINA RESULT:      -7.6      2.566      3.715
REMARK  6 active torsions:
REMARK  status: ('A' for Active; 'I' for Inactive)
REMARK    1  A    between atoms: C_4  and  C_5 
REMARK    2  A    between atoms: C_8  and  C_9 
REMARK    3  A    between atoms: C_9  and  N_10 
REMARK       I    between atoms: N_10  and  C_11 
REMARK       I    between atoms: C_11  and  N_12 
REMARK    4  A    between atoms: N_12  and  C_13 
REMARK    5  A    between atoms: C_16  and  C_17 
REMARK    6  A    between atoms: C_29  and  C_30 
ROOT
HETATM    1  C   UNL     1     -45.474  59.974 -53.837  1.00  0.00     0.068 C 
HETATM    2  C   UNL     1     -45.038  61.164 -52.928  1.00  0.00     0.001 C 
HETATM    3  C   UNL     1     -43.529  61.480 -53.057  1.00  0.00     0.040 C 
HETATM    4  C   UNL     1     -42.682  60.218 -52.822  1.00  0.00     0.206 C 
HETATM    5  N   UNL     1     -43.648  59.115 -52.387  1.00  0.00    -0.065 N 
HETATM    6  H   UNL     1     -43.066  58.266 -52.212  1.00  0.00     0.280 HD
HETATM    7  C   UNL     1     -44.646  58.732 -53.460  1.00  0.00     0.246 C 
HETATM    8  C   UNL     1     -45.261  60.720 -51.459  1.00  0.00     0.033 C 
HETATM    9  C   UNL     1     -44.369  59.514 -51.123  1.00  0.00     0.236 C 
ENDROOT
BRANCH   4  10
HETATM   10  C   UNL     1     -41.801  59.826 -54.040  1.00  0.00     0.157 C 
BRANCH  10  11
HETATM   11  N   UNL     1     -41.885  58.428 -54.465  1.00  0.00    -0.341 N 
HETATM   12  C   UNL     1     -41.182  57.402 -53.873  1.00  0.00     0.320 C 
HETATM   13  N   UNL     1     -41.551  56.183 -54.379  1.00  0.00    -0.309 N 
HETATM   14  O   UNL     1     -40.309  57.622 -53.041  1.00  0.00    -0.247 OA
HETATM   15  H   UNL     1     -42.133  56.195 -55.206  1.00  0.00     0.170 HD
HETATM   16  H   UNL     1     -42.791  58.150 -54.823  1.00  0.00     0.164 HD
BRANCH  13  17
HETATM   17  C   UNL     1     -41.099  54.909 -53.974  1.00  0.00     0.036 A 
HETATM   18  C   UNL     1     -41.094  54.466 -52.650  1.00  0.00     0.030 A 
HETATM   19  C   UNL     1     -40.628  53.183 -52.327  1.00  0.00     0.017 A 
HETATM   20  C   UNL     1     -40.164  52.326 -53.329  1.00  0.00     0.009 A 
HETATM   21  C   UNL     1     -40.176  52.767 -54.657  1.00  0.00     0.017 A 
HETATM   22  C   UNL     1     -40.644  54.046 -54.977  1.00  0.00     0.030 A 
BRANCH  20  23
HETATM   23  C   UNL     1     -39.649  50.956 -53.040  1.00  0.00     0.155 C 
HETATM   24  C   UNL     1     -39.484  49.979 -54.175  1.00  0.00     0.096 C 
HETATM   25  O   UNL     1     -39.372  50.643 -51.883  1.00  0.00    -0.293 OA
ENDBRANCH  20  23
ENDBRANCH  13  17
ENDBRANCH  10  11
ENDBRANCH   4  10
BRANCH   1  26
HETATM   26  C   UNL     1     -45.414  60.195 -55.336  1.00  0.00     0.045 A 
HETATM   27  N   UNL     1     -45.818  61.381 -55.820  1.00  0.00    -0.238 NA
HETATM   28  C   UNL     1     -45.679  61.594 -57.144  1.00  0.00     0.123 A 
HETATM   29  C   UNL     1     -46.197  62.878 -57.711  1.00  0.00     0.093 C 
HETATM   30  N   UNL     1     -45.084  60.741 -57.986  1.00  0.00    -0.233 NA
HETATM   31  C   UNL     1     -44.641  59.573 -57.478  1.00  0.00     0.072 A 
HETATM   32  C   UNL     1     -44.837  59.237 -56.151  1.00  0.00     0.060 A 
BRANCH  31  33
HETATM   33  C   UNL     1     -43.935  58.699 -58.426  1.00  0.00     0.010 A 
HETATM   34  C   UNL     1     -44.581  57.786 -59.286  1.00  0.00     0.023 A 
HETATM   35 BR   UNL     1     -46.471  57.522 -59.277  1.00  0.00    -0.050 Br
HETATM   36  C   UNL     1     -43.846  56.981 -60.167  1.00  0.00     0.020 A 
HETATM   37  C   UNL     1     -42.455  57.060 -60.196  1.00  0.00     0.001 A 
HETATM   38  C   UNL     1     -41.795  57.936 -59.343  1.00  0.00     0.001 A 
HETATM   39  C   UNL     1     -42.526  58.743 -58.468  1.00  0.00     0.015 A 
ENDBRANCH  31  33
ENDBRANCH   1  26
TORSDOF 6
ENDMDL
