MODEL 1
REMARK VINA RESULT:      -8.7      0.000      0.000
REMARK  8 active torsions:
REMARK  status: ('A' for Active; 'I' for Inactive)
REMARK    1  A    between atoms: C_4  and  C_5 
REMARK    2  A    between atoms: C_5  and  N_6 
REMARK    3  A    between atoms: C_8  and  N_9 
REMARK       I    between atoms: N_9  and  C_10 
REMARK       I    between atoms: C_10  and  N_11 
REMARK    4  A    between atoms: N_11  and  C_12 
REMARK    5  A    between atoms: C_12  and  C_13 
REMARK    6  A    between atoms: C_13  and  N_14 
REMARK       I    between atoms: N_14  and  C_15 
REMARK    7  A    between atoms: C_15  and  C_16 
REMARK    8  A    between atoms: C_17  and  O_18 
ROOT
HETATM    1  N   UNL     1     -44.230  56.141 -53.060  1.00  0.00    -0.292 N 
HETATM    2  C   UNL     1     -43.578  56.334 -51.881  1.00  0.00     0.321 C 
HETATM    3  N   UNL     1     -42.237  56.111 -51.865  1.00  0.00    -0.341 N 
HETATM    4  O   UNL     1     -44.212  56.669 -50.881  1.00  0.00    -0.247 OA
HETATM    5  H   UNL     1     -45.229  56.263 -53.000  1.00  0.00     0.172 HD
HETATM    6  H   UNL     1     -41.809  55.974 -52.779  1.00  0.00     0.164 HD
ENDROOT
BRANCH   1   7
HETATM    7  C   UNL     1     -43.702  55.846 -54.297  1.00  0.00     0.153 A 
HETATM    8  N   UNL     1     -43.557  56.726 -55.294  1.00  0.00    -0.154 NA
HETATM    9  N   UNL     1     -43.020  56.004 -56.301  1.00  0.00    -0.275 N 
HETATM   10  C   UNL     1     -42.833  54.691 -55.979  1.00  0.00     0.116 A 
HETATM   11  C   UNL     1     -43.266  54.558 -54.682  1.00  0.00     0.071 A 
BRANCH   9  12
HETATM   12  C   UNL     1     -42.777  56.624 -57.598  1.00  0.00     0.189 C 
BRANCH  12  13
HETATM   13  C   UNL     1     -43.885  56.337 -58.580  1.00  0.00    -0.038 A 
HETATM   14  C   UNL     1     -44.986  57.201 -58.687  1.00  0.00     0.009 A 
HETATM   15  C   UNL     1     -45.997  56.948 -59.615  1.00  0.00     0.001 A 
HETATM   16  C   UNL     1     -45.920  55.833 -60.447  1.00  0.00     0.000 A 
HETATM   17  C   UNL     1     -44.833  54.968 -60.353  1.00  0.00     0.001 A 
HETATM   18  C   UNL     1     -43.818  55.219 -59.427  1.00  0.00     0.009 A 
ENDBRANCH  12  13
ENDBRANCH   9  12
ENDBRANCH   1   7
BRANCH   3  19
HETATM   19  C   UNL     1     -41.412  56.380 -50.708  1.00  0.00     0.144 C 
BRANCH  19  20
HETATM   20  C   UNL     1     -40.679  55.136 -50.188  1.00  0.00     0.142 C 
BRANCH  20  21
HETATM   21  N   UNL     1     -40.408  54.174 -51.243  1.00  0.00    -0.355 N 
HETATM   22  C   UNL     1     -40.295  52.826 -50.983  1.00  0.00     0.254 C 
HETATM   23  O   UNL     1     -40.382  52.352 -49.853  1.00  0.00    -0.268 OA
HETATM   24  H   UNL     1     -40.547  54.498 -52.189  1.00  0.00     0.162 HD
BRANCH  22  25
HETATM   25  C   UNL     1     -40.114  51.910 -52.147  1.00  0.00     0.065 A 
HETATM   26  C   UNL     1     -39.697  50.587 -51.926  1.00  0.00     0.081 A 
HETATM   27  C   UNL     1     -39.546  49.700 -52.991  1.00  0.00     0.037 A 
HETATM   28  C   UNL     1     -39.795  50.126 -54.293  1.00  0.00     0.003 A 
HETATM   29  C   UNL     1     -40.184  51.443 -54.533  1.00  0.00     0.001 A 
HETATM   30  C   UNL     1     -40.339  52.335 -53.466  1.00  0.00     0.020 A 
BRANCH  26  31
HETATM   31  O   UNL     1     -39.413  50.087 -50.682  1.00  0.00    -0.360 OA
HETATM   32  H   UNL     1     -38.436  50.108 -50.568  1.00  0.00     0.217 HD
ENDBRANCH  26  31
ENDBRANCH  22  25
ENDBRANCH  20  21
ENDBRANCH  19  20
ENDBRANCH   3  19
TORSDOF 8
ENDMDL
MODEL 2
REMARK VINA RESULT:      -8.7      2.976      6.656
REMARK  8 active torsions:
REMARK  status: ('A' for Active; 'I' for Inactive)
REMARK    1  A    between atoms: C_4  and  C_5 
REMARK    2  A    between atoms: C_5  and  N_6 
REMARK    3  A    between atoms: C_8  and  N_9 
REMARK       I    between atoms: N_9  and  C_10 
REMARK       I    between atoms: C_10  and  N_11 
REMARK    4  A    between atoms: N_11  and  C_12 
REMARK    5  A    between atoms: C_12  and  C_13 
REMARK    6  A    between atoms: C_13  and  N_14 
REMARK       I    between atoms: N_14  and  C_15 
REMARK    7  A    between atoms: C_15  and  C_16 
REMARK    8  A    between atoms: C_17  and  O_18 
ROOT
HETATM    1  N   UNL     1     -42.237  56.101 -56.849  1.00  0.00    -0.292 N 
HETATM    2  C   UNL     1     -42.438  57.447 -56.797  1.00  0.00     0.321 C 
HETATM    3  N   UNL     1     -42.621  58.003 -55.570  1.00  0.00    -0.341 N 
HETATM    4  O   UNL     1     -42.475  58.099 -57.839  1.00  0.00    -0.247 OA
HETATM    5  H   UNL     1     -42.167  55.734 -57.786  1.00  0.00     0.172 HD
HETATM    6  H   UNL     1     -42.431  57.386 -54.781  1.00  0.00     0.164 HD
ENDROOT
BRANCH   1   7
HETATM    7  C   UNL     1     -42.085  55.212 -55.810  1.00  0.00     0.153 A 
HETATM    8  N   UNL     1     -41.039  55.185 -54.976  1.00  0.00    -0.154 NA
HETATM    9  N   UNL     1     -41.307  54.160 -54.138  1.00  0.00    -0.275 N 
HETATM   10  C   UNL     1     -42.483  53.527 -54.422  1.00  0.00     0.116 A 
HETATM   11  C   UNL     1     -43.013  54.189 -55.503  1.00  0.00     0.071 A 
BRANCH   9  12
HETATM   12  C   UNL     1     -40.340  53.780 -53.114  1.00  0.00     0.189 C 
BRANCH  12  13
HETATM   13  C   UNL     1     -40.104  52.291 -53.082  1.00  0.00    -0.038 A 
HETATM   14  C   UNL     1     -40.123  51.540 -54.268  1.00  0.00     0.009 A 
HETATM   15  C   UNL     1     -39.878  50.166 -54.240  1.00  0.00     0.001 A 
HETATM   16  C   UNL     1     -39.609  49.529 -53.030  1.00  0.00     0.000 A 
HETATM   17  C   UNL     1     -39.586  50.262 -51.846  1.00  0.00     0.001 A 
HETATM   18  C   UNL     1     -39.829  51.637 -51.871  1.00  0.00     0.009 A 
ENDBRANCH  12  13
ENDBRANCH   9  12
ENDBRANCH   1   7
BRANCH   3  19
HETATM   19  C   UNL     1     -42.738  59.429 -55.367  1.00  0.00     0.144 C 
BRANCH  19  20
HETATM   20  C   UNL     1     -42.616  59.841 -53.894  1.00  0.00     0.142 C 
BRANCH  20  21
HETATM   21  N   UNL     1     -42.747  58.708 -52.992  1.00  0.00    -0.355 N 
HETATM   22  C   UNL     1     -41.673  57.908 -52.673  1.00  0.00     0.254 C 
HETATM   23  O   UNL     1     -40.551  58.072 -53.146  1.00  0.00    -0.268 OA
HETATM   24  H   UNL     1     -43.585  58.681 -52.429  1.00  0.00     0.162 HD
BRANCH  22  25
HETATM   25  C   UNL     1     -41.888  56.832 -51.662  1.00  0.00     0.065 A 
HETATM   26  C   UNL     1     -43.046  56.040 -51.732  1.00  0.00     0.081 A 
HETATM   27  C   UNL     1     -43.261  55.009 -50.818  1.00  0.00     0.037 A 
HETATM   28  C   UNL     1     -42.330  54.764 -49.811  1.00  0.00     0.003 A 
HETATM   29  C   UNL     1     -41.189  55.558 -49.712  1.00  0.00     0.001 A 
HETATM   30  C   UNL     1     -40.968  56.591 -50.629  1.00  0.00     0.020 A 
BRANCH  26  31
HETATM   31  O   UNL     1     -44.023  56.220 -52.676  1.00  0.00    -0.360 OA
HETATM   32  H   UNL     1     -43.587  56.530 -53.501  1.00  0.00     0.217 HD
ENDBRANCH  26  31
ENDBRANCH  22  25
ENDBRANCH  20  21
ENDBRANCH  19  20
ENDBRANCH   3  19
TORSDOF 8
ENDMDL
MODEL 3
REMARK VINA RESULT:      -8.6      3.545      9.294
REMARK  8 active torsions:
REMARK  status: ('A' for Active; 'I' for Inactive)
REMARK    1  A    between atoms: C_4  and  C_5 
REMARK    2  A    between atoms: C_5  and  N_6 
REMARK    3  A    between atoms: C_8  and  N_9 
REMARK       I    between atoms: N_9  and  C_10 
REMARK       I    between atoms: C_10  and  N_11 
REMARK    4  A    between atoms: N_11  and  C_12 
REMARK    5  A    between atoms: C_12  and  C_13 
REMARK    6  A    between atoms: C_13  and  N_14 
REMARK       I    between atoms: N_14  and  C_15 
REMARK    7  A    between atoms: C_15  and  C_16 
REMARK    8  A    between atoms: C_17  and  O_18 
ROOT
HETATM    1  N   UNL     1     -43.296  54.696 -56.827  1.00  0.00    -0.292 N 
HETATM    2  C   UNL     1     -43.131  55.754 -57.667  1.00  0.00     0.321 C 
HETATM    3  N   UNL     1     -42.560  56.876 -57.154  1.00  0.00    -0.341 N 
HETATM    4  O   UNL     1     -43.522  55.676 -58.831  1.00  0.00    -0.247 OA
HETATM    5  H   UNL     1     -43.778  53.914 -57.244  1.00  0.00     0.172 HD
HETATM    6  H   UNL     1     -42.155  56.771 -56.224  1.00  0.00     0.164 HD
ENDROOT
BRANCH   1   7
HETATM    7  C   UNL     1     -42.863  54.553 -55.528  1.00  0.00     0.153 A 
HETATM    8  N   UNL     1     -41.600  54.299 -55.168  1.00  0.00    -0.154 NA
HETATM    9  N   UNL     1     -41.645  54.231 -53.820  1.00  0.00    -0.275 N 
HETATM   10  C   UNL     1     -42.899  54.419 -53.314  1.00  0.00     0.116 A 
HETATM   11  C   UNL     1     -43.712  54.632 -54.400  1.00  0.00     0.071 A 
BRANCH   9  12
HETATM   12  C   UNL     1     -40.443  53.898 -53.064  1.00  0.00     0.189 C 
BRANCH  12  13
HETATM   13  C   UNL     1     -40.186  52.412 -53.033  1.00  0.00    -0.038 A 
HETATM   14  C   UNL     1     -40.349  51.635 -54.190  1.00  0.00     0.009 A 
HETATM   15  C   UNL     1     -40.085  50.264 -54.166  1.00  0.00     0.001 A 
HETATM   16  C   UNL     1     -39.655  49.656 -52.989  1.00  0.00     0.000 A 
HETATM   17  C   UNL     1     -39.489  50.415 -51.833  1.00  0.00     0.001 A 
HETATM   18  C   UNL     1     -39.749  51.786 -51.854  1.00  0.00     0.009 A 
ENDBRANCH  12  13
ENDBRANCH   9  12
ENDBRANCH   1   7
BRANCH   3  19
HETATM   19  C   UNL     1     -42.233  58.029 -57.962  1.00  0.00     0.144 C 
BRANCH  19  20
HETATM   20  C   UNL     1     -43.375  59.050 -58.047  1.00  0.00     0.142 C 
BRANCH  20  21
HETATM   21  N   UNL     1     -44.330  58.723 -59.093  1.00  0.00    -0.355 N 
HETATM   22  C   UNL     1     -45.595  58.263 -58.802  1.00  0.00     0.254 C 
HETATM   23  O   UNL     1     -45.990  58.068 -57.654  1.00  0.00    -0.268 OA
HETATM   24  H   UNL     1     -44.119  59.074 -60.016  1.00  0.00     0.162 HD
BRANCH  22  25
HETATM   25  C   UNL     1     -46.534  58.051 -59.942  1.00  0.00     0.065 A 
HETATM   26  C   UNL     1     -46.849  56.743 -60.343  1.00  0.00     0.081 A 
HETATM   27  C   UNL     1     -47.745  56.512 -61.386  1.00  0.00     0.037 A 
HETATM   28  C   UNL     1     -48.326  57.587 -62.055  1.00  0.00     0.003 A 
HETATM   29  C   UNL     1     -48.004  58.892 -61.688  1.00  0.00     0.001 A 
HETATM   30  C   UNL     1     -47.108  59.126 -60.639  1.00  0.00     0.020 A 
BRANCH  26  31
HETATM   31  O   UNL     1     -46.312  55.627 -59.754  1.00  0.00    -0.360 OA
HETATM   32  H   UNL     1     -45.891  55.908 -58.911  1.00  0.00     0.217 HD
ENDBRANCH  26  31
ENDBRANCH  22  25
ENDBRANCH  20  21
ENDBRANCH  19  20
ENDBRANCH   3  19
TORSDOF 8
ENDMDL
MODEL 4
REMARK VINA RESULT:      -8.6      2.969      7.357
REMARK  8 active torsions:
REMARK  status: ('A' for Active; 'I' for Inactive)
REMARK    1  A    between atoms: C_4  and  C_5 
REMARK    2  A    between atoms: C_5  and  N_6 
REMARK    3  A    between atoms: C_8  and  N_9 
REMARK       I    between atoms: N_9  and  C_10 
REMARK       I    between atoms: C_10  and  N_11 
REMARK    4  A    between atoms: N_11  and  C_12 
REMARK    5  A    between atoms: C_12  and  C_13 
REMARK    6  A    between atoms: C_13  and  N_14 
REMARK       I    between atoms: N_14  and  C_15 
REMARK    7  A    between atoms: C_15  and  C_16 
REMARK    8  A    between atoms: C_17  and  O_18 
ROOT
HETATM    1  N   UNL     1     -43.996  55.290 -52.003  1.00  0.00    -0.292 N 
HETATM    2  C   UNL     1     -43.907  56.522 -51.429  1.00  0.00     0.321 C 
HETATM    3  N   UNL     1     -42.857  57.305 -51.792  1.00  0.00    -0.341 N 
HETATM    4  O   UNL     1     -44.745  56.869 -50.598  1.00  0.00    -0.247 OA
HETATM    5  H   UNL     1     -44.759  54.731 -51.654  1.00  0.00     0.172 HD
HETATM    6  H   UNL     1     -42.314  56.964 -52.585  1.00  0.00     0.164 HD
ENDROOT
BRANCH   1   7
HETATM    7  C   UNL     1     -43.217  54.746 -52.999  1.00  0.00     0.153 A 
HETATM    8  N   UNL     1     -41.956  54.328 -52.839  1.00  0.00    -0.154 NA
HETATM    9  N   UNL     1     -41.593  53.889 -54.064  1.00  0.00    -0.275 N 
HETATM   10  C   UNL     1     -42.578  54.029 -54.998  1.00  0.00     0.116 A 
HETATM   11  C   UNL     1     -43.647  54.582 -54.336  1.00  0.00     0.071 A 
BRANCH   9  12
HETATM   12  C   UNL     1     -40.235  53.410 -54.296  1.00  0.00     0.189 C 
BRANCH  12  13
HETATM   13  C   UNL     1     -39.987  52.072 -53.647  1.00  0.00    -0.038 A 
HETATM   14  C   UNL     1     -39.703  51.985 -52.275  1.00  0.00     0.009 A 
HETATM   15  C   UNL     1     -39.500  50.744 -51.671  1.00  0.00     0.001 A 
HETATM   16  C   UNL     1     -39.580  49.577 -52.427  1.00  0.00     0.000 A 
HETATM   17  C   UNL     1     -39.862  49.647 -53.789  1.00  0.00     0.001 A 
HETATM   18  C   UNL     1     -40.068  50.888 -54.397  1.00  0.00     0.009 A 
ENDBRANCH  12  13
ENDBRANCH   9  12
ENDBRANCH   1   7
BRANCH   3  19
HETATM   19  C   UNL     1     -42.704  58.669 -51.340  1.00  0.00     0.144 C 
BRANCH  19  20
HETATM   20  C   UNL     1     -43.362  59.692 -52.274  1.00  0.00     0.142 C 
BRANCH  20  21
HETATM   21  N   UNL     1     -43.340  59.265 -53.663  1.00  0.00    -0.355 N 
HETATM   22  C   UNL     1     -42.250  59.491 -54.474  1.00  0.00     0.254 C 
HETATM   23  O   UNL     1     -41.246  60.090 -54.096  1.00  0.00    -0.268 OA
HETATM   24  H   UNL     1     -44.043  58.592 -53.934  1.00  0.00     0.162 HD
BRANCH  22  25
HETATM   25  C   UNL     1     -42.286  58.925 -55.855  1.00  0.00     0.065 A 
HETATM   26  C   UNL     1     -41.893  59.727 -56.939  1.00  0.00     0.081 A 
HETATM   27  C   UNL     1     -41.889  59.218 -58.238  1.00  0.00     0.037 A 
HETATM   28  C   UNL     1     -42.293  57.906 -58.473  1.00  0.00     0.003 A 
HETATM   29  C   UNL     1     -42.711  57.105 -57.411  1.00  0.00     0.001 A 
HETATM   30  C   UNL     1     -42.713  57.612 -56.107  1.00  0.00     0.020 A 
BRANCH  26  31
HETATM   31  O   UNL     1     -41.498  61.032 -56.804  1.00  0.00    -0.360 OA
HETATM   32  H   UNL     1     -40.653  61.038 -56.300  1.00  0.00     0.217 HD
ENDBRANCH  26  31
ENDBRANCH  22  25
ENDBRANCH  20  21
ENDBRANCH  19  20
ENDBRANCH   3  19
TORSDOF 8
ENDMDL
MODEL 5
REMARK VINA RESULT:      -8.6      4.203      8.897
REMARK  8 active torsions:
REMARK  status: ('A' for Active; 'I' for Inactive)
REMARK    1  A    between atoms: C_4  and  C_5 
REMARK    2  A    between atoms: C_5  and  N_6 
REMARK    3  A    between atoms: C_8  and  N_9 
REMARK       I    between atoms: N_9  and  C_10 
REMARK       I    between atoms: C_10  and  N_11 
REMARK    4  A    between atoms: N_11  and  C_12 
REMARK    5  A    between atoms: C_12  and  C_13 
REMARK    6  A    between atoms: C_13  and  N_14 
REMARK       I    between atoms: N_14  and  C_15 
REMARK    7  A    between atoms: C_15  and  C_16 
REMARK    8  A    between atoms: C_17  and  O_18 
ROOT
HETATM    1  N   UNL     1     -44.063  55.780 -51.652  1.00  0.00    -0.292 N 
HETATM    2  C   UNL     1     -44.229  57.120 -51.475  1.00  0.00     0.321 C 
HETATM    3  N   UNL     1     -43.441  57.948 -52.210  1.00  0.00    -0.341 N 
HETATM    4  O   UNL     1     -45.049  57.530 -50.655  1.00  0.00    -0.247 OA
HETATM    5  H   UNL     1     -44.630  55.213 -51.040  1.00  0.00     0.172 HD
HETATM    6  H   UNL     1     -42.905  57.495 -52.950  1.00  0.00     0.164 HD
ENDROOT
BRANCH   1   7
HETATM    7  C   UNL     1     -43.267  55.124 -52.563  1.00  0.00     0.153 A 
HETATM    8  N   UNL     1     -41.976  54.827 -52.375  1.00  0.00    -0.154 NA
HETATM    9  N   UNL     1     -41.606  54.206 -53.515  1.00  0.00    -0.275 N 
HETATM   10  C   UNL     1     -42.618  54.112 -54.427  1.00  0.00     0.116 A 
HETATM   11  C   UNL     1     -43.711  54.698 -53.837  1.00  0.00     0.071 A 
BRANCH   9  12
HETATM   12  C   UNL     1     -40.222  53.788 -53.705  1.00  0.00     0.189 C 
BRANCH  12  13
HETATM   13  C   UNL     1     -40.021  52.329 -53.380  1.00  0.00    -0.038 A 
HETATM   14  C   UNL     1     -39.704  51.926 -52.074  1.00  0.00     0.009 A 
HETATM   15  C   UNL     1     -39.544  50.574 -51.769  1.00  0.00     0.001 A 
HETATM   16  C   UNL     1     -39.700  49.610 -52.763  1.00  0.00     0.000 A 
HETATM   17  C   UNL     1     -40.015  49.995 -54.063  1.00  0.00     0.001 A 
HETATM   18  C   UNL     1     -40.178  51.347 -54.371  1.00  0.00     0.009 A 
ENDBRANCH  12  13
ENDBRANCH   9  12
ENDBRANCH   1   7
BRANCH   3  19
HETATM   19  C   UNL     1     -43.588  59.386 -52.196  1.00  0.00     0.144 C 
BRANCH  19  20
HETATM   20  C   UNL     1     -42.647  60.080 -51.203  1.00  0.00     0.142 C 
BRANCH  20  21
HETATM   21  N   UNL     1     -43.309  60.403 -49.950  1.00  0.00    -0.355 N 
HETATM   22  C   UNL     1     -44.099  61.523 -49.816  1.00  0.00     0.254 C 
HETATM   23  O   UNL     1     -44.274  62.333 -50.724  1.00  0.00    -0.268 OA
HETATM   24  H   UNL     1     -43.363  59.660 -49.269  1.00  0.00     0.162 HD
BRANCH  22  25
HETATM   25  C   UNL     1     -44.815  61.714 -48.520  1.00  0.00     0.065 A 
HETATM   26  C   UNL     1     -45.620  60.679 -48.017  1.00  0.00     0.081 A 
HETATM   27  C   UNL     1     -46.278  60.817 -46.796  1.00  0.00     0.037 A 
HETATM   28  C   UNL     1     -46.154  61.998 -46.067  1.00  0.00     0.003 A 
HETATM   29  C   UNL     1     -45.381  63.045 -46.565  1.00  0.00     0.001 A 
HETATM   30  C   UNL     1     -44.716  62.908 -47.789  1.00  0.00     0.020 A 
BRANCH  26  31
HETATM   31  O   UNL     1     -45.813  59.492 -48.673  1.00  0.00    -0.360 OA
HETATM   32  H   UNL     1     -46.592  59.601 -49.264  1.00  0.00     0.217 HD
ENDBRANCH  26  31
ENDBRANCH  22  25
ENDBRANCH  20  21
ENDBRANCH  19  20
ENDBRANCH   3  19
TORSDOF 8
ENDMDL
MODEL 6
REMARK VINA RESULT:      -8.5      3.009      7.546
REMARK  8 active torsions:
REMARK  status: ('A' for Active; 'I' for Inactive)
REMARK    1  A    between atoms: C_4  and  C_5 
REMARK    2  A    between atoms: C_5  and  N_6 
REMARK    3  A    between atoms: C_8  and  N_9 
REMARK       I    between atoms: N_9  and  C_10 
REMARK       I    between atoms: C_10  and  N_11 
REMARK    4  A    between atoms: N_11  and  C_12 
REMARK    5  A    between atoms: C_12  and  C_13 
REMARK    6  A    between atoms: C_13  and  N_14 
REMARK       I    between atoms: N_14  and  C_15 
REMARK    7  A    between atoms: C_15  and  C_16 
REMARK    8  A    between atoms: C_17  and  O_18 
ROOT
HETATM    1  N   UNL     1     -44.068  55.608 -53.232  1.00  0.00    -0.292 N 
HETATM    2  C   UNL     1     -44.098  56.932 -53.549  1.00  0.00     0.321 C 
HETATM    3  N   UNL     1     -43.180  57.737 -52.953  1.00  0.00    -0.341 N 
HETATM    4  O   UNL     1     -44.954  57.354 -54.326  1.00  0.00    -0.247 OA
HETATM    5  H   UNL     1     -44.808  55.070 -53.657  1.00  0.00     0.172 HD
HETATM    6  H   UNL     1     -42.443  57.252 -52.442  1.00  0.00     0.164 HD
ENDROOT
BRANCH   1   7
HETATM    7  C   UNL     1     -43.156  54.930 -52.457  1.00  0.00     0.153 A 
HETATM    8  N   UNL     1     -41.875  54.726 -52.787  1.00  0.00    -0.154 NA
HETATM    9  N   UNL     1     -41.373  54.017 -51.753  1.00  0.00    -0.275 N 
HETATM   10  C   UNL     1     -42.298  53.752 -50.784  1.00  0.00     0.116 A 
HETATM   11  C   UNL     1     -43.466  54.334 -51.212  1.00  0.00     0.071 A 
BRANCH   9  12
HETATM   12  C   UNL     1     -39.993  53.547 -51.790  1.00  0.00     0.189 C 
BRANCH  12  13
HETATM   13  C   UNL     1     -39.892  52.126 -52.285  1.00  0.00    -0.038 A 
HETATM   14  C   UNL     1     -39.953  51.842 -53.658  1.00  0.00     0.009 A 
HETATM   15  C   UNL     1     -39.832  50.529 -54.117  1.00  0.00     0.001 A 
HETATM   16  C   UNL     1     -39.647  49.487 -53.211  1.00  0.00     0.000 A 
HETATM   17  C   UNL     1     -39.583  49.754 -51.845  1.00  0.00     0.001 A 
HETATM   18  C   UNL     1     -39.701  51.067 -51.384  1.00  0.00     0.009 A 
ENDBRANCH  12  13
ENDBRANCH   9  12
ENDBRANCH   1   7
BRANCH   3  19
HETATM   19  C   UNL     1     -43.035  59.138 -53.281  1.00  0.00     0.144 C 
BRANCH  19  20
HETATM   20  C   UNL     1     -41.911  59.409 -54.289  1.00  0.00     0.142 C 
BRANCH  20  21
HETATM   21  N   UNL     1     -41.978  58.524 -55.440  1.00  0.00    -0.355 N 
HETATM   22  C   UNL     1     -42.672  58.867 -56.579  1.00  0.00     0.254 C 
HETATM   23  O   UNL     1     -43.302  59.916 -56.690  1.00  0.00    -0.268 OA
HETATM   24  H   UNL     1     -41.304  57.772 -55.464  1.00  0.00     0.162 HD
BRANCH  22  25
HETATM   25  C   UNL     1     -42.597  57.934 -57.742  1.00  0.00     0.065 A 
HETATM   26  C   UNL     1     -43.126  56.639 -57.623  1.00  0.00     0.081 A 
HETATM   27  C   UNL     1     -43.096  55.754 -58.701  1.00  0.00     0.037 A 
HETATM   28  C   UNL     1     -42.523  56.147 -59.908  1.00  0.00     0.003 A 
HETATM   29  C   UNL     1     -41.970  57.420 -60.035  1.00  0.00     0.001 A 
HETATM   30  C   UNL     1     -42.002  58.311 -58.956  1.00  0.00     0.020 A 
BRANCH  26  31
HETATM   31  O   UNL     1     -43.692  56.161 -56.470  1.00  0.00    -0.360 OA
HETATM   32  H   UNL     1     -43.252  56.610 -55.713  1.00  0.00     0.217 HD
ENDBRANCH  26  31
ENDBRANCH  22  25
ENDBRANCH  20  21
ENDBRANCH  19  20
ENDBRANCH   3  19
TORSDOF 8
ENDMDL
MODEL 7
REMARK VINA RESULT:      -8.4      3.022      7.543
REMARK  8 active torsions:
REMARK  status: ('A' for Active; 'I' for Inactive)
REMARK    1  A    between atoms: C_4  and  C_5 
REMARK    2  A    between atoms: C_5  and  N_6 
REMARK    3  A    between atoms: C_8  and  N_9 
REMARK       I    between atoms: N_9  and  C_10 
REMARK       I    between atoms: C_10  and  N_11 
REMARK    4  A    between atoms: N_11  and  C_12 
REMARK    5  A    between atoms: C_12  and  C_13 
REMARK    6  A    between atoms: C_13  and  N_14 
REMARK       I    between atoms: N_14  and  C_15 
REMARK    7  A    between atoms: C_15  and  C_16 
REMARK    8  A    between atoms: C_17  and  O_18 
ROOT
HETATM    1  N   UNL     1     -43.295  56.445 -52.340  1.00  0.00    -0.292 N 
HETATM    2  C   UNL     1     -43.031  57.781 -52.326  1.00  0.00     0.321 C 
HETATM    3  N   UNL     1     -42.067  58.235 -53.169  1.00  0.00    -0.341 N 
HETATM    4  O   UNL     1     -43.640  58.515 -51.548  1.00  0.00    -0.247 OA
HETATM    5  H   UNL     1     -43.975  56.156 -51.654  1.00  0.00     0.172 HD
HETATM    6  H   UNL     1     -41.736  57.559 -53.856  1.00  0.00     0.164 HD
ENDROOT
BRANCH   1   7
HETATM    7  C   UNL     1     -42.789  55.477 -53.176  1.00  0.00     0.153 A 
HETATM    8  N   UNL     1     -41.513  55.075 -53.196  1.00  0.00    -0.154 NA
HETATM    9  N   UNL     1     -41.474  54.135 -54.164  1.00  0.00    -0.275 N 
HETATM   10  C   UNL     1     -42.681  53.938 -54.771  1.00  0.00     0.116 A 
HETATM   11  C   UNL     1     -43.556  54.795 -54.149  1.00  0.00     0.071 A 
BRANCH   9  12
HETATM   12  C   UNL     1     -40.207  53.506 -54.523  1.00  0.00     0.189 C 
BRANCH  12  13
HETATM   13  C   UNL     1     -39.991  52.208 -53.787  1.00  0.00    -0.038 A 
HETATM   14  C   UNL     1     -39.740  52.203 -52.406  1.00  0.00     0.009 A 
HETATM   15  C   UNL     1     -39.566  50.999 -51.722  1.00  0.00     0.001 A 
HETATM   16  C   UNL     1     -39.643  49.788 -52.407  1.00  0.00     0.000 A 
HETATM   17  C   UNL     1     -39.893  49.778 -53.777  1.00  0.00     0.001 A 
HETATM   18  C   UNL     1     -40.070  50.980 -54.464  1.00  0.00     0.009 A 
ENDBRANCH  12  13
ENDBRANCH   9  12
ENDBRANCH   1   7
BRANCH   3  19
HETATM   19  C   UNL     1     -41.764  59.640 -53.329  1.00  0.00     0.144 C 
BRANCH  19  20
HETATM   20  C   UNL     1     -42.335  60.237 -54.622  1.00  0.00     0.142 C 
BRANCH  20  21
HETATM   21  N   UNL     1     -42.639  59.218 -55.613  1.00  0.00    -0.355 N 
HETATM   22  C   UNL     1     -42.084  59.242 -56.873  1.00  0.00     0.254 C 
HETATM   23  O   UNL     1     -41.328  60.133 -57.255  1.00  0.00    -0.268 OA
HETATM   24  H   UNL     1     -43.072  58.374 -55.266  1.00  0.00     0.162 HD
BRANCH  22  25
HETATM   25  C   UNL     1     -42.381  58.098 -57.783  1.00  0.00     0.065 A 
HETATM   26  C   UNL     1     -42.279  58.275 -59.172  1.00  0.00     0.081 A 
HETATM   27  C   UNL     1     -42.523  57.217 -60.047  1.00  0.00     0.037 A 
HETATM   28  C   UNL     1     -42.889  55.970 -59.546  1.00  0.00     0.003 A 
HETATM   29  C   UNL     1     -43.021  55.784 -58.171  1.00  0.00     0.001 A 
HETATM   30  C   UNL     1     -42.774  56.843 -57.291  1.00  0.00     0.020 A 
BRANCH  26  31
HETATM   31  O   UNL     1     -41.942  59.470 -59.754  1.00  0.00    -0.360 OA
HETATM   32  H   UNL     1     -41.207  59.298 -60.384  1.00  0.00     0.217 HD
ENDBRANCH  26  31
ENDBRANCH  22  25
ENDBRANCH  20  21
ENDBRANCH  19  20
ENDBRANCH   3  19
TORSDOF 8
ENDMDL
MODEL 8
REMARK VINA RESULT:      -8.2      2.985      7.603
REMARK  8 active torsions:
REMARK  status: ('A' for Active; 'I' for Inactive)
REMARK    1  A    between atoms: C_4  and  C_5 
REMARK    2  A    between atoms: C_5  and  N_6 
REMARK    3  A    between atoms: C_8  and  N_9 
REMARK       I    between atoms: N_9  and  C_10 
REMARK       I    between atoms: C_10  and  N_11 
REMARK    4  A    between atoms: N_11  and  C_12 
REMARK    5  A    between atoms: C_12  and  C_13 
REMARK    6  A    between atoms: C_13  and  N_14 
REMARK       I    between atoms: N_14  and  C_15 
REMARK    7  A    between atoms: C_15  and  C_16 
REMARK    8  A    between atoms: C_17  and  O_18 
ROOT
HETATM    1  N   UNL     1     -43.234  55.222 -56.761  1.00  0.00    -0.292 N 
HETATM    2  C   UNL     1     -43.055  56.403 -57.415  1.00  0.00     0.321 C 
HETATM    3  N   UNL     1     -42.509  57.429 -56.709  1.00  0.00    -0.341 N 
HETATM    4  O   UNL     1     -43.409  56.512 -58.587  1.00  0.00    -0.247 OA
HETATM    5  H   UNL     1     -43.696  54.516 -57.314  1.00  0.00     0.172 HD
HETATM    6  H   UNL     1     -42.132  57.177 -55.796  1.00  0.00     0.164 HD
ENDROOT
BRANCH   1   7
HETATM    7  C   UNL     1     -42.840  54.873 -55.490  1.00  0.00     0.153 A 
HETATM    8  N   UNL     1     -41.572  54.678 -55.111  1.00  0.00    -0.154 NA
HETATM    9  N   UNL     1     -41.661  54.346 -53.805  1.00  0.00    -0.275 N 
HETATM   10  C   UNL     1     -42.947  54.310 -53.347  1.00  0.00     0.116 A 
HETATM   11  C   UNL     1     -43.736  54.650 -54.419  1.00  0.00     0.071 A 
BRANCH   9  12
HETATM   12  C   UNL     1     -40.461  53.991 -53.056  1.00  0.00     0.189 C 
BRANCH  12  13
HETATM   13  C   UNL     1     -40.186  52.509 -53.097  1.00  0.00    -0.038 A 
HETATM   14  C   UNL     1     -40.315  51.791 -54.296  1.00  0.00     0.009 A 
HETATM   15  C   UNL     1     -40.034  50.425 -54.337  1.00  0.00     0.001 A 
HETATM   16  C   UNL     1     -39.619  49.761 -53.184  1.00  0.00     0.000 A 
HETATM   17  C   UNL     1     -39.485  50.461 -51.988  1.00  0.00     0.001 A 
HETATM   18  C   UNL     1     -39.764  51.829 -51.943  1.00  0.00     0.009 A 
ENDBRANCH  12  13
ENDBRANCH   9  12
ENDBRANCH   1   7
BRANCH   3  19
HETATM   19  C   UNL     1     -42.169  58.699 -57.311  1.00  0.00     0.144 C 
BRANCH  19  20
HETATM   20  C   UNL     1     -42.687  59.903 -56.512  1.00  0.00     0.142 C 
BRANCH  20  21
HETATM   21  N   UNL     1     -42.107  59.973 -55.181  1.00  0.00    -0.355 N 
HETATM   22  C   UNL     1     -42.751  59.449 -54.082  1.00  0.00     0.254 C 
HETATM   23  O   UNL     1     -43.860  58.923 -54.143  1.00  0.00    -0.268 OA
HETATM   24  H   UNL     1     -41.124  60.195 -55.134  1.00  0.00     0.162 HD
BRANCH  22  25
HETATM   25  C   UNL     1     -42.030  59.482 -52.777  1.00  0.00     0.065 A 
HETATM   26  C   UNL     1     -40.868  58.710 -52.610  1.00  0.00     0.081 A 
HETATM   27  C   UNL     1     -40.156  58.741 -51.411  1.00  0.00     0.037 A 
HETATM   28  C   UNL     1     -40.604  59.531 -50.356  1.00  0.00     0.003 A 
HETATM   29  C   UNL     1     -41.770  60.283 -50.495  1.00  0.00     0.001 A 
HETATM   30  C   UNL     1     -42.485  60.256 -51.697  1.00  0.00     0.020 A 
BRANCH  26  31
HETATM   31  O   UNL     1     -40.364  57.891 -53.587  1.00  0.00    -0.360 OA
HETATM   32  H   UNL     1     -39.547  58.313 -53.938  1.00  0.00     0.217 HD
ENDBRANCH  26  31
ENDBRANCH  22  25
ENDBRANCH  20  21
ENDBRANCH  19  20
ENDBRANCH   3  19
TORSDOF 8
ENDMDL
MODEL 9
REMARK VINA RESULT:      -8.1      1.495      2.269
REMARK  8 active torsions:
REMARK  status: ('A' for Active; 'I' for Inactive)
REMARK    1  A    between atoms: C_4  and  C_5 
REMARK    2  A    between atoms: C_5  and  N_6 
REMARK    3  A    between atoms: C_8  and  N_9 
REMARK       I    between atoms: N_9  and  C_10 
REMARK       I    between atoms: C_10  and  N_11 
REMARK    4  A    between atoms: N_11  and  C_12 
REMARK    5  A    between atoms: C_12  and  C_13 
REMARK    6  A    between atoms: C_13  and  N_14 
REMARK       I    between atoms: N_14  and  C_15 
REMARK    7  A    between atoms: C_15  and  C_16 
REMARK    8  A    between atoms: C_17  and  O_18 
ROOT
HETATM    1  N   UNL     1     -41.565  57.723 -52.487  1.00  0.00    -0.292 N 
HETATM    2  C   UNL     1     -41.233  57.270 -51.247  1.00  0.00     0.321 C 
HETATM    3  N   UNL     1     -41.761  56.080 -50.855  1.00  0.00    -0.341 N 
HETATM    4  O   UNL     1     -40.506  57.950 -50.524  1.00  0.00    -0.247 OA
HETATM    5  H   UNL     1     -41.195  58.636 -52.702  1.00  0.00     0.172 HD
HETATM    6  H   UNL     1     -42.231  55.551 -51.588  1.00  0.00     0.164 HD
ENDROOT
BRANCH   1   7
HETATM    7  C   UNL     1     -42.291  57.088 -53.469  1.00  0.00     0.153 A 
HETATM    8  N   UNL     1     -41.768  56.300 -54.416  1.00  0.00    -0.154 NA
HETATM    9  N   UNL     1     -42.832  55.913 -55.153  1.00  0.00    -0.275 N 
HETATM   10  C   UNL     1     -44.011  56.442 -54.712  1.00  0.00     0.116 A 
HETATM   11  C   UNL     1     -43.692  57.208 -53.618  1.00  0.00     0.071 A 
BRANCH   9  12
HETATM   12  C   UNL     1     -42.639  55.084 -56.337  1.00  0.00     0.189 C 
BRANCH  12  13
HETATM   13  C   UNL     1     -42.898  55.846 -57.612  1.00  0.00    -0.038 A 
HETATM   14  C   UNL     1     -42.444  57.166 -57.759  1.00  0.00     0.009 A 
HETATM   15  C   UNL     1     -42.661  57.861 -58.949  1.00  0.00     0.001 A 
HETATM   16  C   UNL     1     -43.331  57.246 -60.006  1.00  0.00     0.000 A 
HETATM   17  C   UNL     1     -43.785  55.936 -59.874  1.00  0.00     0.001 A 
HETATM   18  C   UNL     1     -43.568  55.237 -58.685  1.00  0.00     0.009 A 
ENDBRANCH  12  13
ENDBRANCH   9  12
ENDBRANCH   1   7
BRANCH   3  19
HETATM   19  C   UNL     1     -41.406  55.439 -49.609  1.00  0.00     0.144 C 
BRANCH  19  20
HETATM   20  C   UNL     1     -40.034  54.753 -49.652  1.00  0.00     0.142 C 
BRANCH  20  21
HETATM   21  N   UNL     1     -39.884  53.893 -50.814  1.00  0.00    -0.355 N 
HETATM   22  C   UNL     1     -40.127  52.539 -50.750  1.00  0.00     0.254 C 
HETATM   23  O   UNL     1     -40.452  51.965 -49.713  1.00  0.00    -0.268 OA
HETATM   24  H   UNL     1     -39.835  54.357 -51.709  1.00  0.00     0.162 HD
BRANCH  22  25
HETATM   25  C   UNL     1     -40.041  51.760 -52.020  1.00  0.00     0.065 A 
HETATM   26  C   UNL     1     -40.433  52.361 -53.227  1.00  0.00     0.081 A 
HETATM   27  C   UNL     1     -40.339  51.668 -54.433  1.00  0.00     0.037 A 
HETATM   28  C   UNL     1     -39.866  50.358 -54.448  1.00  0.00     0.003 A 
HETATM   29  C   UNL     1     -39.498  49.737 -53.256  1.00  0.00     0.001 A 
HETATM   30  C   UNL     1     -39.589  50.431 -52.044  1.00  0.00     0.020 A 
BRANCH  26  31
HETATM   31  O   UNL     1     -40.926  53.638 -53.304  1.00  0.00    -0.360 OA
HETATM   32  H   UNL     1     -40.166  54.241 -53.470  1.00  0.00     0.217 HD
ENDBRANCH  26  31
ENDBRANCH  22  25
ENDBRANCH  20  21
ENDBRANCH  19  20
ENDBRANCH   3  19
TORSDOF 8
ENDMDL
MODEL 10
REMARK VINA RESULT:      -8.0      2.939      6.063
REMARK  8 active torsions:
REMARK  status: ('A' for Active; 'I' for Inactive)
REMARK    1  A    between atoms: C_4  and  C_5 
REMARK    2  A    between atoms: C_5  and  N_6 
REMARK    3  A    between atoms: C_8  and  N_9 
REMARK       I    between atoms: N_9  and  C_10 
REMARK       I    between atoms: C_10  and  N_11 
REMARK    4  A    between atoms: N_11  and  C_12 
REMARK    5  A    between atoms: C_12  and  C_13 
REMARK    6  A    between atoms: C_13  and  N_14 
REMARK       I    between atoms: N_14  and  C_15 
REMARK    7  A    between atoms: C_15  and  C_16 
REMARK    8  A    between atoms: C_17  and  O_18 
ROOT
HETATM    1  N   UNL     1     -44.110  55.779 -55.064  1.00  0.00    -0.292 N 
HETATM    2  C   UNL     1     -44.598  56.922 -54.509  1.00  0.00     0.321 C 
HETATM    3  N   UNL     1     -43.826  57.541 -53.577  1.00  0.00    -0.341 N 
HETATM    4  O   UNL     1     -45.708  57.336 -54.839  1.00  0.00    -0.247 OA
HETATM    5  H   UNL     1     -44.748  55.330 -55.704  1.00  0.00     0.172 HD
HETATM    6  H   UNL     1     -42.875  57.183 -53.491  1.00  0.00     0.164 HD
ENDROOT
BRANCH   1   7
HETATM    7  C   UNL     1     -42.875  55.198 -54.893  1.00  0.00     0.153 A 
HETATM    8  N   UNL     1     -42.390  54.764 -53.723  1.00  0.00    -0.154 NA
HETATM    9  N   UNL     1     -41.163  54.288 -54.026  1.00  0.00    -0.275 N 
HETATM   10  C   UNL     1     -40.847  54.420 -55.347  1.00  0.00     0.116 A 
HETATM   11  C   UNL     1     -41.941  55.006 -55.937  1.00  0.00     0.071 A 
BRANCH   9  12
HETATM   12  C   UNL     1     -40.293  53.783 -52.970  1.00  0.00     0.189 C 
BRANCH  12  13
HETATM   13  C   UNL     1     -40.081  52.294 -53.074  1.00  0.00    -0.038 A 
HETATM   14  C   UNL     1     -39.639  51.556 -51.965  1.00  0.00     0.009 A 
HETATM   15  C   UNL     1     -39.468  50.174 -52.057  1.00  0.00     0.001 A 
HETATM   16  C   UNL     1     -39.739  49.513 -53.253  1.00  0.00     0.000 A 
HETATM   17  C   UNL     1     -40.180  50.233 -54.362  1.00  0.00     0.001 A 
HETATM   18  C   UNL     1     -40.353  51.615 -54.273  1.00  0.00     0.009 A 
ENDBRANCH  12  13
ENDBRANCH   9  12
ENDBRANCH   1   7
BRANCH   3  19
HETATM   19  C   UNL     1     -44.177  58.815 -52.989  1.00  0.00     0.144 C 
BRANCH  19  20
HETATM   20  C   UNL     1     -43.610  59.005 -51.576  1.00  0.00     0.142 C 
BRANCH  20  21
HETATM   21  N   UNL     1     -43.167  57.753 -50.987  1.00  0.00    -0.355 N 
HETATM   22  C   UNL     1     -41.904  57.251 -51.214  1.00  0.00     0.254 C 
HETATM   23  O   UNL     1     -41.086  57.803 -51.947  1.00  0.00    -0.268 OA
HETATM   24  H   UNL     1     -43.723  57.398 -50.223  1.00  0.00     0.162 HD
BRANCH  22  25
HETATM   25  C   UNL     1     -41.511  56.011 -50.484  1.00  0.00     0.065 A 
HETATM   26  C   UNL     1     -42.448  54.977 -50.325  1.00  0.00     0.081 A 
HETATM   27  C   UNL     1     -42.101  53.794 -49.673  1.00  0.00     0.037 A 
HETATM   28  C   UNL     1     -40.818  53.634 -49.155  1.00  0.00     0.003 A 
HETATM   29  C   UNL     1     -39.884  54.662 -49.281  1.00  0.00     0.001 A 
HETATM   30  C   UNL     1     -40.228  55.848 -49.938  1.00  0.00     0.020 A 
BRANCH  26  31
HETATM   31  O   UNL     1     -43.736  55.053 -50.786  1.00  0.00    -0.360 OA
HETATM   32  H   UNL     1     -44.012  54.147 -51.053  1.00  0.00     0.217 HD
ENDBRANCH  26  31
ENDBRANCH  22  25
ENDBRANCH  20  21
ENDBRANCH  19  20
ENDBRANCH   3  19
TORSDOF 8
ENDMDL
