MODEL 1
REMARK VINA RESULT:      -8.0      0.000      0.000
REMARK  2 active torsions:
REMARK  status: ('A' for Active; 'I' for Inactive)
REMARK    1  A    between atoms: C_3  and  C_4 
REMARK       I    between atoms: C_4  and  N_5 
REMARK    2  A    between atoms: N_5  and  C_6 
ROOT
HETATM    1  C   UNL     1     -42.150  56.118 -54.037  1.00  0.00     0.051 C 
HETATM    2  C   UNL     1     -41.939  56.673 -52.649  1.00  0.00    -0.021 A 
HETATM    3  C   UNL     1     -41.757  55.701 -51.555  1.00  0.00     0.061 A 
HETATM    4  C   UNL     1     -41.450  56.126 -50.309  1.00  0.00     0.022 A 
HETATM    5  C   UNL     1     -41.075  55.259 -49.134  1.00  0.00     0.069 C 
HETATM    6  N   UNL     1     -41.423  57.480 -50.048  1.00  0.00    -0.349 N 
HETATM    7  C   UNL     1     -41.624  58.468 -50.985  1.00  0.00     0.121 A 
HETATM    8  S   UNL     1     -41.590  60.054 -50.440  1.00  0.00    -0.059 SA
HETATM    9  C   UNL     1     -41.841  57.999 -52.394  1.00  0.00     0.075 A 
HETATM   10  C   UNL     1     -41.717  59.031 -53.503  1.00  0.00     0.023 C 
HETATM   11  N   UNL     1     -41.616  59.887 -54.423  1.00  0.00    -0.096 N 
HETATM   12  H   UNL     1     -41.217  57.802 -49.106  1.00  0.00     0.166 HD
ENDROOT
BRANCH   3  13
HETATM   13  C   UNL     1     -41.784  54.222 -51.827  1.00  0.00     0.258 C 
HETATM   14  N   UNL     1     -40.555  53.735 -52.232  1.00  0.00    -0.323 N 
HETATM   15  H   UNL     1     -39.795  54.401 -52.294  1.00  0.00     0.169 HD
HETATM   16  O   UNL     1     -42.827  53.597 -51.687  1.00  0.00    -0.267 OA
BRANCH  14  17
HETATM   17  C   UNL     1     -40.265  52.431 -52.686  1.00  0.00     0.035 A 
HETATM   18  C   UNL     1     -40.413  52.015 -54.009  1.00  0.00     0.029 A 
HETATM   19  C   UNL     1     -40.078  50.710 -54.384  1.00  0.00     0.002 A 
HETATM   20  C   UNL     1     -39.586  49.813 -53.438  1.00  0.00     0.000 A 
HETATM   21  C   UNL     1     -39.437  50.218 -52.115  1.00  0.00     0.002 A 
HETATM   22  C   UNL     1     -39.783  51.518 -51.738  1.00  0.00     0.029 A 
ENDBRANCH  14  17
ENDBRANCH   3  13
TORSDOF 2
ENDMDL
MODEL 2
REMARK VINA RESULT:      -7.7      1.358      2.651
REMARK  2 active torsions:
REMARK  status: ('A' for Active; 'I' for Inactive)
REMARK    1  A    between atoms: C_3  and  C_4 
REMARK       I    between atoms: C_4  and  N_5 
REMARK    2  A    between atoms: N_5  and  C_6 
ROOT
HETATM    1  C   UNL     1     -40.964  56.177 -50.618  1.00  0.00     0.051 C 
HETATM    2  C   UNL     1     -41.373  56.700 -51.973  1.00  0.00    -0.021 A 
HETATM    3  C   UNL     1     -41.745  55.704 -52.995  1.00  0.00     0.061 A 
HETATM    4  C   UNL     1     -42.230  56.104 -54.193  1.00  0.00     0.022 A 
HETATM    5  C   UNL     1     -42.802  55.216 -55.268  1.00  0.00     0.069 C 
HETATM    6  N   UNL     1     -42.264  57.450 -54.488  1.00  0.00    -0.349 N 
HETATM    7  C   UNL     1     -41.898  58.457 -53.625  1.00  0.00     0.121 A 
HETATM    8  S   UNL     1     -41.979  60.028 -54.208  1.00  0.00    -0.059 SA
HETATM    9  C   UNL     1     -41.477  58.021 -52.252  1.00  0.00     0.075 A 
HETATM   10  C   UNL     1     -41.404  59.086 -51.170  1.00  0.00     0.023 C 
HETATM   11  N   UNL     1     -41.342  59.968 -50.272  1.00  0.00    -0.096 N 
HETATM   12  H   UNL     1     -42.606  57.752 -55.397  1.00  0.00     0.166 HD
ENDROOT
BRANCH   3  13
HETATM   13  C   UNL     1     -41.711  54.233 -52.685  1.00  0.00     0.258 C 
HETATM   14  N   UNL     1     -40.537  53.631 -53.097  1.00  0.00    -0.323 N 
HETATM   15  H   UNL     1     -39.849  54.224 -53.542  1.00  0.00     0.169 HD
HETATM   16  O   UNL     1     -42.668  53.706 -52.133  1.00  0.00    -0.267 OA
BRANCH  14  17
HETATM   17  C   UNL     1     -40.236  52.253 -53.077  1.00  0.00     0.035 A 
HETATM   18  C   UNL     1     -40.334  51.416 -54.190  1.00  0.00     0.029 A 
HETATM   19  C   UNL     1     -39.991  50.064 -54.092  1.00  0.00     0.002 A 
HETATM   20  C   UNL     1     -39.541  49.540 -52.883  1.00  0.00     0.000 A 
HETATM   21  C   UNL     1     -39.441  50.365 -51.767  1.00  0.00     0.002 A 
HETATM   22  C   UNL     1     -39.795  51.713 -51.861  1.00  0.00     0.029 A 
ENDBRANCH  14  17
ENDBRANCH   3  13
TORSDOF 2
ENDMDL
MODEL 3
REMARK VINA RESULT:      -7.6      1.861      2.607
REMARK  2 active torsions:
REMARK  status: ('A' for Active; 'I' for Inactive)
REMARK    1  A    between atoms: C_3  and  C_4 
REMARK       I    between atoms: C_4  and  N_5 
REMARK    2  A    between atoms: N_5  and  C_6 
ROOT
HETATM    1  C   UNL     1     -42.476  54.805 -55.833  1.00  0.00     0.051 C 
HETATM    2  C   UNL     1     -42.276  55.999 -54.931  1.00  0.00    -0.021 A 
HETATM    3  C   UNL     1     -41.960  55.729 -53.517  1.00  0.00     0.061 A 
HETATM    4  C   UNL     1     -41.657  56.747 -52.679  1.00  0.00     0.022 A 
HETATM    5  C   UNL     1     -41.157  56.622 -51.263  1.00  0.00     0.069 C 
HETATM    6  N   UNL     1     -41.760  58.045 -53.134  1.00  0.00    -0.349 N 
HETATM    7  C   UNL     1     -42.092  58.406 -54.420  1.00  0.00     0.121 A 
HETATM    8  S   UNL     1     -42.201  60.048 -54.746  1.00  0.00    -0.059 SA
HETATM    9  C   UNL     1     -42.307  57.275 -55.383  1.00  0.00     0.075 A 
HETATM   10  C   UNL     1     -42.326  57.610 -56.865  1.00  0.00     0.023 C 
HETATM   11  N   UNL     1     -42.343  57.888 -58.095  1.00  0.00    -0.096 N 
HETATM   12  H   UNL     1     -41.556  58.813 -52.500  1.00  0.00     0.166 HD
ENDROOT
BRANCH   3  13
HETATM   13  C   UNL     1     -41.845  54.319 -53.008  1.00  0.00     0.258 C 
HETATM   14  N   UNL     1     -40.626  53.743 -53.315  1.00  0.00    -0.323 N 
HETATM   15  H   UNL     1     -39.964  54.313 -53.825  1.00  0.00     0.169 HD
HETATM   16  O   UNL     1     -42.781  53.811 -52.406  1.00  0.00    -0.267 OA
BRANCH  14  17
HETATM   17  C   UNL     1     -40.242  52.402 -53.102  1.00  0.00     0.035 A 
HETATM   18  C   UNL     1     -39.817  51.898 -51.872  1.00  0.00     0.029 A 
HETATM   19  C   UNL     1     -39.479  50.548 -51.737  1.00  0.00     0.002 A 
HETATM   20  C   UNL     1     -39.569  49.690 -52.831  1.00  0.00     0.000 A 
HETATM   21  C   UNL     1     -39.988  50.183 -54.063  1.00  0.00     0.002 A 
HETATM   22  C   UNL     1     -40.315  51.535 -54.200  1.00  0.00     0.029 A 
ENDBRANCH  14  17
ENDBRANCH   3  13
TORSDOF 2
ENDMDL
MODEL 4
REMARK VINA RESULT:      -7.2      3.222      6.598
REMARK  2 active torsions:
REMARK  status: ('A' for Active; 'I' for Inactive)
REMARK    1  A    between atoms: C_3  and  C_4 
REMARK       I    between atoms: C_4  and  N_5 
REMARK    2  A    between atoms: N_5  and  C_6 
ROOT
HETATM    1  C   UNL     1     -40.591  53.554 -54.717  1.00  0.00     0.051 C 
HETATM    2  C   UNL     1     -40.488  53.081 -53.287  1.00  0.00    -0.021 A 
HETATM    3  C   UNL     1     -40.932  54.015 -52.236  1.00  0.00     0.061 A 
HETATM    4  C   UNL     1     -40.975  53.617 -50.944  1.00  0.00     0.022 A 
HETATM    5  C   UNL     1     -41.554  54.391 -49.787  1.00  0.00     0.069 C 
HETATM    6  N   UNL     1     -40.492  52.370 -50.608  1.00  0.00    -0.349 N 
HETATM    7  C   UNL     1     -40.013  51.442 -51.505  1.00  0.00     0.121 A 
HETATM    8  S   UNL     1     -39.433  50.000 -50.873  1.00  0.00    -0.059 SA
HETATM    9  C   UNL     1     -40.081  51.834 -52.952  1.00  0.00     0.075 A 
HETATM   10  C   UNL     1     -39.901  50.735 -53.986  1.00  0.00     0.023 C 
HETATM   11  N   UNL     1     -39.751  49.823 -54.843  1.00  0.00    -0.096 N 
HETATM   12  H   UNL     1     -40.501  52.077 -49.634  1.00  0.00     0.166 HD
ENDROOT
BRANCH   3  13
HETATM   13  C   UNL     1     -41.461  55.377 -52.589  1.00  0.00     0.258 C 
HETATM   14  N   UNL     1     -42.823  55.371 -52.830  1.00  0.00    -0.323 N 
HETATM   15  H   UNL     1     -43.300  54.483 -52.741  1.00  0.00     0.169 HD
HETATM   16  O   UNL     1     -40.697  56.331 -52.642  1.00  0.00    -0.267 OA
BRANCH  14  17
HETATM   17  C   UNL     1     -43.606  56.443 -53.306  1.00  0.00     0.035 A 
HETATM   18  C   UNL     1     -44.081  57.480 -52.502  1.00  0.00     0.029 A 
HETATM   19  C   UNL     1     -44.831  58.522 -53.057  1.00  0.00     0.002 A 
HETATM   20  C   UNL     1     -45.106  58.537 -54.423  1.00  0.00     0.000 A 
HETATM   21  C   UNL     1     -44.640  57.506 -55.233  1.00  0.00     0.002 A 
HETATM   22  C   UNL     1     -43.901  56.459 -54.676  1.00  0.00     0.029 A 
ENDBRANCH  14  17
ENDBRANCH   3  13
TORSDOF 2
ENDMDL
MODEL 5
REMARK VINA RESULT:      -7.0      2.828      6.658
REMARK  2 active torsions:
REMARK  status: ('A' for Active; 'I' for Inactive)
REMARK    1  A    between atoms: C_3  and  C_4 
REMARK       I    between atoms: C_4  and  N_5 
REMARK    2  A    between atoms: N_5  and  C_6 
ROOT
HETATM    1  C   UNL     1     -41.008  53.454 -54.670  1.00  0.00     0.051 C 
HETATM    2  C   UNL     1     -40.754  53.007 -53.251  1.00  0.00    -0.021 A 
HETATM    3  C   UNL     1     -41.244  53.883 -52.171  1.00  0.00     0.061 A 
HETATM    4  C   UNL     1     -41.153  53.492 -50.880  1.00  0.00     0.022 A 
HETATM    5  C   UNL     1     -41.751  54.194 -49.687  1.00  0.00     0.069 C 
HETATM    6  N   UNL     1     -40.494  52.318 -50.578  1.00  0.00    -0.349 N 
HETATM    7  C   UNL     1     -39.960  51.453 -51.506  1.00  0.00     0.121 A 
HETATM    8  S   UNL     1     -39.162  50.101 -50.915  1.00  0.00    -0.059 SA
HETATM    9  C   UNL     1     -40.171  51.824 -52.945  1.00  0.00     0.075 A 
HETATM   10  C   UNL     1     -39.919  50.750 -53.990  1.00  0.00     0.023 C 
HETATM   11  N   UNL     1     -39.710  49.859 -54.857  1.00  0.00    -0.096 N 
HETATM   12  H   UNL     1     -40.403  52.034 -49.606  1.00  0.00     0.166 HD
ENDROOT
BRANCH   3  13
HETATM   13  C   UNL     1     -41.964  55.165 -52.487  1.00  0.00     0.258 C 
HETATM   14  N   UNL     1     -41.118  56.258 -52.504  1.00  0.00    -0.323 N 
HETATM   15  H   UNL     1     -40.139  56.084 -52.315  1.00  0.00     0.169 HD
HETATM   16  O   UNL     1     -43.172  55.151 -52.684  1.00  0.00    -0.267 OA
BRANCH  14  17
HETATM   17  C   UNL     1     -41.483  57.614 -52.638  1.00  0.00     0.035 A 
HETATM   18  C   UNL     1     -41.959  58.401 -51.588  1.00  0.00     0.029 A 
HETATM   19  C   UNL     1     -42.275  59.747 -51.798  1.00  0.00     0.002 A 
HETATM   20  C   UNL     1     -42.112  60.318 -53.058  1.00  0.00     0.000 A 
HETATM   21  C   UNL     1     -41.640  59.541 -54.112  1.00  0.00     0.002 A 
HETATM   22  C   UNL     1     -41.335  58.194 -53.905  1.00  0.00     0.029 A 
ENDBRANCH  14  17
ENDBRANCH   3  13
TORSDOF 2
ENDMDL
MODEL 6
REMARK VINA RESULT:      -6.8      3.159      6.107
REMARK  2 active torsions:
REMARK  status: ('A' for Active; 'I' for Inactive)
REMARK    1  A    between atoms: C_3  and  C_4 
REMARK       I    between atoms: C_4  and  N_5 
REMARK    2  A    between atoms: N_5  and  C_6 
ROOT
HETATM    1  C   UNL     1     -41.164  52.592 -54.315  1.00  0.00     0.051 C 
HETATM    2  C   UNL     1     -41.182  53.522 -53.127  1.00  0.00    -0.021 A 
HETATM    3  C   UNL     1     -42.023  54.729 -53.230  1.00  0.00     0.061 A 
HETATM    4  C   UNL     1     -42.177  55.547 -52.163  1.00  0.00     0.022 A 
HETATM    5  C   UNL     1     -43.123  56.716 -52.060  1.00  0.00     0.069 C 
HETATM    6  N   UNL     1     -41.448  55.302 -51.018  1.00  0.00    -0.349 N 
HETATM    7  C   UNL     1     -40.602  54.232 -50.835  1.00  0.00     0.121 A 
HETATM    8  S   UNL     1     -39.781  54.150 -49.375  1.00  0.00    -0.059 SA
HETATM    9  C   UNL     1     -40.527  53.256 -51.973  1.00  0.00     0.075 A 
HETATM   10  C   UNL     1     -39.896  51.901 -51.694  1.00  0.00     0.023 C 
HETATM   11  N   UNL     1     -39.373  50.778 -51.463  1.00  0.00    -0.096 N 
HETATM   12  H   UNL     1     -41.544  55.928 -50.223  1.00  0.00     0.166 HD
ENDROOT
BRANCH   3  13
HETATM   13  C   UNL     1     -42.822  55.008 -54.473  1.00  0.00     0.258 C 
HETATM   14  N   UNL     1     -42.124  55.768 -55.392  1.00  0.00    -0.323 N 
HETATM   15  H   UNL     1     -41.182  56.041 -55.142  1.00  0.00     0.169 HD
HETATM   16  O   UNL     1     -43.963  54.577 -54.571  1.00  0.00    -0.267 OA
BRANCH  14  17
HETATM   17  C   UNL     1     -42.619  56.312 -56.596  1.00  0.00     0.035 A 
HETATM   18  C   UNL     1     -43.022  55.546 -57.691  1.00  0.00     0.029 A 
HETATM   19  C   UNL     1     -43.527  56.162 -58.840  1.00  0.00     0.002 A 
HETATM   20  C   UNL     1     -43.640  57.550 -58.900  1.00  0.00     0.000 A 
HETATM   21  C   UNL     1     -43.239  58.322 -57.815  1.00  0.00     0.002 A 
HETATM   22  C   UNL     1     -42.723  57.708 -56.671  1.00  0.00     0.029 A 
ENDBRANCH  14  17
ENDBRANCH   3  13
TORSDOF 2
ENDMDL
MODEL 7
REMARK VINA RESULT:      -6.7      2.159      3.298
REMARK  2 active torsions:
REMARK  status: ('A' for Active; 'I' for Inactive)
REMARK    1  A    between atoms: C_3  and  C_4 
REMARK       I    between atoms: C_4  and  N_5 
REMARK    2  A    between atoms: N_5  and  C_6 
ROOT
HETATM    1  C   UNL     1     -43.975  56.451 -50.930  1.00  0.00     0.051 C 
HETATM    2  C   UNL     1     -43.623  57.386 -52.061  1.00  0.00    -0.021 A 
HETATM    3  C   UNL     1     -43.008  56.789 -53.261  1.00  0.00     0.061 A 
HETATM    4  C   UNL     1     -42.772  57.547 -54.356  1.00  0.00     0.022 A 
HETATM    5  C   UNL     1     -42.306  57.055 -55.702  1.00  0.00     0.069 C 
HETATM    6  N   UNL     1     -43.005  58.905 -54.295  1.00  0.00    -0.349 N 
HETATM    7  C   UNL     1     -43.532  59.568 -53.210  1.00  0.00     0.121 A 
HETATM    8  S   UNL     1     -43.693  61.233 -53.338  1.00  0.00    -0.059 SA
HETATM    9  C   UNL     1     -43.911  58.708 -52.040  1.00  0.00     0.075 A 
HETATM   10  C   UNL     1     -44.805  59.326 -50.977  1.00  0.00     0.023 C 
HETATM   11  N   UNL     1     -45.546  59.838 -50.095  1.00  0.00    -0.096 N 
HETATM   12  H   UNL     1     -42.805  59.482 -55.109  1.00  0.00     0.166 HD
ENDROOT
BRANCH   3  13
HETATM   13  C   UNL     1     -42.749  55.310 -53.339  1.00  0.00     0.258 C 
HETATM   14  N   UNL     1     -41.455  54.979 -52.980  1.00  0.00    -0.323 N 
HETATM   15  H   UNL     1     -40.846  55.739 -52.708  1.00  0.00     0.169 HD
HETATM   16  O   UNL     1     -43.641  54.554 -53.700  1.00  0.00    -0.267 OA
BRANCH  14  17
HETATM   17  C   UNL     1     -40.848  53.708 -53.065  1.00  0.00     0.035 A 
HETATM   18  C   UNL     1     -40.686  52.999 -54.256  1.00  0.00     0.029 A 
HETATM   19  C   UNL     1     -40.049  51.754 -54.259  1.00  0.00     0.002 A 
HETATM   20  C   UNL     1     -39.563  51.212 -53.071  1.00  0.00     0.000 A 
HETATM   21  C   UNL     1     -39.722  51.910 -51.878  1.00  0.00     0.002 A 
HETATM   22  C   UNL     1     -40.369  53.148 -51.873  1.00  0.00     0.029 A 
ENDBRANCH  14  17
ENDBRANCH   3  13
TORSDOF 2
ENDMDL
MODEL 8
REMARK VINA RESULT:      -6.6      3.371      6.598
REMARK  2 active torsions:
REMARK  status: ('A' for Active; 'I' for Inactive)
REMARK    1  A    between atoms: C_3  and  C_4 
REMARK       I    between atoms: C_4  and  N_5 
REMARK    2  A    between atoms: N_5  and  C_6 
ROOT
HETATM    1  C   UNL     1     -41.895  55.805 -50.758  1.00  0.00     0.051 C 
HETATM    2  C   UNL     1     -41.304  54.607 -51.461  1.00  0.00    -0.021 A 
HETATM    3  C   UNL     1     -41.202  54.671 -52.931  1.00  0.00     0.061 A 
HETATM    4  C   UNL     1     -40.580  53.685 -53.616  1.00  0.00     0.022 A 
HETATM    5  C   UNL     1     -40.253  53.685 -55.087  1.00  0.00     0.069 C 
HETATM    6  N   UNL     1     -40.146  52.566 -52.936  1.00  0.00    -0.349 N 
HETATM    7  C   UNL     1     -40.234  52.386 -51.575  1.00  0.00     0.121 A 
HETATM    8  S   UNL     1     -39.680  50.926 -50.962  1.00  0.00    -0.059 SA
HETATM    9  C   UNL     1     -40.811  53.534 -50.799  1.00  0.00     0.075 A 
HETATM   10  C   UNL     1     -40.610  53.533 -49.292  1.00  0.00     0.023 C 
HETATM   11  N   UNL     1     -40.444  53.532 -48.043  1.00  0.00    -0.096 N 
HETATM   12  H   UNL     1     -39.700  51.812 -53.452  1.00  0.00     0.166 HD
ENDROOT
BRANCH   3  13
HETATM   13  C   UNL     1     -41.672  55.886 -53.683  1.00  0.00     0.258 C 
HETATM   14  N   UNL     1     -42.932  55.719 -54.225  1.00  0.00    -0.323 N 
HETATM   15  H   UNL     1     -43.390  54.832 -54.059  1.00  0.00     0.169 HD
HETATM   16  O   UNL     1     -40.948  56.869 -53.763  1.00  0.00    -0.267 OA
BRANCH  14  17
HETATM   17  C   UNL     1     -43.610  56.604 -55.090  1.00  0.00     0.035 A 
HETATM   18  C   UNL     1     -44.604  57.492 -54.676  1.00  0.00     0.029 A 
HETATM   19  C   UNL     1     -45.209  58.357 -55.593  1.00  0.00     0.002 A 
HETATM   20  C   UNL     1     -44.819  58.345 -56.931  1.00  0.00     0.000 A 
HETATM   21  C   UNL     1     -43.831  57.462 -57.354  1.00  0.00     0.002 A 
HETATM   22  C   UNL     1     -43.234  56.589 -56.440  1.00  0.00     0.029 A 
ENDBRANCH  14  17
ENDBRANCH   3  13
TORSDOF 2
ENDMDL
MODEL 9
REMARK VINA RESULT:      -6.6      2.924      4.334
REMARK  2 active torsions:
REMARK  status: ('A' for Active; 'I' for Inactive)
REMARK    1  A    between atoms: C_3  and  C_4 
REMARK       I    between atoms: C_4  and  N_5 
REMARK    2  A    between atoms: N_5  and  C_6 
ROOT
HETATM    1  C   UNL     1     -44.191  57.291 -52.495  1.00  0.00     0.051 C 
HETATM    2  C   UNL     1     -44.000  57.620 -53.955  1.00  0.00    -0.021 A 
HETATM    3  C   UNL     1     -43.426  56.568 -54.813  1.00  0.00     0.061 A 
HETATM    4  C   UNL     1     -43.333  56.752 -56.150  1.00  0.00     0.022 A 
HETATM    5  C   UNL     1     -42.926  55.720 -57.170  1.00  0.00     0.069 C 
HETATM    6  N   UNL     1     -43.672  57.977 -56.684  1.00  0.00    -0.349 N 
HETATM    7  C   UNL     1     -44.173  59.040 -55.966  1.00  0.00     0.121 A 
HETATM    8  S   UNL     1     -44.479  60.455 -56.813  1.00  0.00    -0.059 SA
HETATM    9  C   UNL     1     -44.394  58.794 -54.502  1.00  0.00     0.075 A 
HETATM   10  C   UNL     1     -45.257  59.791 -53.747  1.00  0.00     0.023 C 
HETATM   11  N   UNL     1     -45.972  60.619 -53.120  1.00  0.00    -0.096 N 
HETATM   12  H   UNL     1     -43.580  58.127 -57.686  1.00  0.00     0.166 HD
ENDROOT
BRANCH   3  13
HETATM   13  C   UNL     1     -43.052  55.228 -54.243  1.00  0.00     0.258 C 
HETATM   14  N   UNL     1     -41.717  55.157 -53.888  1.00  0.00    -0.323 N 
HETATM   15  H   UNL     1     -41.157  55.986 -54.039  1.00  0.00     0.169 HD
HETATM   16  O   UNL     1     -43.899  54.349 -54.147  1.00  0.00    -0.267 OA
BRANCH  14  17
HETATM   17  C   UNL     1     -41.015  54.015 -53.447  1.00  0.00     0.035 A 
HETATM   18  C   UNL     1     -40.679  53.772 -52.114  1.00  0.00     0.029 A 
HETATM   19  C   UNL     1     -40.003  52.601 -51.756  1.00  0.00     0.002 A 
HETATM   20  C   UNL     1     -39.665  51.661 -52.727  1.00  0.00     0.000 A 
HETATM   21  C   UNL     1     -39.993  51.896 -54.059  1.00  0.00     0.002 A 
HETATM   22  C   UNL     1     -40.657  53.071 -54.419  1.00  0.00     0.029 A 
ENDBRANCH  14  17
ENDBRANCH   3  13
TORSDOF 2
ENDMDL
MODEL 10
REMARK VINA RESULT:      -6.6      2.570      3.501
REMARK  2 active torsions:
REMARK  status: ('A' for Active; 'I' for Inactive)
REMARK    1  A    between atoms: C_3  and  C_4 
REMARK       I    between atoms: C_4  and  N_5 
REMARK    2  A    between atoms: N_5  and  C_6 
ROOT
HETATM    1  C   UNL     1     -44.411  57.234 -51.602  1.00  0.00     0.051 C 
HETATM    2  C   UNL     1     -43.535  58.410 -51.247  1.00  0.00    -0.021 A 
HETATM    3  C   UNL     1     -42.088  58.157 -51.117  1.00  0.00     0.061 A 
HETATM    4  C   UNL     1     -41.231  59.184 -50.914  1.00  0.00     0.022 A 
HETATM    5  C   UNL     1     -39.725  59.108 -50.924  1.00  0.00     0.069 C 
HETATM    6  N   UNL     1     -41.736  60.451 -50.715  1.00  0.00    -0.349 N 
HETATM    7  C   UNL     1     -43.070  60.786 -50.769  1.00  0.00     0.121 A 
HETATM    8  S   UNL     1     -43.468  62.385 -50.453  1.00  0.00    -0.059 SA
HETATM    9  C   UNL     1     -44.011  59.670 -51.118  1.00  0.00     0.075 A 
HETATM   10  C   UNL     1     -45.424  60.049 -51.531  1.00  0.00     0.023 C 
HETATM   11  N   UNL     1     -46.596  60.362 -51.873  1.00  0.00    -0.096 N 
HETATM   12  H   UNL     1     -41.096  61.221 -50.538  1.00  0.00     0.166 HD
ENDROOT
BRANCH   3  13
HETATM   13  C   UNL     1     -41.524  56.779 -51.332  1.00  0.00     0.258 C 
HETATM   14  N   UNL     1     -41.363  56.476 -52.671  1.00  0.00    -0.323 N 
HETATM   15  H   UNL     1     -41.627  57.189 -53.338  1.00  0.00     0.169 HD
HETATM   16  O   UNL     1     -41.273  56.068 -50.368  1.00  0.00    -0.267 OA
BRANCH  14  17
HETATM   17  C   UNL     1     -40.984  55.233 -53.220  1.00  0.00     0.035 A 
HETATM   18  C   UNL     1     -41.089  54.016 -52.545  1.00  0.00     0.029 A 
HETATM   19  C   UNL     1     -40.715  52.823 -53.172  1.00  0.00     0.002 A 
HETATM   20  C   UNL     1     -40.239  52.837 -54.481  1.00  0.00     0.000 A 
HETATM   21  C   UNL     1     -40.128  54.045 -55.162  1.00  0.00     0.002 A 
HETATM   22  C   UNL     1     -40.490  55.239 -54.532  1.00  0.00     0.029 A 
ENDBRANCH  14  17
ENDBRANCH   3  13
TORSDOF 2
ENDMDL
