MODEL 1
REMARK VINA RESULT:      -8.8      0.000      0.000
REMARK  2 active torsions:
REMARK  status: ('A' for Active; 'I' for Inactive)
REMARK    1  A    between atoms: C_15  and  C_16 
REMARK    2  A    between atoms: C_19  and  O_20 
ROOT
HETATM    1  C   UNL     1     -39.557  49.812 -54.738  1.00  0.00     0.048 C 
HETATM    2  C   UNL     1     -39.774  50.824 -53.651  1.00  0.00    -0.061 A 
HETATM    3  C   UNL     1     -40.225  52.122 -53.958  1.00  0.00     0.021 A 
HETATM    4  C   UNL     1     -40.460  53.048 -52.920  1.00  0.00    -0.000 A 
HETATM    5  C   UNL     1     -40.223  52.643 -51.600  1.00  0.00     0.043 A 
HETATM    6  N   UNL     1     -40.515  53.711 -50.781  1.00  0.00    -0.353 N 
HETATM    7  H   UNL     1     -40.422  53.722 -49.772  1.00  0.00     0.166 HD
HETATM    8  C   UNL     1     -41.003  54.735 -51.532  1.00  0.00     0.066 A 
HETATM    9  C   UNL     1     -40.917  54.396 -52.866  1.00  0.00    -0.017 A 
HETATM   10  C   UNL     1     -41.292  55.371 -53.948  1.00  0.00     0.043 C 
HETATM   11  C   UNL     1     -41.500  56.821 -53.381  1.00  0.00     0.018 C 
HETATM   12  C   UNL     1     -42.337  56.770 -52.086  1.00  0.00     0.065 C 
HETATM   13  C   UNL     1     -41.473  56.008 -51.110  1.00  0.00     0.082 C 
HETATM   14  N   UNL     1     -41.083  56.625 -50.044  1.00  0.00    -0.203 NA
HETATM   15  C   UNL     1     -42.647  57.971 -51.184  1.00  0.00     0.121 C 
HETATM   16  N   UNL     1     -41.612  57.877 -50.127  1.00  0.00    -0.207 NA
HETATM   17  C   UNL     1     -39.770  51.361 -51.271  1.00  0.00     0.031 A 
HETATM   18  C   UNL     1     -39.557  50.460 -52.318  1.00  0.00     0.009 A 
HETATM   19  H   UNL     1     -40.866  58.555 -50.305  1.00  0.00     0.149 HD
ENDROOT
BRANCH  15  20
HETATM   20  C   UNL     1     -42.904  59.374 -51.686  1.00  0.00    -0.038 A 
HETATM   21  C   UNL     1     -42.558  60.466 -50.866  1.00  0.00     0.011 A 
HETATM   22  C   UNL     1     -42.884  61.778 -51.218  1.00  0.00     0.037 A 
HETATM   23  C   UNL     1     -43.577  62.043 -52.394  1.00  0.00     0.068 A 
HETATM   24  C   UNL     1     -43.941  60.977 -53.214  1.00  0.00     0.037 A 
HETATM   25  C   UNL     1     -43.624  59.656 -52.854  1.00  0.00     0.011 A 
BRANCH  23  26
HETATM   26  O   UNL     1     -43.852  63.364 -52.606  1.00  0.00    -0.356 OA
HETATM   27  C   UNL     1     -43.195  64.305 -51.766  1.00  0.00     0.210 C 
ENDBRANCH  23  26
ENDBRANCH  15  20
TORSDOF 2
ENDMDL
MODEL 2
REMARK VINA RESULT:      -8.4      3.279      9.010
REMARK  2 active torsions:
REMARK  status: ('A' for Active; 'I' for Inactive)
REMARK    1  A    between atoms: C_15  and  C_16 
REMARK    2  A    between atoms: C_19  and  O_20 
ROOT
HETATM    1  C   UNL     1     -42.870  64.147 -49.587  1.00  0.00     0.048 C 
HETATM    2  C   UNL     1     -43.421  62.911 -50.237  1.00  0.00    -0.061 A 
HETATM    3  C   UNL     1     -42.610  61.776 -50.425  1.00  0.00     0.021 A 
HETATM    4  C   UNL     1     -43.157  60.611 -51.003  1.00  0.00    -0.000 A 
HETATM    5  C   UNL     1     -44.504  60.625 -51.383  1.00  0.00     0.043 A 
HETATM    6  N   UNL     1     -44.795  59.390 -51.921  1.00  0.00    -0.353 N 
HETATM    7  H   UNL     1     -45.691  59.109 -52.300  1.00  0.00     0.166 HD
HETATM    8  C   UNL     1     -43.706  58.583 -51.811  1.00  0.00     0.066 A 
HETATM    9  C   UNL     1     -42.648  59.318 -51.318  1.00  0.00    -0.017 A 
HETATM   10  C   UNL     1     -41.276  58.719 -51.178  1.00  0.00     0.043 C 
HETATM   11  C   UNL     1     -41.169  57.328 -51.899  1.00  0.00     0.018 C 
HETATM   12  C   UNL     1     -42.406  56.465 -51.575  1.00  0.00     0.065 C 
HETATM   13  C   UNL     1     -43.561  57.220 -52.188  1.00  0.00     0.082 C 
HETATM   14  N   UNL     1     -44.229  56.637 -53.129  1.00  0.00    -0.203 NA
HETATM   15  C   UNL     1     -42.716  55.093 -52.188  1.00  0.00     0.121 C 
HETATM   16  N   UNL     1     -43.643  55.419 -53.297  1.00  0.00    -0.207 NA
HETATM   17  C   UNL     1     -45.328  61.742 -51.212  1.00  0.00     0.031 A 
HETATM   18  C   UNL     1     -44.764  62.879 -50.626  1.00  0.00     0.009 A 
HETATM   19  H   UNL     1     -43.144  55.397 -54.190  1.00  0.00     0.149 HD
ENDROOT
BRANCH  15  20
HETATM   20  C   UNL     1     -41.672  54.054 -52.529  1.00  0.00    -0.038 A 
HETATM   21  C   UNL     1     -41.635  53.528 -53.835  1.00  0.00     0.011 A 
HETATM   22  C   UNL     1     -40.779  52.478 -54.177  1.00  0.00     0.037 A 
HETATM   23  C   UNL     1     -39.940  51.911 -53.224  1.00  0.00     0.068 A 
HETATM   24  C   UNL     1     -39.969  52.407 -51.923  1.00  0.00     0.037 A 
HETATM   25  C   UNL     1     -40.839  53.455 -51.576  1.00  0.00     0.011 A 
BRANCH  23  26
HETATM   26  O   UNL     1     -39.173  50.878 -53.685  1.00  0.00    -0.356 OA
HETATM   27  C   UNL     1     -39.835  49.858 -54.420  1.00  0.00     0.210 C 
ENDBRANCH  23  26
ENDBRANCH  15  20
TORSDOF 2
ENDMDL
MODEL 3
REMARK VINA RESULT:      -8.4      1.743      2.511
REMARK  2 active torsions:
REMARK  status: ('A' for Active; 'I' for Inactive)
REMARK    1  A    between atoms: C_15  and  C_16 
REMARK    2  A    between atoms: C_19  and  O_20 
ROOT
HETATM    1  C   UNL     1     -39.431  49.807 -50.953  1.00  0.00     0.048 C 
HETATM    2  C   UNL     1     -39.780  50.943 -51.870  1.00  0.00    -0.061 A 
HETATM    3  C   UNL     1     -40.212  52.178 -51.351  1.00  0.00     0.021 A 
HETATM    4  C   UNL     1     -40.498  53.246 -52.227  1.00  0.00    -0.000 A 
HETATM    5  C   UNL     1     -40.352  53.037 -53.604  1.00  0.00     0.043 A 
HETATM    6  N   UNL     1     -40.694  54.210 -54.240  1.00  0.00    -0.353 N 
HETATM    7  H   UNL     1     -40.701  54.355 -55.242  1.00  0.00     0.166 HD
HETATM    8  C   UNL     1     -40.964  55.164 -53.310  1.00  0.00     0.066 A 
HETATM    9  C   UNL     1     -40.929  54.593 -52.055  1.00  0.00    -0.017 A 
HETATM   10  C   UNL     1     -41.286  55.382 -50.825  1.00  0.00     0.043 C 
HETATM   11  C   UNL     1     -41.939  56.764 -51.186  1.00  0.00     0.018 C 
HETATM   12  C   UNL     1     -41.145  57.448 -52.317  1.00  0.00     0.065 C 
HETATM   13  C   UNL     1     -41.314  56.528 -53.504  1.00  0.00     0.082 C 
HETATM   14  N   UNL     1     -41.916  56.997 -54.547  1.00  0.00    -0.203 NA
HETATM   15  C   UNL     1     -41.545  58.753 -53.018  1.00  0.00     0.121 C 
HETATM   16  N   UNL     1     -42.241  58.283 -54.238  1.00  0.00    -0.207 NA
HETATM   17  C   UNL     1     -39.930  51.817 -54.143  1.00  0.00     0.031 A 
HETATM   18  C   UNL     1     -39.641  50.779 -53.252  1.00  0.00     0.009 A 
HETATM   19  H   UNL     1     -43.254  58.362 -54.117  1.00  0.00     0.149 HD
ENDROOT
BRANCH  15  20
HETATM   20  C   UNL     1     -42.208  59.924 -52.329  1.00  0.00    -0.038 A 
HETATM   21  C   UNL     1     -42.942  60.844 -53.103  1.00  0.00     0.011 A 
HETATM   22  C   UNL     1     -43.472  62.011 -52.546  1.00  0.00     0.037 A 
HETATM   23  C   UNL     1     -43.275  62.304 -51.201  1.00  0.00     0.068 A 
HETATM   24  C   UNL     1     -42.542  61.415 -50.420  1.00  0.00     0.037 A 
HETATM   25  C   UNL     1     -41.999  60.247 -50.982  1.00  0.00     0.011 A 
BRANCH  23  26
HETATM   26  O   UNL     1     -43.826  63.486 -50.792  1.00  0.00    -0.356 OA
HETATM   27  C   UNL     1     -43.823  63.752 -49.395  1.00  0.00     0.210 C 
ENDBRANCH  23  26
ENDBRANCH  15  20
TORSDOF 2
ENDMDL
MODEL 4
REMARK VINA RESULT:      -8.3      2.081      2.702
REMARK  2 active torsions:
REMARK  status: ('A' for Active; 'I' for Inactive)
REMARK    1  A    between atoms: C_15  and  C_16 
REMARK    2  A    between atoms: C_19  and  O_20 
ROOT
HETATM    1  C   UNL     1     -39.132  49.773 -50.989  1.00  0.00     0.048 C 
HETATM    2  C   UNL     1     -39.644  50.927 -51.800  1.00  0.00    -0.061 A 
HETATM    3  C   UNL     1     -40.248  52.034 -51.173  1.00  0.00     0.021 A 
HETATM    4  C   UNL     1     -40.688  53.127 -51.949  1.00  0.00    -0.000 A 
HETATM    5  C   UNL     1     -40.517  53.070 -53.338  1.00  0.00     0.043 A 
HETATM    6  N   UNL     1     -41.027  54.236 -53.866  1.00  0.00    -0.353 N 
HETATM    7  H   UNL     1     -41.058  54.471 -54.850  1.00  0.00     0.166 HD
HETATM    8  C   UNL     1     -41.429  55.050 -52.854  1.00  0.00     0.066 A 
HETATM    9  C   UNL     1     -41.308  54.376 -51.657  1.00  0.00    -0.017 A 
HETATM   10  C   UNL     1     -41.771  54.987 -50.363  1.00  0.00     0.043 C 
HETATM   11  C   UNL     1     -42.617  56.288 -50.601  1.00  0.00     0.018 C 
HETATM   12  C   UNL     1     -41.934  57.181 -51.656  1.00  0.00     0.065 C 
HETATM   13  C   UNL     1     -41.972  56.362 -52.924  1.00  0.00     0.082 C 
HETATM   14  N   UNL     1     -42.639  56.834 -53.926  1.00  0.00    -0.203 NA
HETATM   15  C   UNL     1     -42.520  58.475 -52.236  1.00  0.00     0.121 C 
HETATM   16  N   UNL     1     -43.146  58.026 -53.503  1.00  0.00    -0.207 NA
HETATM   17  C   UNL     1     -39.926  51.979 -53.984  1.00  0.00     0.031 A 
HETATM   18  C   UNL     1     -39.487  50.915 -53.190  1.00  0.00     0.009 A 
HETATM   19  H   UNL     1     -44.159  57.946 -53.385  1.00  0.00     0.149 HD
ENDROOT
BRANCH  15  20
HETATM   20  C   UNL     1     -43.343  59.469 -51.449  1.00  0.00    -0.038 A 
HETATM   21  C   UNL     1     -42.684  60.501 -50.753  1.00  0.00     0.011 A 
HETATM   22  C   UNL     1     -43.375  61.373 -49.908  1.00  0.00     0.037 A 
HETATM   23  C   UNL     1     -44.747  61.236 -49.722  1.00  0.00     0.068 A 
HETATM   24  C   UNL     1     -45.418  60.216 -50.391  1.00  0.00     0.037 A 
HETATM   25  C   UNL     1     -44.719  59.331 -51.231  1.00  0.00     0.011 A 
BRANCH  23  26
HETATM   26  O   UNL     1     -45.294  62.139 -48.854  1.00  0.00    -0.356 OA
HETATM   27  C   UNL     1     -44.986  61.979 -47.475  1.00  0.00     0.210 C 
ENDBRANCH  23  26
ENDBRANCH  15  20
TORSDOF 2
ENDMDL
MODEL 5
REMARK VINA RESULT:      -8.2     16.880     18.709
REMARK  2 active torsions:
REMARK  status: ('A' for Active; 'I' for Inactive)
REMARK    1  A    between atoms: C_15  and  C_16 
REMARK    2  A    between atoms: C_19  and  O_20 
ROOT
HETATM    1  C   UNL     1     -36.976  39.251 -61.128  1.00  0.00     0.048 C 
HETATM    2  C   UNL     1     -36.889  40.112 -59.901  1.00  0.00    -0.061 A 
HETATM    3  C   UNL     1     -36.398  39.589 -58.690  1.00  0.00     0.021 A 
HETATM    4  C   UNL     1     -36.287  40.424 -57.558  1.00  0.00    -0.000 A 
HETATM    5  C   UNL     1     -36.684  41.763 -57.677  1.00  0.00     0.043 A 
HETATM    6  N   UNL     1     -36.490  42.361 -56.451  1.00  0.00    -0.353 N 
HETATM    7  H   UNL     1     -36.704  43.325 -56.226  1.00  0.00     0.166 HD
HETATM    8  C   UNL     1     -35.909  41.472 -55.602  1.00  0.00     0.066 A 
HETATM    9  C   UNL     1     -35.835  40.241 -56.220  1.00  0.00    -0.017 A 
HETATM   10  C   UNL     1     -35.327  39.027 -55.491  1.00  0.00     0.043 C 
HETATM   11  C   UNL     1     -35.183  39.289 -53.950  1.00  0.00     0.018 C 
HETATM   12  C   UNL     1     -34.510  40.655 -53.703  1.00  0.00     0.065 C 
HETATM   13  C   UNL     1     -35.489  41.662 -54.257  1.00  0.00     0.082 C 
HETATM   14  N   UNL     1     -36.003  42.516 -53.435  1.00  0.00    -0.203 NA
HETATM   15  C   UNL     1     -34.307  41.308 -52.330  1.00  0.00     0.121 C 
HETATM   16  N   UNL     1     -35.463  42.229 -52.218  1.00  0.00    -0.207 NA
HETATM   17  C   UNL     1     -37.179  42.303 -58.867  1.00  0.00     0.031 A 
HETATM   18  C   UNL     1     -37.266  41.457 -59.977  1.00  0.00     0.009 A 
HETATM   19  H   UNL     1     -36.179  41.822 -51.611  1.00  0.00     0.149 HD
ENDROOT
BRANCH  15  20
HETATM   20  C   UNL     1     -33.985  40.550 -51.062  1.00  0.00    -0.038 A 
HETATM   21  C   UNL     1     -32.648  40.494 -50.622  1.00  0.00     0.011 A 
HETATM   22  C   UNL     1     -32.269  39.709 -49.530  1.00  0.00     0.037 A 
HETATM   23  C   UNL     1     -33.210  38.943 -48.850  1.00  0.00     0.068 A 
HETATM   24  C   UNL     1     -34.536  38.974 -49.275  1.00  0.00     0.037 A 
HETATM   25  C   UNL     1     -34.915  39.755 -50.380  1.00  0.00     0.011 A 
BRANCH  23  26
HETATM   26  O   UNL     1     -32.702  38.205 -47.818  1.00  0.00    -0.356 OA
HETATM   27  C   UNL     1     -31.559  38.725 -47.151  1.00  0.00     0.210 C 
ENDBRANCH  23  26
ENDBRANCH  15  20
TORSDOF 2
ENDMDL
MODEL 6
REMARK VINA RESULT:      -7.9      2.001      2.316
REMARK  2 active torsions:
REMARK  status: ('A' for Active; 'I' for Inactive)
REMARK    1  A    between atoms: C_15  and  C_16 
REMARK    2  A    between atoms: C_19  and  O_20 
ROOT
HETATM    1  C   UNL     1     -39.261  49.699 -54.299  1.00  0.00     0.048 C 
HETATM    2  C   UNL     1     -39.653  50.935 -53.543  1.00  0.00    -0.061 A 
HETATM    3  C   UNL     1     -40.197  52.046 -54.215  1.00  0.00     0.021 A 
HETATM    4  C   UNL     1     -40.596  53.184 -53.483  1.00  0.00    -0.000 A 
HETATM    5  C   UNL     1     -40.426  53.175 -52.093  1.00  0.00     0.043 A 
HETATM    6  N   UNL     1     -40.878  54.385 -51.613  1.00  0.00    -0.353 N 
HETATM    7  H   UNL     1     -40.864  54.675 -50.643  1.00  0.00     0.166 HD
HETATM    8  C   UNL     1     -41.399  55.110 -52.638  1.00  0.00     0.066 A 
HETATM    9  C   UNL     1     -41.179  54.439 -53.823  1.00  0.00    -0.017 A 
HETATM   10  C   UNL     1     -41.558  55.042 -55.147  1.00  0.00     0.043 C 
HETATM   11  C   UNL     1     -41.943  56.558 -55.010  1.00  0.00     0.018 C 
HETATM   12  C   UNL     1     -42.869  56.764 -53.794  1.00  0.00     0.065 C 
HETATM   13  C   UNL     1     -42.016  56.390 -52.605  1.00  0.00     0.082 C 
HETATM   14  N   UNL     1     -41.768  57.309 -51.731  1.00  0.00    -0.203 NA
HETATM   15  C   UNL     1     -43.357  58.121 -53.271  1.00  0.00     0.121 C 
HETATM   16  N   UNL     1     -42.403  58.427 -52.180  1.00  0.00    -0.207 NA
HETATM   17  C   UNL     1     -39.883  52.086 -51.403  1.00  0.00     0.031 A 
HETATM   18  C   UNL     1     -39.508  50.966 -52.152  1.00  0.00     0.009 A 
HETATM   19  H   UNL     1     -41.711  59.110 -52.499  1.00  0.00     0.149 HD
ENDROOT
BRANCH  15  20
HETATM   20  C   UNL     1     -43.704  59.301 -54.150  1.00  0.00    -0.038 A 
HETATM   21  C   UNL     1     -42.688  60.212 -54.501  1.00  0.00     0.011 A 
HETATM   22  C   UNL     1     -42.968  61.386 -55.204  1.00  0.00     0.037 A 
HETATM   23  C   UNL     1     -44.274  61.696 -55.569  1.00  0.00     0.068 A 
HETATM   24  C   UNL     1     -45.296  60.816 -55.223  1.00  0.00     0.037 A 
HETATM   25  C   UNL     1     -45.015  59.641 -54.505  1.00  0.00     0.011 A 
BRANCH  23  26
HETATM   26  O   UNL     1     -44.411  62.884 -56.232  1.00  0.00    -0.356 OA
HETATM   27  C   UNL     1     -45.681  63.161 -56.807  1.00  0.00     0.210 C 
ENDBRANCH  23  26
ENDBRANCH  15  20
TORSDOF 2
ENDMDL
MODEL 7
REMARK VINA RESULT:      -7.8     17.110     19.005
REMARK  2 active torsions:
REMARK  status: ('A' for Active; 'I' for Inactive)
REMARK    1  A    between atoms: C_15  and  C_16 
REMARK    2  A    between atoms: C_19  and  O_20 
ROOT
HETATM    1  C   UNL     1     -34.179  37.565 -46.194  1.00  0.00     0.048 C 
HETATM    2  C   UNL     1     -33.490  38.148 -47.393  1.00  0.00    -0.061 A 
HETATM    3  C   UNL     1     -34.181  38.316 -48.608  1.00  0.00     0.021 A 
HETATM    4  C   UNL     1     -33.528  38.902 -49.713  1.00  0.00    -0.000 A 
HETATM    5  C   UNL     1     -32.191  39.293 -49.565  1.00  0.00     0.043 A 
HETATM    6  N   UNL     1     -31.780  39.823 -50.769  1.00  0.00    -0.353 N 
HETATM    7  H   UNL     1     -30.852  40.175 -50.971  1.00  0.00     0.166 HD
HETATM    8  C   UNL     1     -32.832  39.855 -51.630  1.00  0.00     0.066 A 
HETATM    9  C   UNL     1     -33.912  39.227 -51.045  1.00  0.00    -0.017 A 
HETATM   10  C   UNL     1     -35.198  39.019 -51.797  1.00  0.00     0.043 C 
HETATM   11  C   UNL     1     -35.039  39.334 -53.327  1.00  0.00     0.018 C 
HETATM   12  C   UNL     1     -34.257  40.650 -53.520  1.00  0.00     0.065 C 
HETATM   13  C   UNL     1     -32.886  40.357 -52.959  1.00  0.00     0.082 C 
HETATM   14  N   UNL     1     -31.879  40.418 -53.768  1.00  0.00    -0.203 NA
HETATM   15  C   UNL     1     -33.803  41.222 -54.869  1.00  0.00     0.121 C 
HETATM   16  N   UNL     1     -32.400  40.757 -54.980  1.00  0.00    -0.207 NA
HETATM   17  C   UNL     1     -31.482  39.131 -48.371  1.00  0.00     0.031 A 
HETATM   18  C   UNL     1     -32.157  38.560 -47.288  1.00  0.00     0.009 A 
HETATM   19  H   UNL     1     -32.345  39.956 -55.614  1.00  0.00     0.149 HD
ENDROOT
BRANCH  15  20
HETATM   20  C   UNL     1     -34.599  41.123 -56.150  1.00  0.00    -0.038 A 
HETATM   21  C   UNL     1     -35.466  42.178 -56.497  1.00  0.00     0.011 A 
HETATM   22  C   UNL     1     -36.320  42.091 -57.600  1.00  0.00     0.037 A 
HETATM   23  C   UNL     1     -36.345  40.944 -58.386  1.00  0.00     0.068 A 
HETATM   24  C   UNL     1     -35.505  39.884 -58.054  1.00  0.00     0.037 A 
HETATM   25  C   UNL     1     -34.655  39.966 -56.937  1.00  0.00     0.011 A 
BRANCH  23  26
HETATM   26  O   UNL     1     -37.240  40.982 -59.418  1.00  0.00    -0.356 OA
HETATM   27  C   UNL     1     -37.420  42.231 -60.072  1.00  0.00     0.210 C 
ENDBRANCH  23  26
ENDBRANCH  15  20
TORSDOF 2
ENDMDL
MODEL 8
REMARK VINA RESULT:      -7.7     16.693     19.055
REMARK  2 active torsions:
REMARK  status: ('A' for Active; 'I' for Inactive)
REMARK    1  A    between atoms: C_15  and  C_16 
REMARK    2  A    between atoms: C_19  and  O_20 
ROOT
HETATM    1  C   UNL     1     -34.127  39.264 -49.837  1.00  0.00     0.048 C 
HETATM    2  C   UNL     1     -34.555  40.091 -51.014  1.00  0.00    -0.061 A 
HETATM    3  C   UNL     1     -34.975  39.477 -52.209  1.00  0.00     0.021 A 
HETATM    4  C   UNL     1     -35.411  40.270 -53.291  1.00  0.00    -0.000 A 
HETATM    5  C   UNL     1     -35.402  41.662 -53.143  1.00  0.00     0.043 A 
HETATM    6  N   UNL     1     -35.859  42.207 -54.323  1.00  0.00    -0.353 N 
HETATM    7  H   UNL     1     -35.946  43.197 -54.520  1.00  0.00     0.166 HD
HETATM    8  C   UNL     1     -36.230  41.207 -55.167  1.00  0.00     0.066 A 
HETATM    9  C   UNL     1     -35.902  39.994 -54.600  1.00  0.00    -0.017 A 
HETATM   10  C   UNL     1     -36.103  38.702 -55.344  1.00  0.00     0.043 C 
HETATM   11  C   UNL     1     -36.442  38.945 -56.857  1.00  0.00     0.018 C 
HETATM   12  C   UNL     1     -37.492  40.066 -56.994  1.00  0.00     0.065 C 
HETATM   13  C   UNL     1     -36.797  41.299 -56.468  1.00  0.00     0.082 C 
HETATM   14  N   UNL     1     -36.615  42.283 -57.286  1.00  0.00    -0.203 NA
HETATM   15  C   UNL     1     -37.984  40.664 -58.318  1.00  0.00     0.121 C 
HETATM   16  N   UNL     1     -37.151  41.879 -58.472  1.00  0.00    -0.207 NA
HETATM   17  C   UNL     1     -34.985  42.296 -51.968  1.00  0.00     0.031 A 
HETATM   18  C   UNL     1     -34.570  41.486 -50.907  1.00  0.00     0.009 A 
HETATM   19  H   UNL     1     -36.401  41.707 -59.147  1.00  0.00     0.149 HD
ENDROOT
BRANCH  15  20
HETATM   20  C   UNL     1     -38.182  39.874 -59.592  1.00  0.00    -0.038 A 
HETATM   21  C   UNL     1     -39.134  38.836 -59.610  1.00  0.00     0.011 A 
HETATM   22  C   UNL     1     -39.274  37.990 -60.713  1.00  0.00     0.037 A 
HETATM   23  C   UNL     1     -38.460  38.145 -61.830  1.00  0.00     0.068 A 
HETATM   24  C   UNL     1     -37.504  39.158 -61.830  1.00  0.00     0.037 A 
HETATM   25  C   UNL     1     -37.354  40.000 -60.714  1.00  0.00     0.011 A 
BRANCH  23  26
HETATM   26  O   UNL     1     -38.686  37.239 -62.827  1.00  0.00    -0.356 OA
HETATM   27  C   UNL     1     -40.011  37.155 -63.338  1.00  0.00     0.210 C 
ENDBRANCH  23  26
ENDBRANCH  15  20
TORSDOF 2
ENDMDL
MODEL 9
REMARK VINA RESULT:      -7.7      4.045      5.083
REMARK  2 active torsions:
REMARK  status: ('A' for Active; 'I' for Inactive)
REMARK    1  A    between atoms: C_15  and  C_16 
REMARK    2  A    between atoms: C_19  and  O_20 
ROOT
HETATM    1  C   UNL     1     -39.815  50.174 -50.394  1.00  0.00     0.048 C 
HETATM    2  C   UNL     1     -40.182  51.605 -50.657  1.00  0.00    -0.061 A 
HETATM    3  C   UNL     1     -40.323  52.080 -51.974  1.00  0.00     0.021 A 
HETATM    4  C   UNL     1     -40.707  53.419 -52.201  1.00  0.00    -0.000 A 
HETATM    5  C   UNL     1     -40.928  54.245 -51.092  1.00  0.00     0.043 A 
HETATM    6  N   UNL     1     -41.279  55.490 -51.568  1.00  0.00    -0.353 N 
HETATM    7  H   UNL     1     -41.483  56.302 -50.997  1.00  0.00     0.166 HD
HETATM    8  C   UNL     1     -41.369  55.446 -52.924  1.00  0.00     0.066 A 
HETATM    9  C   UNL     1     -40.951  54.206 -53.363  1.00  0.00    -0.017 A 
HETATM   10  C   UNL     1     -40.845  53.890 -54.829  1.00  0.00     0.043 C 
HETATM   11  C   UNL     1     -40.988  55.177 -55.717  1.00  0.00     0.018 C 
HETATM   12  C   UNL     1     -42.162  56.042 -55.215  1.00  0.00     0.065 C 
HETATM   13  C   UNL     1     -41.743  56.475 -53.830  1.00  0.00     0.082 C 
HETATM   14  N   UNL     1     -41.591  57.741 -53.616  1.00  0.00    -0.203 NA
HETATM   15  C   UNL     1     -42.535  57.429 -55.753  1.00  0.00     0.121 C 
HETATM   16  N   UNL     1     -41.878  58.352 -54.798  1.00  0.00    -0.207 NA
HETATM   17  C   UNL     1     -40.788  53.798 -49.775  1.00  0.00     0.031 A 
HETATM   18  C   UNL     1     -40.419  52.464 -49.579  1.00  0.00     0.009 A 
HETATM   19  H   UNL     1     -41.019  58.729 -55.208  1.00  0.00     0.149 HD
ENDROOT
BRANCH  15  20
HETATM   20  C   UNL     1     -42.421  57.842 -57.203  1.00  0.00    -0.038 A 
HETATM   21  C   UNL     1     -42.055  59.168 -57.508  1.00  0.00     0.011 A 
HETATM   22  C   UNL     1     -42.054  59.644 -58.821  1.00  0.00     0.037 A 
HETATM   23  C   UNL     1     -42.431  58.815 -59.873  1.00  0.00     0.068 A 
HETATM   24  C   UNL     1     -42.809  57.504 -59.594  1.00  0.00     0.037 A 
HETATM   25  C   UNL     1     -42.821  57.029 -58.271  1.00  0.00     0.011 A 
BRANCH  23  26
HETATM   26  O   UNL     1     -42.408  59.412 -61.102  1.00  0.00    -0.356 OA
HETATM   27  C   UNL     1     -43.064  60.668 -61.224  1.00  0.00     0.210 C 
ENDBRANCH  23  26
ENDBRANCH  15  20
TORSDOF 2
ENDMDL
MODEL 10
REMARK VINA RESULT:      -7.6      2.236      2.953
REMARK  2 active torsions:
REMARK  status: ('A' for Active; 'I' for Inactive)
REMARK    1  A    between atoms: C_15  and  C_16 
REMARK    2  A    between atoms: C_19  and  O_20 
ROOT
HETATM    1  C   UNL     1     -39.342  50.512 -51.314  1.00  0.00     0.048 C 
HETATM    2  C   UNL     1     -39.874  51.648 -52.138  1.00  0.00    -0.061 A 
HETATM    3  C   UNL     1     -40.564  52.714 -51.532  1.00  0.00     0.021 A 
HETATM    4  C   UNL     1     -41.022  53.793 -52.318  1.00  0.00    -0.000 A 
HETATM    5  C   UNL     1     -40.780  53.762 -53.697  1.00  0.00     0.043 A 
HETATM    6  N   UNL     1     -41.324  54.906 -54.238  1.00  0.00    -0.353 N 
HETATM    7  H   UNL     1     -41.319  55.152 -55.221  1.00  0.00     0.166 HD
HETATM    8  C   UNL     1     -41.817  55.687 -53.240  1.00  0.00     0.066 A 
HETATM    9  C   UNL     1     -41.720  55.004 -52.045  1.00  0.00    -0.017 A 
HETATM   10  C   UNL     1     -42.277  55.575 -50.769  1.00  0.00     0.043 C 
HETATM   11  C   UNL     1     -43.177  56.833 -51.036  1.00  0.00     0.018 C 
HETATM   12  C   UNL     1     -42.490  57.774 -52.048  1.00  0.00     0.065 C 
HETATM   13  C   UNL     1     -42.424  56.969 -53.324  1.00  0.00     0.082 C 
HETATM   14  N   UNL     1     -43.064  57.419 -54.352  1.00  0.00    -0.203 NA
HETATM   15  C   UNL     1     -43.114  59.042 -52.644  1.00  0.00     0.121 C 
HETATM   16  N   UNL     1     -43.652  58.577 -53.944  1.00  0.00    -0.207 NA
HETATM   17  C   UNL     1     -40.102  52.711 -54.323  1.00  0.00     0.031 A 
HETATM   18  C   UNL     1     -39.648  51.661 -53.519  1.00  0.00     0.009 A 
HETATM   19  H   UNL     1     -44.665  58.444 -53.877  1.00  0.00     0.149 HD
ENDROOT
BRANCH  15  20
HETATM   20  C   UNL     1     -44.025  59.983 -51.888  1.00  0.00    -0.038 A 
HETATM   21  C   UNL     1     -45.418  59.866 -52.058  1.00  0.00     0.011 A 
HETATM   22  C   UNL     1     -46.305  60.783 -51.488  1.00  0.00     0.037 A 
HETATM   23  C   UNL     1     -45.830  61.854 -50.739  1.00  0.00     0.068 A 
HETATM   24  C   UNL     1     -44.455  61.996 -50.567  1.00  0.00     0.037 A 
HETATM   25  C   UNL     1     -43.562  61.081 -51.152  1.00  0.00     0.011 A 
BRANCH  23  26
HETATM   26  O   UNL     1     -46.801  62.686 -50.258  1.00  0.00    -0.356 OA
HETATM   27  C   UNL     1     -47.703  63.242 -51.206  1.00  0.00     0.210 C 
ENDBRANCH  23  26
ENDBRANCH  15  20
TORSDOF 2
ENDMDL
