MODEL 1
REMARK VINA RESULT:      -7.9      0.000      0.000
REMARK  5 active torsions:
REMARK  status: ('A' for Active; 'I' for Inactive)
REMARK    1  A    between atoms: C_5  and  C_6 
REMARK       I    between atoms: C_6  and  N_7 
REMARK    2  A    between atoms: N_7  and  C_8 
REMARK    3  A    between atoms: C_8  and  C_9 
REMARK    4  A    between atoms: C_11  and  N_12 
REMARK    5  A    between atoms: N_12  and  C_13 
ROOT
HETATM    1  C   UNL     1     -41.823  55.342 -50.949  1.00  0.00     0.161 C 
ENDROOT
BRANCH   1   2
HETATM    2  N   UNL     1     -41.514  53.976 -51.300  1.00  0.00    -0.353 N 
HETATM    3  C   UNL     1     -40.320  53.382 -50.951  1.00  0.00     0.255 C 
HETATM    4  O   UNL     1     -39.486  53.956 -50.256  1.00  0.00    -0.268 OA
HETATM    5  H   UNL     1     -42.154  53.475 -51.908  1.00  0.00     0.163 HD
BRANCH   3   6
HETATM    6  C   UNL     1     -40.065  51.996 -51.436  1.00  0.00     0.071 A 
HETATM    7  C   UNL     1     -39.894  51.681 -52.788  1.00  0.00     0.138 A 
HETATM    8  C   UNL     1     -39.648  50.367 -53.204  1.00  0.00    -0.022 A 
HETATM    9  F   UNL     1     -39.968  52.644 -53.723  1.00  0.00    -0.204 F 
HETATM   10  C   UNL     1     -39.494  50.038 -54.660  1.00  0.00     0.051 C 
HETATM   11  C   UNL     1     -39.604  49.348 -52.244  1.00  0.00     0.010 A 
HETATM   12  C   UNL     1     -39.777  49.647 -50.892  1.00  0.00     0.002 A 
HETATM   13  C   UNL     1     -40.003  50.964 -50.489  1.00  0.00     0.020 A 
ENDBRANCH   3   6
ENDBRANCH   1   2
BRANCH   1  14
HETATM   14  C   UNL     1     -42.872  55.915 -51.872  1.00  0.00    -0.036 A 
HETATM   15  C   UNL     1     -42.982  55.449 -53.189  1.00  0.00     0.057 A 
HETATM   16  C   UNL     1     -43.908  56.015 -54.067  1.00  0.00     0.101 A 
HETATM   17  N   UNL     1     -44.655  57.036 -53.626  1.00  0.00    -0.353 N 
HETATM   18  H   UNL     1     -45.280  57.472 -54.298  1.00  0.00     0.166 HD
HETATM   19  C   UNL     1     -44.586  57.517 -52.377  1.00  0.00     0.090 A 
HETATM   20  C   UNL     1     -43.694  56.967 -51.467  1.00  0.00     0.026 A 
BRANCH  16  21
HETATM   21  N   UNL     1     -43.968  55.616 -55.408  1.00  0.00    -0.372 N 
HETATM   22  H   UNL     1     -44.912  55.705 -55.790  1.00  0.00     0.161 HD
BRANCH  21  23
HETATM   23  C   UNL     1     -42.881  55.881 -56.349  1.00  0.00     0.083 A 
HETATM   24  C   UNL     1     -43.082  55.770 -57.834  1.00  0.00     0.027 A 
HETATM   25  C   UNL     1     -42.928  57.120 -57.197  1.00  0.00     0.027 A 
ENDBRANCH  21  23
ENDBRANCH  16  21
ENDBRANCH   1  14
TORSDOF 5
ENDMDL
MODEL 2
REMARK VINA RESULT:      -7.8      2.179      4.435
REMARK  5 active torsions:
REMARK  status: ('A' for Active; 'I' for Inactive)
REMARK    1  A    between atoms: C_5  and  C_6 
REMARK       I    between atoms: C_6  and  N_7 
REMARK    2  A    between atoms: N_7  and  C_8 
REMARK    3  A    between atoms: C_8  and  C_9 
REMARK    4  A    between atoms: C_11  and  N_12 
REMARK    5  A    between atoms: N_12  and  C_13 
ROOT
HETATM    1  C   UNL     1     -42.412  55.057 -54.258  1.00  0.00     0.161 C 
ENDROOT
BRANCH   1   2
HETATM    2  N   UNL     1     -41.896  53.765 -53.874  1.00  0.00    -0.353 N 
HETATM    3  C   UNL     1     -40.625  53.353 -54.215  1.00  0.00     0.255 C 
HETATM    4  O   UNL     1     -39.836  54.092 -54.797  1.00  0.00    -0.268 OA
HETATM    5  H   UNL     1     -42.523  53.104 -53.427  1.00  0.00     0.163 HD
BRANCH   3   6
HETATM    6  C   UNL     1     -40.220  51.968 -53.843  1.00  0.00     0.071 A 
HETATM    7  C   UNL     1     -40.016  51.563 -52.520  1.00  0.00     0.138 A 
HETATM    8  C   UNL     1     -39.644  50.249 -52.210  1.00  0.00    -0.022 A 
HETATM    9  F   UNL     1     -40.170  52.439 -51.512  1.00  0.00    -0.204 F 
HETATM   10  C   UNL     1     -39.400  49.836 -50.788  1.00  0.00     0.051 C 
HETATM   11  C   UNL     1     -39.444  49.336 -53.253  1.00  0.00     0.010 A 
HETATM   12  C   UNL     1     -39.640  49.727 -54.578  1.00  0.00     0.002 A 
HETATM   13  C   UNL     1     -40.029  51.035 -54.873  1.00  0.00     0.020 A 
ENDBRANCH   3   6
ENDBRANCH   1   2
BRANCH   1  14
HETATM   14  C   UNL     1     -42.493  55.983 -53.068  1.00  0.00    -0.036 A 
HETATM   15  C   UNL     1     -41.913  55.614 -51.847  1.00  0.00     0.057 A 
HETATM   16  C   UNL     1     -42.036  56.437 -50.726  1.00  0.00     0.101 A 
HETATM   17  N   UNL     1     -42.753  57.563 -50.843  1.00  0.00    -0.353 N 
HETATM   18  H   UNL     1     -42.879  58.116 -50.001  1.00  0.00     0.166 HD
HETATM   19  C   UNL     1     -43.327  57.957 -51.987  1.00  0.00     0.090 A 
HETATM   20  C   UNL     1     -43.210  57.178 -53.130  1.00  0.00     0.026 A 
BRANCH  16  21
HETATM   21  N   UNL     1     -41.533  56.039 -49.481  1.00  0.00    -0.372 N 
HETATM   22  H   UNL     1     -41.977  56.545 -48.711  1.00  0.00     0.161 HD
BRANCH  21  23
HETATM   23  C   UNL     1     -41.171  54.652 -49.194  1.00  0.00     0.083 A 
HETATM   24  C   UNL     1     -39.736  54.207 -49.155  1.00  0.00     0.027 A 
HETATM   25  C   UNL     1     -40.522  54.318 -47.882  1.00  0.00     0.027 A 
ENDBRANCH  21  23
ENDBRANCH  16  21
ENDBRANCH   1  14
TORSDOF 5
ENDMDL
MODEL 3
REMARK VINA RESULT:      -7.7      1.103      1.558
REMARK  5 active torsions:
REMARK  status: ('A' for Active; 'I' for Inactive)
REMARK    1  A    between atoms: C_5  and  C_6 
REMARK       I    between atoms: C_6  and  N_7 
REMARK    2  A    between atoms: N_7  and  C_8 
REMARK    3  A    between atoms: C_8  and  C_9 
REMARK    4  A    between atoms: C_11  and  N_12 
REMARK    5  A    between atoms: N_12  and  C_13 
ROOT
HETATM    1  C   UNL     1     -41.939  55.584 -52.345  1.00  0.00     0.161 C 
ENDROOT
BRANCH   1   2
HETATM    2  N   UNL     1     -41.569  54.190 -52.413  1.00  0.00    -0.353 N 
HETATM    3  C   UNL     1     -40.549  53.665 -51.647  1.00  0.00     0.255 C 
HETATM    4  O   UNL     1     -39.953  54.335 -50.809  1.00  0.00    -0.268 OA
HETATM    5  H   UNL     1     -42.005  53.606 -53.118  1.00  0.00     0.163 HD
BRANCH   3   6
HETATM    6  C   UNL     1     -40.191  52.234 -51.855  1.00  0.00     0.071 A 
HETATM    7  C   UNL     1     -39.987  51.674 -53.121  1.00  0.00     0.138 A 
HETATM    8  C   UNL     1     -39.643  50.326 -53.274  1.00  0.00    -0.022 A 
HETATM    9  F   UNL     1     -40.124  52.430 -54.225  1.00  0.00    -0.204 F 
HETATM   10  C   UNL     1     -39.454  49.733 -54.640  1.00  0.00     0.051 C 
HETATM   11  C   UNL     1     -39.532  49.520 -52.135  1.00  0.00     0.010 A 
HETATM   12  C   UNL     1     -39.737  50.062 -50.866  1.00  0.00     0.002 A 
HETATM   13  C   UNL     1     -40.061  51.413 -50.725  1.00  0.00     0.020 A 
ENDBRANCH   3   6
ENDBRANCH   1   2
BRANCH   1  14
HETATM   14  C   UNL     1     -42.749  55.989 -53.555  1.00  0.00    -0.036 A 
HETATM   15  C   UNL     1     -42.354  55.581 -54.836  1.00  0.00     0.057 A 
HETATM   16  C   UNL     1     -43.061  56.001 -55.963  1.00  0.00     0.101 A 
HETATM   17  N   UNL     1     -44.099  56.831 -55.786  1.00  0.00    -0.353 N 
HETATM   18  H   UNL     1     -44.563  57.171 -56.623  1.00  0.00     0.166 HD
HETATM   19  C   UNL     1     -44.514  57.248 -54.583  1.00  0.00     0.090 A 
HETATM   20  C   UNL     1     -43.850  56.836 -53.435  1.00  0.00     0.026 A 
BRANCH  16  21
HETATM   21  N   UNL     1     -42.626  55.671 -57.253  1.00  0.00    -0.372 N 
HETATM   22  H   UNL     1     -42.353  54.688 -57.322  1.00  0.00     0.161 HD
BRANCH  21  23
HETATM   23  C   UNL     1     -43.238  56.240 -58.451  1.00  0.00     0.083 A 
HETATM   24  C   UNL     1     -42.605  56.090 -59.806  1.00  0.00     0.027 A 
HETATM   25  C   UNL     1     -43.850  55.323 -59.471  1.00  0.00     0.027 A 
ENDBRANCH  21  23
ENDBRANCH  16  21
ENDBRANCH   1  14
TORSDOF 5
ENDMDL
MODEL 4
REMARK VINA RESULT:      -7.6      1.774      2.616
REMARK  5 active torsions:
REMARK  status: ('A' for Active; 'I' for Inactive)
REMARK    1  A    between atoms: C_5  and  C_6 
REMARK       I    between atoms: C_6  and  N_7 
REMARK    2  A    between atoms: N_7  and  C_8 
REMARK    3  A    between atoms: C_8  and  C_9 
REMARK    4  A    between atoms: C_11  and  N_12 
REMARK    5  A    between atoms: N_12  and  C_13 
ROOT
HETATM    1  C   UNL     1     -40.779  56.096 -54.073  1.00  0.00     0.161 C 
ENDROOT
BRANCH   1   2
HETATM    2  N   UNL     1     -40.539  54.673 -54.055  1.00  0.00    -0.353 N 
HETATM    3  C   UNL     1     -40.628  53.929 -52.897  1.00  0.00     0.255 C 
HETATM    4  O   UNL     1     -40.992  54.422 -51.833  1.00  0.00    -0.268 OA
HETATM    5  H   UNL     1     -40.197  54.228 -54.900  1.00  0.00     0.163 HD
BRANCH   3   6
HETATM    6  C   UNL     1     -40.278  52.483 -52.972  1.00  0.00     0.071 A 
HETATM    7  C   UNL     1     -39.922  51.725 -51.851  1.00  0.00     0.138 A 
HETATM    8  C   UNL     1     -39.608  50.365 -51.961  1.00  0.00    -0.022 A 
HETATM    9  F   UNL     1     -39.869  52.298 -50.635  1.00  0.00    -0.204 F 
HETATM   10  C   UNL     1     -39.200  49.572 -50.755  1.00  0.00     0.051 C 
HETATM   11  C   UNL     1     -39.624  49.766 -53.226  1.00  0.00     0.010 A 
HETATM   12  C   UNL     1     -39.974  50.509 -54.354  1.00  0.00     0.002 A 
HETATM   13  C   UNL     1     -40.303  51.860 -54.228  1.00  0.00     0.020 A 
ENDBRANCH   3   6
ENDBRANCH   1   2
BRANCH   1  14
HETATM   14  C   UNL     1     -42.175  56.404 -54.559  1.00  0.00    -0.036 A 
HETATM   15  C   UNL     1     -42.476  56.336 -55.927  1.00  0.00     0.057 A 
HETATM   16  C   UNL     1     -43.746  56.679 -56.391  1.00  0.00     0.101 A 
HETATM   17  N   UNL     1     -44.652  57.108 -55.501  1.00  0.00    -0.353 N 
HETATM   18  H   UNL     1     -45.550  57.407 -55.867  1.00  0.00     0.166 HD
HETATM   19  C   UNL     1     -44.412  57.190 -54.185  1.00  0.00     0.090 A 
HETATM   20  C   UNL     1     -43.167  56.839 -53.681  1.00  0.00     0.026 A 
BRANCH  16  21
HETATM   21  N   UNL     1     -44.033  56.697 -57.762  1.00  0.00    -0.372 N 
HETATM   22  H   UNL     1     -44.142  57.650 -58.116  1.00  0.00     0.161 HD
BRANCH  21  23
HETATM   23  C   UNL     1     -43.434  55.744 -58.695  1.00  0.00     0.083 A 
HETATM   24  C   UNL     1     -44.197  55.217 -59.878  1.00  0.00     0.027 A 
HETATM   25  C   UNL     1     -43.079  56.198 -60.082  1.00  0.00     0.027 A 
ENDBRANCH  21  23
ENDBRANCH  16  21
ENDBRANCH   1  14
TORSDOF 5
ENDMDL
MODEL 5
REMARK VINA RESULT:      -7.4      2.688      4.193
REMARK  5 active torsions:
REMARK  status: ('A' for Active; 'I' for Inactive)
REMARK    1  A    between atoms: C_5  and  C_6 
REMARK       I    between atoms: C_6  and  N_7 
REMARK    2  A    between atoms: N_7  and  C_8 
REMARK    3  A    between atoms: C_8  and  C_9 
REMARK    4  A    between atoms: C_11  and  N_12 
REMARK    5  A    between atoms: N_12  and  C_13 
ROOT
HETATM    1  C   UNL     1     -42.209  55.460 -54.158  1.00  0.00     0.161 C 
ENDROOT
BRANCH   1   2
HETATM    2  N   UNL     1     -41.764  54.153 -53.739  1.00  0.00    -0.353 N 
HETATM    3  C   UNL     1     -40.566  53.617 -54.161  1.00  0.00     0.255 C 
HETATM    4  O   UNL     1     -39.776  54.253 -54.852  1.00  0.00    -0.268 OA
HETATM    5  H   UNL     1     -42.400  53.573 -53.201  1.00  0.00     0.163 HD
BRANCH   3   6
HETATM    6  C   UNL     1     -40.240  52.225 -53.739  1.00  0.00     0.071 A 
HETATM    7  C   UNL     1     -40.016  51.865 -52.406  1.00  0.00     0.138 A 
HETATM    8  C   UNL     1     -39.721  50.544 -52.049  1.00  0.00    -0.022 A 
HETATM    9  F   UNL     1     -40.077  52.792 -51.435  1.00  0.00    -0.204 F 
HETATM   10  C   UNL     1     -39.456  50.177 -50.618  1.00  0.00     0.051 C 
HETATM   11  C   UNL     1     -39.619  49.575 -53.055  1.00  0.00     0.010 A 
HETATM   12  C   UNL     1     -39.836  49.921 -54.389  1.00  0.00     0.002 A 
HETATM   13  C   UNL     1     -40.147  51.237 -54.731  1.00  0.00     0.020 A 
ENDBRANCH   3   6
ENDBRANCH   1   2
BRANCH   1  14
HETATM   14  C   UNL     1     -42.600  56.306 -52.968  1.00  0.00    -0.036 A 
HETATM   15  C   UNL     1     -41.617  56.972 -52.224  1.00  0.00     0.057 A 
HETATM   16  C   UNL     1     -41.963  57.705 -51.088  1.00  0.00     0.101 A 
HETATM   17  N   UNL     1     -43.249  57.720 -50.712  1.00  0.00    -0.353 N 
HETATM   18  H   UNL     1     -43.470  58.210 -49.851  1.00  0.00     0.166 HD
HETATM   19  C   UNL     1     -44.224  57.099 -51.390  1.00  0.00     0.090 A 
HETATM   20  C   UNL     1     -43.924  56.377 -52.536  1.00  0.00     0.026 A 
BRANCH  16  21
HETATM   21  N   UNL     1     -40.981  58.304 -50.289  1.00  0.00    -0.372 N 
HETATM   22  H   UNL     1     -40.477  57.616 -49.726  1.00  0.00     0.161 HD
BRANCH  21  23
HETATM   23  C   UNL     1     -40.188  59.441 -50.752  1.00  0.00     0.083 A 
HETATM   24  C   UNL     1     -38.931  59.863 -50.044  1.00  0.00     0.027 A 
HETATM   25  C   UNL     1     -38.848  59.194 -51.384  1.00  0.00     0.027 A 
ENDBRANCH  21  23
ENDBRANCH  16  21
ENDBRANCH   1  14
TORSDOF 5
ENDMDL
MODEL 6
REMARK VINA RESULT:      -7.4      1.373      2.087
REMARK  5 active torsions:
REMARK  status: ('A' for Active; 'I' for Inactive)
REMARK    1  A    between atoms: C_5  and  C_6 
REMARK       I    between atoms: C_6  and  N_7 
REMARK    2  A    between atoms: N_7  and  C_8 
REMARK    3  A    between atoms: C_8  and  C_9 
REMARK    4  A    between atoms: C_11  and  N_12 
REMARK    5  A    between atoms: N_12  and  C_13 
ROOT
HETATM    1  C   UNL     1     -43.303  55.860 -50.732  1.00  0.00     0.161 C 
ENDROOT
BRANCH   1   2
HETATM    2  N   UNL     1     -42.646  54.712 -51.309  1.00  0.00    -0.353 N 
HETATM    3  C   UNL     1     -41.298  54.476 -51.136  1.00  0.00     0.255 C 
HETATM    4  O   UNL     1     -40.600  55.185 -50.418  1.00  0.00    -0.268 OA
HETATM    5  H   UNL     1     -43.172  54.120 -51.943  1.00  0.00     0.163 HD
BRANCH   3   6
HETATM    6  C   UNL     1     -40.701  53.308 -51.844  1.00  0.00     0.071 A 
HETATM    7  C   UNL     1     -40.279  52.150 -51.184  1.00  0.00     0.138 A 
HETATM    8  C   UNL     1     -39.730  51.070 -51.886  1.00  0.00    -0.022 A 
HETATM    9  F   UNL     1     -40.389  52.054 -49.847  1.00  0.00    -0.204 F 
HETATM   10  C   UNL     1     -39.255  49.845 -51.162  1.00  0.00     0.051 C 
HETATM   11  C   UNL     1     -39.577  51.172 -53.274  1.00  0.00     0.010 A 
HETATM   12  C   UNL     1     -39.990  52.322 -53.946  1.00  0.00     0.002 A 
HETATM   13  C   UNL     1     -40.552  53.385 -53.237  1.00  0.00     0.020 A 
ENDBRANCH   3   6
ENDBRANCH   1   2
BRANCH   1  14
HETATM   14  C   UNL     1     -43.901  56.739 -51.806  1.00  0.00    -0.036 A 
HETATM   15  C   UNL     1     -43.874  56.330 -53.146  1.00  0.00     0.057 A 
HETATM   16  C   UNL     1     -44.369  57.163 -54.151  1.00  0.00     0.101 A 
HETATM   17  N   UNL     1     -44.833  58.371 -53.802  1.00  0.00    -0.353 N 
HETATM   18  H   UNL     1     -45.133  58.983 -54.554  1.00  0.00     0.166 HD
HETATM   19  C   UNL     1     -44.879  58.806 -52.535  1.00  0.00     0.090 A 
HETATM   20  C   UNL     1     -44.416  57.999 -51.504  1.00  0.00     0.026 A 
BRANCH  16  21
HETATM   21  N   UNL     1     -44.269  56.802 -55.501  1.00  0.00    -0.372 N 
HETATM   22  H   UNL     1     -44.846  57.399 -56.098  1.00  0.00     0.161 HD
BRANCH  21  23
HETATM   23  C   UNL     1     -43.014  56.344 -56.094  1.00  0.00     0.083 A 
HETATM   24  C   UNL     1     -42.767  54.890 -56.385  1.00  0.00     0.027 A 
HETATM   25  C   UNL     1     -43.008  55.850 -57.512  1.00  0.00     0.027 A 
ENDBRANCH  21  23
ENDBRANCH  16  21
ENDBRANCH   1  14
TORSDOF 5
ENDMDL
MODEL 7
REMARK VINA RESULT:      -7.3      3.035      4.925
REMARK  5 active torsions:
REMARK  status: ('A' for Active; 'I' for Inactive)
REMARK    1  A    between atoms: C_5  and  C_6 
REMARK       I    between atoms: C_6  and  N_7 
REMARK    2  A    between atoms: N_7  and  C_8 
REMARK    3  A    between atoms: C_8  and  C_9 
REMARK    4  A    between atoms: C_11  and  N_12 
REMARK    5  A    between atoms: N_12  and  C_13 
ROOT
HETATM    1  C   UNL     1     -42.349  56.513 -56.329  1.00  0.00     0.161 C 
ENDROOT
BRANCH   1   2
HETATM    2  N   UNL     1     -41.600  55.583 -55.517  1.00  0.00    -0.353 N 
HETATM    3  C   UNL     1     -42.205  54.533 -54.859  1.00  0.00     0.255 C 
HETATM    4  O   UNL     1     -43.400  54.285 -54.989  1.00  0.00    -0.268 OA
HETATM    5  H   UNL     1     -40.617  55.770 -55.347  1.00  0.00     0.163 HD
BRANCH   3   6
HETATM    6  C   UNL     1     -41.354  53.683 -53.979  1.00  0.00     0.071 A 
HETATM    7  C   UNL     1     -41.023  54.035 -52.666  1.00  0.00     0.138 A 
HETATM    8  C   UNL     1     -40.227  53.205 -51.868  1.00  0.00    -0.022 A 
HETATM    9  F   UNL     1     -41.464  55.194 -52.145  1.00  0.00    -0.204 F 
HETATM   10  C   UNL     1     -39.857  53.610 -50.471  1.00  0.00     0.051 C 
HETATM   11  C   UNL     1     -39.732  52.013 -52.411  1.00  0.00     0.010 A 
HETATM   12  C   UNL     1     -40.050  51.650 -53.720  1.00  0.00     0.002 A 
HETATM   13  C   UNL     1     -40.860  52.478 -54.500  1.00  0.00     0.020 A 
ENDBRANCH   3   6
ENDBRANCH   1   2
BRANCH   1  14
HETATM   14  C   UNL     1     -42.179  57.928 -55.829  1.00  0.00    -0.036 A 
HETATM   15  C   UNL     1     -41.826  58.166 -54.493  1.00  0.00     0.057 A 
HETATM   16  C   UNL     1     -41.727  59.471 -54.008  1.00  0.00     0.101 A 
HETATM   17  N   UNL     1     -42.015  60.480 -54.842  1.00  0.00    -0.353 N 
HETATM   18  H   UNL     1     -41.994  61.417 -54.453  1.00  0.00     0.166 HD
HETATM   19  C   UNL     1     -42.357  60.303 -56.125  1.00  0.00     0.090 A 
HETATM   20  C   UNL     1     -42.446  59.022 -56.652  1.00  0.00     0.026 A 
BRANCH  16  21
HETATM   21  N   UNL     1     -41.459  59.719 -52.656  1.00  0.00    -0.372 N 
HETATM   22  H   UNL     1     -42.313  59.913 -52.128  1.00  0.00     0.161 HD
BRANCH  21  23
HETATM   23  C   UNL     1     -40.417  59.002 -51.924  1.00  0.00     0.083 A 
HETATM   24  C   UNL     1     -39.985  59.429 -50.549  1.00  0.00     0.027 A 
HETATM   25  C   UNL     1     -40.793  58.177 -50.727  1.00  0.00     0.027 A 
ENDBRANCH  21  23
ENDBRANCH  16  21
ENDBRANCH   1  14
TORSDOF 5
ENDMDL
MODEL 8
REMARK VINA RESULT:      -7.3      2.346      3.725
REMARK  5 active torsions:
REMARK  status: ('A' for Active; 'I' for Inactive)
REMARK    1  A    between atoms: C_5  and  C_6 
REMARK       I    between atoms: C_6  and  N_7 
REMARK    2  A    between atoms: N_7  and  C_8 
REMARK    3  A    between atoms: C_8  and  C_9 
REMARK    4  A    between atoms: C_11  and  N_12 
REMARK    5  A    between atoms: N_12  and  C_13 
ROOT
HETATM    1  C   UNL     1     -42.736  57.189 -54.220  1.00  0.00     0.161 C 
ENDROOT
BRANCH   1   2
HETATM    2  N   UNL     1     -41.887  56.061 -53.920  1.00  0.00    -0.353 N 
HETATM    3  C   UNL     1     -42.358  54.945 -53.260  1.00  0.00     0.255 C 
HETATM    4  O   UNL     1     -43.541  54.818 -52.960  1.00  0.00    -0.268 OA
HETATM    5  H   UNL     1     -40.894  56.136 -54.113  1.00  0.00     0.163 HD
BRANCH   3   6
HETATM    6  C   UNL     1     -41.379  53.873 -52.924  1.00  0.00     0.071 A 
HETATM    7  C   UNL     1     -41.121  52.785 -53.764  1.00  0.00     0.138 A 
HETATM    8  C   UNL     1     -40.187  51.802 -53.416  1.00  0.00    -0.022 A 
HETATM    9  F   UNL     1     -41.777  52.661 -54.931  1.00  0.00    -0.204 F 
HETATM   10  C   UNL     1     -39.942  50.625 -54.315  1.00  0.00     0.051 C 
HETATM   11  C   UNL     1     -39.524  51.900 -52.187  1.00  0.00     0.010 A 
HETATM   12  C   UNL     1     -39.773  52.978 -51.337  1.00  0.00     0.002 A 
HETATM   13  C   UNL     1     -40.693  53.961 -51.703  1.00  0.00     0.020 A 
ENDBRANCH   3   6
ENDBRANCH   1   2
BRANCH   1  14
HETATM   14  C   UNL     1     -42.663  57.547 -55.686  1.00  0.00    -0.036 A 
HETATM   15  C   UNL     1     -42.974  56.590 -56.662  1.00  0.00     0.057 A 
HETATM   16  C   UNL     1     -42.850  56.894 -58.018  1.00  0.00     0.101 A 
HETATM   17  N   UNL     1     -42.392  58.108 -58.356  1.00  0.00    -0.353 N 
HETATM   18  H   UNL     1     -42.253  58.287 -59.345  1.00  0.00     0.166 HD
HETATM   19  C   UNL     1     -42.081  59.055 -57.460  1.00  0.00     0.090 A 
HETATM   20  C   UNL     1     -42.210  58.799 -56.102  1.00  0.00     0.026 A 
BRANCH  16  21
HETATM   21  N   UNL     1     -43.076  55.921 -58.999  1.00  0.00    -0.372 N 
HETATM   22  H   UNL     1     -42.394  55.161 -58.946  1.00  0.00     0.161 HD
BRANCH  21  23
HETATM   23  C   UNL     1     -44.422  55.529 -59.412  1.00  0.00     0.083 A 
HETATM   24  C   UNL     1     -44.722  55.116 -60.825  1.00  0.00     0.027 A 
HETATM   25  C   UNL     1     -44.703  54.088 -59.732  1.00  0.00     0.027 A 
ENDBRANCH  21  23
ENDBRANCH  16  21
ENDBRANCH   1  14
TORSDOF 5
ENDMDL
MODEL 9
REMARK VINA RESULT:      -7.2      2.495      7.374
REMARK  5 active torsions:
REMARK  status: ('A' for Active; 'I' for Inactive)
REMARK    1  A    between atoms: C_5  and  C_6 
REMARK       I    between atoms: C_6  and  N_7 
REMARK    2  A    between atoms: N_7  and  C_8 
REMARK    3  A    between atoms: C_8  and  C_9 
REMARK    4  A    between atoms: C_11  and  N_12 
REMARK    5  A    between atoms: N_12  and  C_13 
ROOT
HETATM    1  C   UNL     1     -40.453  53.858 -55.079  1.00  0.00     0.161 C 
ENDROOT
BRANCH   1   2
HETATM    2  N   UNL     1     -41.302  54.928 -54.615  1.00  0.00    -0.353 N 
HETATM    3  C   UNL     1     -42.650  54.973 -54.906  1.00  0.00     0.255 C 
HETATM    4  O   UNL     1     -43.216  54.066 -55.509  1.00  0.00    -0.268 OA
HETATM    5  H   UNL     1     -40.874  55.720 -54.147  1.00  0.00     0.163 HD
BRANCH   3   6
HETATM    6  C   UNL     1     -43.420  56.165 -54.451  1.00  0.00     0.071 A 
HETATM    7  C   UNL     1     -43.746  56.396 -53.111  1.00  0.00     0.138 A 
HETATM    8  C   UNL     1     -44.464  57.533 -52.722  1.00  0.00    -0.022 A 
HETATM    9  F   UNL     1     -43.376  55.517 -52.162  1.00  0.00    -0.204 F 
HETATM   10  C   UNL     1     -44.832  57.754 -51.284  1.00  0.00     0.051 C 
HETATM   11  C   UNL     1     -44.887  58.438 -53.704  1.00  0.00     0.010 A 
HETATM   12  C   UNL     1     -44.572  58.218 -55.045  1.00  0.00     0.002 A 
HETATM   13  C   UNL     1     -43.840  57.090 -55.418  1.00  0.00     0.020 A 
ENDBRANCH   3   6
ENDBRANCH   1   2
BRANCH   1  14
HETATM   14  C   UNL     1     -40.248  52.822 -53.999  1.00  0.00    -0.036 A 
HETATM   15  C   UNL     1     -40.367  53.178 -52.649  1.00  0.00     0.057 A 
HETATM   16  C   UNL     1     -40.120  52.242 -51.644  1.00  0.00     0.101 A 
HETATM   17  N   UNL     1     -39.730  51.012 -52.007  1.00  0.00    -0.353 N 
HETATM   18  H   UNL     1     -39.499  50.365 -51.259  1.00  0.00     0.166 HD
HETATM   19  C   UNL     1     -39.601  50.625 -53.283  1.00  0.00     0.090 A 
HETATM   20  C   UNL     1     -39.859  51.520 -54.312  1.00  0.00     0.026 A 
BRANCH  16  21
HETATM   21  N   UNL     1     -40.153  52.609 -50.293  1.00  0.00    -0.372 N 
HETATM   22  H   UNL     1     -39.567  51.999 -49.718  1.00  0.00     0.161 HD
BRANCH  21  23
HETATM   23  C   UNL     1     -40.215  54.005 -49.866  1.00  0.00     0.083 A 
HETATM   24  C   UNL     1     -41.512  54.645 -49.455  1.00  0.00     0.027 A 
HETATM   25  C   UNL     1     -40.474  54.322 -48.421  1.00  0.00     0.027 A 
ENDBRANCH  21  23
ENDBRANCH  16  21
ENDBRANCH   1  14
TORSDOF 5
ENDMDL
MODEL 10
REMARK VINA RESULT:      -7.0      2.661      7.445
REMARK  5 active torsions:
REMARK  status: ('A' for Active; 'I' for Inactive)
REMARK    1  A    between atoms: C_5  and  C_6 
REMARK       I    between atoms: C_6  and  N_7 
REMARK    2  A    between atoms: N_7  and  C_8 
REMARK    3  A    between atoms: C_8  and  C_9 
REMARK    4  A    between atoms: C_11  and  N_12 
REMARK    5  A    between atoms: N_12  and  C_13 
ROOT
HETATM    1  C   UNL     1     -42.159  53.865 -54.610  1.00  0.00     0.161 C 
ENDROOT
BRANCH   1   2
HETATM    2  N   UNL     1     -42.722  54.969 -53.869  1.00  0.00    -0.353 N 
HETATM    3  C   UNL     1     -42.379  56.278 -54.131  1.00  0.00     0.255 C 
HETATM    4  O   UNL     1     -41.637  56.583 -55.060  1.00  0.00    -0.268 OA
HETATM    5  H   UNL     1     -43.309  54.765 -53.067  1.00  0.00     0.163 HD
BRANCH   3   6
HETATM    6  C   UNL     1     -42.953  57.336 -53.252  1.00  0.00     0.071 A 
HETATM    7  C   UNL     1     -42.173  58.126 -52.401  1.00  0.00     0.138 A 
HETATM    8  C   UNL     1     -42.748  59.116 -51.595  1.00  0.00    -0.022 A 
HETATM    9  F   UNL     1     -40.842  57.942 -52.337  1.00  0.00    -0.204 F 
HETATM   10  C   UNL     1     -41.903  59.936 -50.666  1.00  0.00     0.051 C 
HETATM   11  C   UNL     1     -44.137  59.293 -51.625  1.00  0.00     0.010 A 
HETATM   12  C   UNL     1     -44.928  58.510 -52.467  1.00  0.00     0.002 A 
HETATM   13  C   UNL     1     -44.340  57.539 -53.278  1.00  0.00     0.020 A 
ENDBRANCH   3   6
ENDBRANCH   1   2
BRANCH   1  14
HETATM   14  C   UNL     1     -41.220  53.056 -53.748  1.00  0.00    -0.036 A 
HETATM   15  C   UNL     1     -40.940  53.464 -52.437  1.00  0.00     0.057 A 
HETATM   16  C   UNL     1     -40.026  52.756 -51.654  1.00  0.00     0.101 A 
HETATM   17  N   UNL     1     -39.401  51.705 -52.204  1.00  0.00    -0.353 N 
HETATM   18  H   UNL     1     -38.698  51.241 -51.638  1.00  0.00     0.166 HD
HETATM   19  C   UNL     1     -39.635  51.278 -53.453  1.00  0.00     0.090 A 
HETATM   20  C   UNL     1     -40.552  51.942 -54.256  1.00  0.00     0.026 A 
BRANCH  16  21
HETATM   21  N   UNL     1     -39.674  53.203 -50.374  1.00  0.00    -0.372 N 
HETATM   22  H   UNL     1     -38.900  53.869 -50.403  1.00  0.00     0.161 HD
BRANCH  21  23
HETATM   23  C   UNL     1     -40.671  53.440 -49.331  1.00  0.00     0.083 A 
HETATM   24  C   UNL     1     -40.288  54.008 -47.994  1.00  0.00     0.027 A 
HETATM   25  C   UNL     1     -41.044  54.851 -48.979  1.00  0.00     0.027 A 
ENDBRANCH  21  23
ENDBRANCH  16  21
ENDBRANCH   1  14
TORSDOF 5
ENDMDL
