MODEL 1
REMARK VINA RESULT:      -8.6      0.000      0.000
REMARK  3 active torsions:
REMARK  status: ('A' for Active; 'I' for Inactive)
REMARK    1  A    between atoms: C_2  and  C_3 
REMARK    2  A    between atoms: C_6  and  N_7 
REMARK    3  A    between atoms: C_14  and  C_15 
REMARK       I    between atoms: C_15  and  N_16 
ROOT
HETATM    1  N   UNL     1     -42.004  55.154 -53.615  1.00  0.00    -0.252 N 
HETATM    2  C   UNL     1     -43.339  55.426 -53.775  1.00  0.00     0.238 C 
HETATM    3  O   UNL     1     -44.312  54.688 -53.721  1.00  0.00    -0.272 OA
HETATM    4  C   UNL     1     -43.527  56.907 -53.862  1.00  0.00     0.135 C 
HETATM    5  C   UNL     1     -42.128  57.474 -54.022  1.00  0.00     0.130 C 
HETATM    6  C   UNL     1     -41.234  56.297 -53.718  1.00  0.00     0.238 C 
HETATM    7  O   UNL     1     -40.019  56.376 -53.780  1.00  0.00    -0.272 OA
HETATM    8  C   UNL     1     -44.076  57.478 -52.566  1.00  0.00     0.298 C 
HETATM    9  N   UNL     1     -43.454  58.884 -52.555  1.00  0.00    -0.028 N 
HETATM   10  H   UNL     1     -44.000  59.468 -53.204  1.00  0.00     0.287 HD
HETATM   11  C   UNL     1     -42.049  58.768 -53.188  1.00  0.00     0.242 C 
HETATM   12  C   UNL     1     -43.540  59.499 -51.263  1.00  0.00     0.203 C 
HETATM   13  C   UNL     1     -42.454  59.766 -50.536  1.00  0.00     0.037 C 
HETATM   14  C   UNL     1     -41.093  59.504 -50.989  1.00  0.00    -0.026 A 
HETATM   15  C   UNL     1     -40.876  59.048 -52.293  1.00  0.00    -0.016 A 
HETATM   16  C   UNL     1     -40.012  59.769 -50.139  1.00  0.00     0.012 A 
HETATM   17  C   UNL     1     -38.705  59.616 -50.596  1.00  0.00     0.001 A 
HETATM   18  C   UNL     1     -38.476  59.236 -51.911  1.00  0.00     0.001 A 
HETATM   19  C   UNL     1     -39.554  58.977 -52.760  1.00  0.00     0.010 A 
ENDROOT
BRANCH   1  20
HETATM   20  C   UNL     1     -41.456  53.848 -53.432  1.00  0.00     0.045 A 
HETATM   21  C   UNL     1     -41.350  52.938 -54.496  1.00  0.00     0.031 A 
HETATM   22  C   UNL     1     -40.736  51.686 -54.327  1.00  0.00     0.017 A 
HETATM   23  C   UNL     1     -40.233  51.314 -53.081  1.00  0.00     0.009 A 
HETATM   24  C   UNL     1     -40.388  52.181 -51.998  1.00  0.00     0.017 A 
HETATM   25  C   UNL     1     -40.984  53.434 -52.175  1.00  0.00     0.031 A 
BRANCH  23  26
HETATM   26  C   UNL     1     -39.534  50.023 -52.847  1.00  0.00     0.155 C 
HETATM   27  C   UNL     1     -39.280  49.561 -51.436  1.00  0.00     0.096 C 
HETATM   28  O   UNL     1     -39.225  49.329 -53.814  1.00  0.00    -0.293 OA
ENDBRANCH  23  26
ENDBRANCH   1  20
BRANCH   8  29
HETATM   29  C   UNL     1     -43.744  56.605 -51.334  1.00  0.00     0.248 C 
HETATM   30  N   UNL     1     -44.776  55.917 -50.772  1.00  0.00    -0.368 N 
HETATM   31  H   UNL     1     -45.572  55.599 -51.320  1.00  0.00     0.159 HD
HETATM   32  H   UNL     1     -44.515  55.274 -50.026  1.00  0.00     0.159 HD
HETATM   33  O   UNL     1     -42.602  56.498 -50.903  1.00  0.00    -0.271 OA
ENDBRANCH   8  29
TORSDOF 3
ENDMDL
MODEL 2
REMARK VINA RESULT:      -8.4      2.103      2.860
REMARK  3 active torsions:
REMARK  status: ('A' for Active; 'I' for Inactive)
REMARK    1  A    between atoms: C_2  and  C_3 
REMARK    2  A    between atoms: C_6  and  N_7 
REMARK    3  A    between atoms: C_14  and  C_15 
REMARK       I    between atoms: C_15  and  N_16 
ROOT
HETATM    1  N   UNL     1     -41.689  56.648 -54.640  1.00  0.00    -0.252 N 
HETATM    2  C   UNL     1     -42.455  56.874 -55.756  1.00  0.00     0.238 C 
HETATM    3  O   UNL     1     -42.943  56.090 -56.557  1.00  0.00    -0.272 OA
HETATM    4  C   UNL     1     -42.821  58.323 -55.810  1.00  0.00     0.135 C 
HETATM    5  C   UNL     1     -41.952  58.989 -54.758  1.00  0.00     0.130 C 
HETATM    6  C   UNL     1     -41.377  57.826 -53.988  1.00  0.00     0.238 C 
HETATM    7  O   UNL     1     -40.593  57.986 -53.068  1.00  0.00    -0.272 OA
HETATM    8  C   UNL     1     -44.261  58.552 -55.385  1.00  0.00     0.298 C 
HETATM    9  N   UNL     1     -44.182  59.951 -54.753  1.00  0.00    -0.028 N 
HETATM   10  H   UNL     1     -44.156  60.636 -55.522  1.00  0.00     0.287 HD
HETATM   11  C   UNL     1     -42.808  60.061 -54.055  1.00  0.00     0.242 C 
HETATM   12  C   UNL     1     -45.342  60.250 -53.965  1.00  0.00     0.203 C 
HETATM   13  C   UNL     1     -45.273  60.406 -52.641  1.00  0.00     0.037 C 
HETATM   14  C   UNL     1     -44.031  60.330 -51.882  1.00  0.00    -0.026 A 
HETATM   15  C   UNL     1     -42.815  60.196 -52.560  1.00  0.00    -0.016 A 
HETATM   16  C   UNL     1     -44.058  60.455 -50.487  1.00  0.00     0.012 A 
HETATM   17  C   UNL     1     -42.870  60.484 -49.761  1.00  0.00     0.001 A 
HETATM   18  C   UNL     1     -41.654  60.426 -50.430  1.00  0.00     0.001 A 
HETATM   19  C   UNL     1     -41.627  60.308 -51.820  1.00  0.00     0.010 A 
ENDROOT
BRANCH   1  20
HETATM   20  C   UNL     1     -41.210  55.368 -54.228  1.00  0.00     0.045 A 
HETATM   21  C   UNL     1     -41.598  54.795 -53.006  1.00  0.00     0.031 A 
HETATM   22  C   UNL     1     -41.188  53.501 -52.644  1.00  0.00     0.017 A 
HETATM   23  C   UNL     1     -40.366  52.763 -53.494  1.00  0.00     0.009 A 
HETATM   24  C   UNL     1     -39.920  53.342 -54.683  1.00  0.00     0.017 A 
HETATM   25  C   UNL     1     -40.345  54.624 -55.047  1.00  0.00     0.031 A 
BRANCH  23  26
HETATM   26  C   UNL     1     -39.935  51.373 -53.190  1.00  0.00     0.155 C 
HETATM   27  C   UNL     1     -39.965  50.330 -54.277  1.00  0.00     0.096 C 
HETATM   28  O   UNL     1     -39.507  51.114 -52.067  1.00  0.00    -0.293 OA
ENDBRANCH  23  26
ENDBRANCH   1  20
BRANCH   8  29
HETATM   29  C   UNL     1     -44.799  57.442 -54.454  1.00  0.00     0.248 C 
HETATM   30  N   UNL     1     -45.701  56.574 -54.990  1.00  0.00    -0.368 N 
HETATM   31  H   UNL     1     -45.700  56.338 -55.979  1.00  0.00     0.159 HD
HETATM   32  H   UNL     1     -45.966  55.794 -54.389  1.00  0.00     0.159 HD
HETATM   33  O   UNL     1     -44.406  57.316 -53.300  1.00  0.00    -0.271 OA
ENDBRANCH   8  29
TORSDOF 3
ENDMDL
MODEL 3
REMARK VINA RESULT:      -8.1      2.148      4.248
REMARK  3 active torsions:
REMARK  status: ('A' for Active; 'I' for Inactive)
REMARK    1  A    between atoms: C_2  and  C_3 
REMARK    2  A    between atoms: C_6  and  N_7 
REMARK    3  A    between atoms: C_14  and  C_15 
REMARK       I    between atoms: C_15  and  N_16 
ROOT
HETATM    1  N   UNL     1     -42.230  56.263 -52.105  1.00  0.00    -0.252 N 
HETATM    2  C   UNL     1     -41.913  57.186 -51.142  1.00  0.00     0.238 C 
HETATM    3  O   UNL     1     -41.001  57.205 -50.327  1.00  0.00    -0.272 OA
HETATM    4  C   UNL     1     -42.786  58.389 -51.314  1.00  0.00     0.135 C 
HETATM    5  C   UNL     1     -43.851  57.963 -52.308  1.00  0.00     0.130 C 
HETATM    6  C   UNL     1     -43.330  56.653 -52.845  1.00  0.00     0.238 C 
HETATM    7  O   UNL     1     -43.954  55.995 -53.660  1.00  0.00    -0.272 OA
HETATM    8  C   UNL     1     -42.032  59.539 -51.959  1.00  0.00     0.298 C 
HETATM    9  N   UNL     1     -43.151  60.248 -52.738  1.00  0.00    -0.028 N 
HETATM   10  H   UNL     1     -43.694  60.803 -52.061  1.00  0.00     0.287 HD
HETATM   11  C   UNL     1     -44.118  59.156 -53.247  1.00  0.00     0.242 C 
HETATM   12  C   UNL     1     -42.631  61.165 -53.709  1.00  0.00     0.203 C 
HETATM   13  C   UNL     1     -42.790  60.968 -55.020  1.00  0.00     0.037 C 
HETATM   14  C   UNL     1     -43.529  59.847 -55.585  1.00  0.00    -0.026 A 
HETATM   15  C   UNL     1     -44.213  58.972 -54.734  1.00  0.00    -0.016 A 
HETATM   16  C   UNL     1     -43.604  59.690 -56.975  1.00  0.00     0.012 A 
HETATM   17  C   UNL     1     -44.389  58.681 -57.527  1.00  0.00     0.001 A 
HETATM   18  C   UNL     1     -45.130  57.853 -56.695  1.00  0.00     0.001 A 
HETATM   19  C   UNL     1     -45.061  58.013 -55.310  1.00  0.00     0.010 A 
ENDROOT
BRANCH   1  20
HETATM   20  C   UNL     1     -41.557  55.017 -52.289  1.00  0.00     0.045 A 
HETATM   21  C   UNL     1     -41.424  54.090 -51.243  1.00  0.00     0.031 A 
HETATM   22  C   UNL     1     -40.834  52.833 -51.451  1.00  0.00     0.017 A 
HETATM   23  C   UNL     1     -40.349  52.487 -52.712  1.00  0.00     0.009 A 
HETATM   24  C   UNL     1     -40.416  53.421 -53.747  1.00  0.00     0.017 A 
HETATM   25  C   UNL     1     -41.020  54.665 -53.538  1.00  0.00     0.031 A 
BRANCH  23  26
HETATM   26  C   UNL     1     -39.754  51.157 -53.008  1.00  0.00     0.155 C 
HETATM   27  C   UNL     1     -39.852  50.594 -54.402  1.00  0.00     0.096 C 
HETATM   28  O   UNL     1     -39.144  50.566 -52.121  1.00  0.00    -0.293 OA
ENDBRANCH  23  26
ENDBRANCH   1  20
BRANCH   8  29
HETATM   29  C   UNL     1     -40.834  59.070 -52.815  1.00  0.00     0.248 C 
HETATM   30  N   UNL     1     -39.596  59.194 -52.260  1.00  0.00    -0.368 N 
HETATM   31  H   UNL     1     -39.449  59.144 -51.255  1.00  0.00     0.159 HD
HETATM   32  H   UNL     1     -38.833  58.789 -52.801  1.00  0.00     0.159 HD
HETATM   33  O   UNL     1     -40.984  58.570 -53.923  1.00  0.00    -0.271 OA
ENDBRANCH   8  29
TORSDOF 3
ENDMDL
MODEL 4
REMARK VINA RESULT:      -8.0      2.936      7.652
REMARK  3 active torsions:
REMARK  status: ('A' for Active; 'I' for Inactive)
REMARK    1  A    between atoms: C_2  and  C_3 
REMARK    2  A    between atoms: C_6  and  N_7 
REMARK    3  A    between atoms: C_14  and  C_15 
REMARK       I    between atoms: C_15  and  N_16 
ROOT
HETATM    1  N   UNL     1     -44.343  58.764 -53.090  1.00  0.00    -0.252 N 
HETATM    2  C   UNL     1     -44.721  58.898 -54.402  1.00  0.00     0.238 C 
HETATM    3  O   UNL     1     -44.822  59.896 -55.101  1.00  0.00    -0.272 OA
HETATM    4  C   UNL     1     -44.846  57.540 -55.015  1.00  0.00     0.135 C 
HETATM    5  C   UNL     1     -44.779  56.573 -53.847  1.00  0.00     0.130 C 
HETATM    6  C   UNL     1     -44.326  57.439 -52.698  1.00  0.00     0.238 C 
HETATM    7  O   UNL     1     -44.189  56.995 -51.570  1.00  0.00    -0.272 OA
HETATM    8  C   UNL     1     -43.660  57.218 -55.908  1.00  0.00     0.298 C 
HETATM    9  N   UNL     1     -43.557  55.692 -55.751  1.00  0.00    -0.028 N 
HETATM   10  H   UNL     1     -44.290  55.272 -56.340  1.00  0.00     0.287 HD
HETATM   11  C   UNL     1     -43.951  55.353 -54.297  1.00  0.00     0.242 C 
HETATM   12  C   UNL     1     -42.300  55.189 -56.223  1.00  0.00     0.203 C 
HETATM   13  C   UNL     1     -41.407  54.639 -55.397  1.00  0.00     0.037 C 
HETATM   14  C   UNL     1     -41.630  54.461 -53.968  1.00  0.00    -0.026 A 
HETATM   15  C   UNL     1     -42.879  54.772 -53.420  1.00  0.00    -0.016 A 
HETATM   16  C   UNL     1     -40.617  53.921 -53.167  1.00  0.00     0.012 A 
HETATM   17  C   UNL     1     -40.853  53.653 -51.820  1.00  0.00     0.001 A 
HETATM   18  C   UNL     1     -42.111  53.889 -51.282  1.00  0.00     0.001 A 
HETATM   19  C   UNL     1     -43.123  54.422 -52.083  1.00  0.00     0.010 A 
ENDROOT
BRANCH   1  20
HETATM   20  C   UNL     1     -44.065  59.851 -52.208  1.00  0.00     0.045 A 
HETATM   21  C   UNL     1     -42.751  60.184 -51.840  1.00  0.00     0.031 A 
HETATM   22  C   UNL     1     -42.478  61.303 -51.038  1.00  0.00     0.017 A 
HETATM   23  C   UNL     1     -43.521  62.104 -50.574  1.00  0.00     0.009 A 
HETATM   24  C   UNL     1     -44.837  61.751 -50.877  1.00  0.00     0.017 A 
HETATM   25  C   UNL     1     -45.102  60.644 -51.691  1.00  0.00     0.031 A 
BRANCH  23  26
HETATM   26  C   UNL     1     -43.296  63.327 -49.759  1.00  0.00     0.155 C 
HETATM   27  C   UNL     1     -44.260  63.670 -48.653  1.00  0.00     0.096 C 
HETATM   28  O   UNL     1     -42.294  64.006 -49.968  1.00  0.00    -0.293 OA
ENDBRANCH  23  26
ENDBRANCH   1  20
BRANCH   8  29
HETATM   29  C   UNL     1     -42.386  58.003 -55.525  1.00  0.00     0.248 C 
HETATM   30  N   UNL     1     -42.050  59.057 -56.320  1.00  0.00    -0.368 N 
HETATM   31  H   UNL     1     -42.752  59.598 -56.821  1.00  0.00     0.159 HD
HETATM   32  H   UNL     1     -41.266  59.618 -55.992  1.00  0.00     0.159 HD
HETATM   33  O   UNL     1     -41.726  57.725 -54.530  1.00  0.00    -0.271 OA
ENDBRANCH   8  29
TORSDOF 3
ENDMDL
MODEL 5
REMARK VINA RESULT:      -7.9      2.566      7.193
REMARK  3 active torsions:
REMARK  status: ('A' for Active; 'I' for Inactive)
REMARK    1  A    between atoms: C_2  and  C_3 
REMARK    2  A    between atoms: C_6  and  N_7 
REMARK    3  A    between atoms: C_14  and  C_15 
REMARK       I    between atoms: C_15  and  N_16 
ROOT
HETATM    1  N   UNL     1     -43.765  57.293 -53.115  1.00  0.00    -0.252 N 
HETATM    2  C   UNL     1     -44.058  56.626 -54.278  1.00  0.00     0.238 C 
HETATM    3  O   UNL     1     -44.233  57.047 -55.413  1.00  0.00    -0.272 OA
HETATM    4  C   UNL     1     -43.964  55.154 -54.032  1.00  0.00     0.135 C 
HETATM    5  C   UNL     1     -43.861  55.012 -52.524  1.00  0.00     0.130 C 
HETATM    6  C   UNL     1     -43.608  56.423 -52.054  1.00  0.00     0.238 C 
HETATM    7  O   UNL     1     -43.500  56.699 -50.870  1.00  0.00    -0.272 OA
HETATM    8  C   UNL     1     -42.683  54.572 -54.606  1.00  0.00     0.298 C 
HETATM    9  N   UNL     1     -42.399  53.420 -53.630  1.00  0.00    -0.028 N 
HETATM   10  H   UNL     1     -43.026  52.642 -53.880  1.00  0.00     0.287 HD
HETATM   11  C   UNL     1     -42.853  53.883 -52.229  1.00  0.00     0.242 C 
HETATM   12  C   UNL     1     -41.056  52.931 -53.755  1.00  0.00     0.203 C 
HETATM   13  C   UNL     1     -40.164  53.066 -52.771  1.00  0.00     0.037 C 
HETATM   14  C   UNL     1     -40.468  53.672 -51.481  1.00  0.00    -0.026 A 
HETATM   15  C   UNL     1     -41.784  54.046 -51.187  1.00  0.00    -0.016 A 
HETATM   16  C   UNL     1     -39.457  53.819 -50.524  1.00  0.00     0.012 A 
HETATM   17  C   UNL     1     -39.756  54.305 -49.253  1.00  0.00     0.001 A 
HETATM   18  C   UNL     1     -41.071  54.610 -48.926  1.00  0.00     0.001 A 
HETATM   19  C   UNL     1     -42.080  54.459 -49.878  1.00  0.00     0.010 A 
ENDROOT
BRANCH   1  20
HETATM   20  C   UNL     1     -43.693  58.713 -52.988  1.00  0.00     0.045 A 
HETATM   21  C   UNL     1     -44.828  59.484 -52.685  1.00  0.00     0.031 A 
HETATM   22  C   UNL     1     -44.736  60.870 -52.481  1.00  0.00     0.017 A 
HETATM   23  C   UNL     1     -43.505  61.515 -52.596  1.00  0.00     0.009 A 
HETATM   24  C   UNL     1     -42.379  60.774 -52.960  1.00  0.00     0.017 A 
HETATM   25  C   UNL     1     -42.473  59.391 -53.145  1.00  0.00     0.031 A 
BRANCH  23  26
HETATM   26  C   UNL     1     -43.333  62.971 -52.349  1.00  0.00     0.155 C 
HETATM   27  C   UNL     1     -43.126  63.466 -50.941  1.00  0.00     0.096 C 
HETATM   28  O   UNL     1     -43.306  63.739 -53.308  1.00  0.00    -0.293 OA
ENDBRANCH  23  26
ENDBRANCH   1  20
BRANCH   8  29
HETATM   29  C   UNL     1     -41.551  55.616 -54.736  1.00  0.00     0.248 C 
HETATM   30  N   UNL     1     -41.310  56.111 -55.982  1.00  0.00    -0.368 N 
HETATM   31  H   UNL     1     -42.044  56.187 -56.682  1.00  0.00     0.159 HD
HETATM   32  H   UNL     1     -40.629  56.868 -56.026  1.00  0.00     0.159 HD
HETATM   33  O   UNL     1     -40.924  56.018 -53.762  1.00  0.00    -0.271 OA
ENDBRANCH   8  29
TORSDOF 3
ENDMDL
MODEL 6
REMARK VINA RESULT:      -7.9      3.156      5.132
REMARK  3 active torsions:
REMARK  status: ('A' for Active; 'I' for Inactive)
REMARK    1  A    between atoms: C_2  and  C_3 
REMARK    2  A    between atoms: C_6  and  N_7 
REMARK    3  A    between atoms: C_14  and  C_15 
REMARK       I    between atoms: C_15  and  N_16 
ROOT
HETATM    1  N   UNL     1     -43.504  56.568 -53.670  1.00  0.00    -0.252 N 
HETATM    2  C   UNL     1     -44.006  57.713 -53.106  1.00  0.00     0.238 C 
HETATM    3  O   UNL     1     -43.840  58.190 -51.993  1.00  0.00    -0.272 OA
HETATM    4  C   UNL     1     -44.721  58.501 -54.158  1.00  0.00     0.135 C 
HETATM    5  C   UNL     1     -44.833  57.563 -55.346  1.00  0.00     0.130 C 
HETATM    6  C   UNL     1     -43.917  56.421 -54.981  1.00  0.00     0.238 C 
HETATM    7  O   UNL     1     -43.778  55.448 -55.704  1.00  0.00    -0.272 OA
HETATM    8  C   UNL     1     -43.895  59.688 -54.625  1.00  0.00     0.298 C 
HETATM    9  N   UNL     1     -44.340  59.821 -56.090  1.00  0.00    -0.028 N 
HETATM   10  H   UNL     1     -45.260  60.285 -56.091  1.00  0.00     0.287 HD
HETATM   11  C   UNL     1     -44.597  58.394 -56.622  1.00  0.00     0.242 C 
HETATM   12  C   UNL     1     -43.450  60.651 -56.847  1.00  0.00     0.203 C 
HETATM   13  C   UNL     1     -42.706  60.162 -57.841  1.00  0.00     0.037 C 
HETATM   14  C   UNL     1     -42.751  58.773 -58.277  1.00  0.00    -0.026 A 
HETATM   15  C   UNL     1     -43.692  57.903 -57.716  1.00  0.00    -0.016 A 
HETATM   16  C   UNL     1     -41.896  58.333 -59.296  1.00  0.00     0.012 A 
HETATM   17  C   UNL     1     -42.000  57.034 -59.788  1.00  0.00     0.001 A 
HETATM   18  C   UNL     1     -42.980  56.185 -59.290  1.00  0.00     0.001 A 
HETATM   19  C   UNL     1     -43.835  56.625 -58.279  1.00  0.00     0.010 A 
ENDROOT
BRANCH   1  20
HETATM   20  C   UNL     1     -42.707  55.604 -52.981  1.00  0.00     0.045 A 
HETATM   21  C   UNL     1     -43.234  54.821 -51.941  1.00  0.00     0.031 A 
HETATM   22  C   UNL     1     -42.470  53.819 -51.322  1.00  0.00     0.017 A 
HETATM   23  C   UNL     1     -41.154  53.593 -51.724  1.00  0.00     0.009 A 
HETATM   24  C   UNL     1     -40.595  54.404 -52.712  1.00  0.00     0.017 A 
HETATM   25  C   UNL     1     -41.366  55.390 -53.337  1.00  0.00     0.031 A 
BRANCH  23  26
HETATM   26  C   UNL     1     -40.307  52.519 -51.140  1.00  0.00     0.155 C 
HETATM   27  C   UNL     1     -39.382  51.734 -52.034  1.00  0.00     0.096 C 
HETATM   28  O   UNL     1     -40.338  52.329 -49.927  1.00  0.00    -0.293 OA
ENDBRANCH  23  26
ENDBRANCH   1  20
BRANCH   8  29
HETATM   29  C   UNL     1     -42.377  59.485 -54.417  1.00  0.00     0.248 C 
HETATM   30  N   UNL     1     -41.795  60.185 -53.404  1.00  0.00    -0.368 N 
HETATM   31  H   UNL     1     -42.310  60.448 -52.567  1.00  0.00     0.159 HD
HETATM   32  H   UNL     1     -40.818  59.961 -53.224  1.00  0.00     0.159 HD
HETATM   33  O   UNL     1     -41.727  58.701 -55.099  1.00  0.00    -0.271 OA
ENDBRANCH   8  29
TORSDOF 3
ENDMDL
MODEL 7
REMARK VINA RESULT:      -7.9      3.523      6.398
REMARK  3 active torsions:
REMARK  status: ('A' for Active; 'I' for Inactive)
REMARK    1  A    between atoms: C_2  and  C_3 
REMARK    2  A    between atoms: C_6  and  N_7 
REMARK    3  A    between atoms: C_14  and  C_15 
REMARK       I    between atoms: C_15  and  N_16 
ROOT
HETATM    1  N   UNL     1     -43.452  56.875 -55.655  1.00  0.00    -0.252 N 
HETATM    2  C   UNL     1     -43.246  55.526 -55.517  1.00  0.00     0.238 C 
HETATM    3  O   UNL     1     -42.839  54.698 -56.319  1.00  0.00    -0.272 OA
HETATM    4  C   UNL     1     -43.425  55.150 -54.081  1.00  0.00     0.135 C 
HETATM    5  C   UNL     1     -44.038  56.375 -53.426  1.00  0.00     0.130 C 
HETATM    6  C   UNL     1     -43.887  57.448 -54.475  1.00  0.00     0.238 C 
HETATM    7  O   UNL     1     -44.306  58.581 -54.305  1.00  0.00    -0.272 OA
HETATM    8  C   UNL     1     -42.089  54.920 -53.393  1.00  0.00     0.298 C 
HETATM    9  N   UNL     1     -42.402  55.353 -51.952  1.00  0.00    -0.028 N 
HETATM   10  H   UNL     1     -42.920  54.583 -51.504  1.00  0.00     0.287 HD
HETATM   11  C   UNL     1     -43.397  56.531 -52.033  1.00  0.00     0.242 C 
HETATM   12  C   UNL     1     -41.209  55.556 -51.183  1.00  0.00     0.203 C 
HETATM   13  C   UNL     1     -40.857  56.763 -50.735  1.00  0.00     0.037 C 
HETATM   14  C   UNL     1     -41.654  57.966 -50.940  1.00  0.00    -0.026 A 
HETATM   15  C   UNL     1     -42.913  57.865 -51.542  1.00  0.00    -0.016 A 
HETATM   16  C   UNL     1     -41.185  59.202 -50.479  1.00  0.00     0.012 A 
HETATM   17  C   UNL     1     -41.981  60.340 -50.581  1.00  0.00     0.001 A 
HETATM   18  C   UNL     1     -43.262  60.238 -51.109  1.00  0.00     0.001 A 
HETATM   19  C   UNL     1     -43.732  59.005 -51.564  1.00  0.00     0.010 A 
ENDROOT
BRANCH   1  20
HETATM   20  C   UNL     1     -43.303  57.600 -56.876  1.00  0.00     0.045 A 
HETATM   21  C   UNL     1     -42.140  58.334 -57.160  1.00  0.00     0.031 A 
HETATM   22  C   UNL     1     -41.966  58.977 -58.396  1.00  0.00     0.017 A 
HETATM   23  C   UNL     1     -42.965  58.911 -59.367  1.00  0.00     0.009 A 
HETATM   24  C   UNL     1     -44.153  58.240 -59.077  1.00  0.00     0.017 A 
HETATM   25  C   UNL     1     -44.314  57.586 -57.850  1.00  0.00     0.031 A 
BRANCH  23  26
HETATM   26  C   UNL     1     -42.824  59.532 -60.711  1.00  0.00     0.155 C 
HETATM   27  C   UNL     1     -44.023  60.168 -61.365  1.00  0.00     0.096 C 
HETATM   28  O   UNL     1     -41.714  59.565 -61.238  1.00  0.00    -0.293 OA
ENDBRANCH  23  26
ENDBRANCH   1  20
BRANCH   8  29
HETATM   29  C   UNL     1     -40.925  55.679 -54.068  1.00  0.00     0.248 C 
HETATM   30  N   UNL     1     -40.109  54.955 -54.883  1.00  0.00    -0.368 N 
HETATM   31  H   UNL     1     -40.444  54.142 -55.396  1.00  0.00     0.159 HD
HETATM   32  H   UNL     1     -39.411  55.495 -55.393  1.00  0.00     0.159 HD
HETATM   33  O   UNL     1     -40.761  56.884 -53.916  1.00  0.00    -0.271 OA
ENDBRANCH   8  29
TORSDOF 3
ENDMDL
MODEL 8
REMARK VINA RESULT:      -7.9      3.341      5.586
REMARK  3 active torsions:
REMARK  status: ('A' for Active; 'I' for Inactive)
REMARK    1  A    between atoms: C_2  and  C_3 
REMARK    2  A    between atoms: C_6  and  N_7 
REMARK    3  A    between atoms: C_14  and  C_15 
REMARK       I    between atoms: C_15  and  N_16 
ROOT
HETATM    1  N   UNL     1     -42.894  56.877 -53.996  1.00  0.00    -0.252 N 
HETATM    2  C   UNL     1     -41.929  56.499 -53.098  1.00  0.00     0.238 C 
HETATM    3  O   UNL     1     -40.848  55.955 -53.276  1.00  0.00    -0.272 OA
HETATM    4  C   UNL     1     -42.286  57.028 -51.746  1.00  0.00     0.135 C 
HETATM    5  C   UNL     1     -43.715  57.521 -51.881  1.00  0.00     0.130 C 
HETATM    6  C   UNL     1     -43.955  57.504 -53.370  1.00  0.00     0.238 C 
HETATM    7  O   UNL     1     -45.030  57.815 -53.855  1.00  0.00    -0.272 OA
HETATM    8  C   UNL     1     -41.447  58.241 -51.380  1.00  0.00     0.298 C 
HETATM    9  N   UNL     1     -42.419  59.039 -50.498  1.00  0.00    -0.028 N 
HETATM   10  H   UNL     1     -42.429  58.595 -49.569  1.00  0.00     0.287 HD
HETATM   11  C   UNL     1     -43.838  58.828 -51.072  1.00  0.00     0.242 C 
HETATM   12  C   UNL     1     -41.985  60.393 -50.310  1.00  0.00     0.203 C 
HETATM   13  C   UNL     1     -42.670  61.427 -50.802  1.00  0.00     0.037 C 
HETATM   14  C   UNL     1     -43.926  61.293 -51.528  1.00  0.00    -0.026 A 
HETATM   15  C   UNL     1     -44.527  60.035 -51.640  1.00  0.00    -0.016 A 
HETATM   16  C   UNL     1     -44.552  62.430 -52.054  1.00  0.00     0.012 A 
HETATM   17  C   UNL     1     -45.801  62.326 -52.663  1.00  0.00     0.001 A 
HETATM   18  C   UNL     1     -46.441  61.094 -52.715  1.00  0.00     0.001 A 
HETATM   19  C   UNL     1     -45.819  59.963 -52.186  1.00  0.00     0.010 A 
ENDROOT
BRANCH   1  20
HETATM   20  C   UNL     1     -42.853  56.605 -55.397  1.00  0.00     0.045 A 
HETATM   21  C   UNL     1     -43.064  55.312 -55.903  1.00  0.00     0.031 A 
HETATM   22  C   UNL     1     -43.103  55.066 -57.285  1.00  0.00     0.017 A 
HETATM   23  C   UNL     1     -42.914  56.112 -58.188  1.00  0.00     0.009 A 
HETATM   24  C   UNL     1     -42.641  57.391 -57.702  1.00  0.00     0.017 A 
HETATM   25  C   UNL     1     -42.620  57.634 -56.325  1.00  0.00     0.031 A 
BRANCH  23  26
HETATM   26  C   UNL     1     -42.989  55.925 -59.662  1.00  0.00     0.155 C 
HETATM   27  C   UNL     1     -44.162  55.194 -60.259  1.00  0.00     0.096 C 
HETATM   28  O   UNL     1     -42.116  56.422 -60.370  1.00  0.00    -0.293 OA
ENDBRANCH  23  26
ENDBRANCH   1  20
BRANCH   8  29
HETATM   29  C   UNL     1     -40.910  58.998 -52.616  1.00  0.00     0.248 C 
HETATM   30  N   UNL     1     -39.592  58.831 -52.915  1.00  0.00    -0.368 N 
HETATM   31  H   UNL     1     -39.093  57.974 -52.689  1.00  0.00     0.159 HD
HETATM   32  H   UNL     1     -39.285  59.259 -53.787  1.00  0.00     0.159 HD
HETATM   33  O   UNL     1     -41.638  59.683 -53.324  1.00  0.00    -0.271 OA
ENDBRANCH   8  29
TORSDOF 3
ENDMDL
MODEL 9
REMARK VINA RESULT:      -7.8      2.976      4.689
REMARK  3 active torsions:
REMARK  status: ('A' for Active; 'I' for Inactive)
REMARK    1  A    between atoms: C_2  and  C_3 
REMARK    2  A    between atoms: C_6  and  N_7 
REMARK    3  A    between atoms: C_14  and  C_15 
REMARK       I    between atoms: C_15  and  N_16 
ROOT
HETATM    1  N   UNL     1     -43.057  56.423 -54.030  1.00  0.00    -0.252 N 
HETATM    2  C   UNL     1     -43.483  57.305 -53.070  1.00  0.00     0.238 C 
HETATM    3  O   UNL     1     -43.211  57.376 -51.879  1.00  0.00    -0.272 OA
HETATM    4  C   UNL     1     -44.264  58.399 -53.725  1.00  0.00     0.135 C 
HETATM    5  C   UNL     1     -44.498  57.919 -55.146  1.00  0.00     0.130 C 
HETATM    6  C   UNL     1     -43.582  56.728 -55.271  1.00  0.00     0.238 C 
HETATM    7  O   UNL     1     -43.527  56.059 -56.290  1.00  0.00    -0.272 OA
HETATM    8  C   UNL     1     -43.453  59.679 -53.832  1.00  0.00     0.298 C 
HETATM    9  N   UNL     1     -44.017  60.299 -55.120  1.00  0.00    -0.028 N 
HETATM   10  H   UNL     1     -44.922  60.731 -54.884  1.00  0.00     0.287 HD
HETATM   11  C   UNL     1     -44.352  59.136 -56.081  1.00  0.00     0.242 C 
HETATM   12  C   UNL     1     -43.175  61.343 -55.626  1.00  0.00     0.203 C 
HETATM   13  C   UNL     1     -42.528  61.226 -56.788  1.00  0.00     0.037 C 
HETATM   14  C   UNL     1     -42.643  60.067 -57.663  1.00  0.00    -0.026 A 
HETATM   15  C   UNL     1     -43.554  59.053 -57.350  1.00  0.00    -0.016 A 
HETATM   16  C   UNL     1     -41.888  60.005 -58.842  1.00  0.00     0.012 A 
HETATM   17  C   UNL     1     -42.063  58.950 -59.734  1.00  0.00     0.001 A 
HETATM   18  C   UNL     1     -43.018  57.977 -59.470  1.00  0.00     0.001 A 
HETATM   19  C   UNL     1     -43.774  58.041 -58.299  1.00  0.00     0.010 A 
ENDROOT
BRANCH   1  20
HETATM   20  C   UNL     1     -42.228  55.287 -53.781  1.00  0.00     0.045 A 
HETATM   21  C   UNL     1     -42.501  54.392 -52.734  1.00  0.00     0.031 A 
HETATM   22  C   UNL     1     -41.730  53.233 -52.545  1.00  0.00     0.017 A 
HETATM   23  C   UNL     1     -40.657  52.959 -53.393  1.00  0.00     0.009 A 
HETATM   24  C   UNL     1     -40.334  53.871 -54.399  1.00  0.00     0.017 A 
HETATM   25  C   UNL     1     -41.115  55.015 -54.594  1.00  0.00     0.031 A 
BRANCH  23  26
HETATM   26  C   UNL     1     -39.831  51.728 -53.274  1.00  0.00     0.155 C 
HETATM   27  C   UNL     1     -39.891  50.686 -54.360  1.00  0.00     0.096 C 
HETATM   28  O   UNL     1     -39.071  51.611 -52.316  1.00  0.00    -0.293 OA
ENDBRANCH  23  26
ENDBRANCH   1  20
BRANCH   8  29
HETATM   29  C   UNL     1     -41.928  59.427 -53.839  1.00  0.00     0.248 C 
HETATM   30  N   UNL     1     -41.261  59.655 -52.673  1.00  0.00    -0.368 N 
HETATM   31  H   UNL     1     -41.709  59.542 -51.767  1.00  0.00     0.159 HD
HETATM   32  H   UNL     1     -40.278  59.388 -52.674  1.00  0.00     0.159 HD
HETATM   33  O   UNL     1     -41.344  59.002 -54.830  1.00  0.00    -0.271 OA
ENDBRANCH   8  29
TORSDOF 3
ENDMDL
MODEL 10
REMARK VINA RESULT:      -7.8      3.538      6.870
REMARK  3 active torsions:
REMARK  status: ('A' for Active; 'I' for Inactive)
REMARK    1  A    between atoms: C_2  and  C_3 
REMARK    2  A    between atoms: C_6  and  N_7 
REMARK    3  A    between atoms: C_14  and  C_15 
REMARK       I    between atoms: C_15  and  N_16 
ROOT
HETATM    1  N   UNL     1     -43.396  58.610 -55.189  1.00  0.00    -0.252 N 
HETATM    2  C   UNL     1     -43.497  59.374 -54.055  1.00  0.00     0.238 C 
HETATM    3  O   UNL     1     -44.373  60.148 -53.692  1.00  0.00    -0.272 OA
HETATM    4  C   UNL     1     -42.395  59.000 -53.116  1.00  0.00     0.135 C 
HETATM    5  C   UNL     1     -41.458  58.131 -53.934  1.00  0.00     0.130 C 
HETATM    6  C   UNL     1     -42.251  57.838 -55.184  1.00  0.00     0.238 C 
HETATM    7  O   UNL     1     -41.791  57.177 -56.100  1.00  0.00    -0.272 OA
HETATM    8  C   UNL     1     -42.901  58.131 -51.977  1.00  0.00     0.298 C 
HETATM    9  N   UNL     1     -41.670  57.261 -51.677  1.00  0.00    -0.028 N 
HETATM   10  H   UNL     1     -41.013  57.834 -51.130  1.00  0.00     0.287 HD
HETATM   11  C   UNL     1     -40.962  56.991 -53.023  1.00  0.00     0.242 C 
HETATM   12  C   UNL     1     -42.003  56.122 -50.873  1.00  0.00     0.203 C 
HETATM   13  C   UNL     1     -41.909  54.876 -51.343  1.00  0.00     0.037 C 
HETATM   14  C   UNL     1     -41.429  54.551 -52.680  1.00  0.00    -0.026 A 
HETATM   15  C   UNL     1     -40.931  55.568 -53.501  1.00  0.00    -0.016 A 
HETATM   16  C   UNL     1     -41.412  53.218 -53.109  1.00  0.00     0.012 A 
HETATM   17  C   UNL     1     -40.864  52.885 -54.346  1.00  0.00     0.001 A 
HETATM   18  C   UNL     1     -40.299  53.876 -55.138  1.00  0.00     0.001 A 
HETATM   19  C   UNL     1     -40.312  55.204 -54.708  1.00  0.00     0.010 A 
ENDROOT
BRANCH   1  20
HETATM   20  C   UNL     1     -44.318  58.648 -56.279  1.00  0.00     0.045 A 
HETATM   21  C   UNL     1     -43.965  59.197 -57.523  1.00  0.00     0.031 A 
HETATM   22  C   UNL     1     -44.847  59.157 -58.615  1.00  0.00     0.017 A 
HETATM   23  C   UNL     1     -46.110  58.581 -58.476  1.00  0.00     0.009 A 
HETATM   24  C   UNL     1     -46.499  58.088 -57.230  1.00  0.00     0.017 A 
HETATM   25  C   UNL     1     -45.610  58.114 -56.150  1.00  0.00     0.031 A 
BRANCH  23  26
HETATM   26  C   UNL     1     -47.072  58.468 -59.604  1.00  0.00     0.155 C 
HETATM   27  C   UNL     1     -47.141  57.187 -60.395  1.00  0.00     0.096 C 
HETATM   28  O   UNL     1     -47.833  59.404 -59.834  1.00  0.00    -0.293 OA
ENDBRANCH  23  26
ENDBRANCH   1  20
BRANCH   8  29
HETATM   29  C   UNL     1     -44.184  57.350 -52.339  1.00  0.00     0.248 C 
HETATM   30  N   UNL     1     -45.327  57.711 -51.691  1.00  0.00    -0.368 N 
HETATM   31  H   UNL     1     -45.483  58.661 -51.364  1.00  0.00     0.159 HD
HETATM   32  H   UNL     1     -46.176  57.250 -52.017  1.00  0.00     0.159 HD
HETATM   33  O   UNL     1     -44.192  56.475 -53.197  1.00  0.00    -0.271 OA
ENDBRANCH   8  29
TORSDOF 3
ENDMDL
