MODEL 1
REMARK VINA RESULT:      -9.9      0.000      0.000
REMARK  4 active torsions:
REMARK  status: ('A' for Active; 'I' for Inactive)
REMARK    1  A    between atoms: C_5  and  N_6 
REMARK       I    between atoms: N_6  and  C_7 
REMARK    2  A    between atoms: C_7  and  C_8 
REMARK    3  A    between atoms: C_12  and  C_13 
REMARK    4  A    between atoms: N_24  and  C_25 
ROOT
HETATM    1  N   UNL     1     -43.332  57.099 -56.063  1.00  0.00    -0.348 N 
HETATM    2  C   UNL     1     -42.940  57.006 -54.752  1.00  0.00     0.257 C 
HETATM    3  O   UNL     1     -43.082  57.934 -53.958  1.00  0.00    -0.267 OA
HETATM    4  H   UNL     1     -43.236  56.285 -56.670  1.00  0.00     0.163 HD
ENDROOT
BRANCH   1   5
HETATM    5  C   UNL     1     -43.967  58.296 -56.570  1.00  0.00     0.122 C 
HETATM    6  C   UNL     1     -45.039  58.003 -57.645  1.00  0.00     0.039 C 
HETATM    7  C   UNL     1     -44.493  57.803 -59.091  1.00  0.00    -0.040 C 
HETATM    8  C   UNL     1     -45.697  57.679 -60.048  1.00  0.00     0.015 C 
HETATM    9  C   UNL     1     -43.675  56.499 -59.200  1.00  0.00     0.015 C 
HETATM   10  C   UNL     1     -43.616  59.011 -59.549  1.00  0.00     0.069 C 
HETATM   11  C   UNL     1     -42.754  59.531 -58.444  1.00  0.00     0.047 A 
HETATM   12  C   UNL     1     -42.929  59.215 -57.106  1.00  0.00     0.008 A 
HETATM   13  N   UNL     1     -41.794  60.541 -58.494  1.00  0.00    -0.238 N 
HETATM   14  C   UNL     1     -42.012  60.016 -56.422  1.00  0.00     0.150 A 
HETATM   15  N   UNL     1     -41.341  60.824 -57.236  1.00  0.00    -0.179 NA
BRANCH  13  16
HETATM   16  C   UNL     1     -41.295  61.316 -59.587  1.00  0.00     0.058 A 
HETATM   17  C   UNL     1     -40.333  62.309 -59.321  1.00  0.00     0.031 A 
HETATM   18  C   UNL     1     -39.834  63.119 -60.344  1.00  0.00     0.002 A 
HETATM   19  C   UNL     1     -40.271  62.934 -61.651  1.00  0.00     0.000 A 
HETATM   20  C   UNL     1     -41.200  61.937 -61.935  1.00  0.00     0.002 A 
HETATM   21  C   UNL     1     -41.712  61.132 -60.909  1.00  0.00     0.031 A 
ENDBRANCH  13  16
ENDBRANCH   1   5
BRANCH   2  22
HETATM   22  C   UNL     1     -42.314  55.720 -54.334  1.00  0.00     0.100 A 
HETATM   23  C   UNL     1     -42.667  54.976 -53.087  1.00  0.00     0.261 A 
HETATM   24  O   UNL     1     -43.511  55.391 -52.297  1.00  0.00    -0.267 OA
HETATM   25  N   UNL     1     -41.995  53.794 -52.866  1.00  0.00    -0.322 N 
HETATM   26  C   UNL     1     -41.047  53.276 -53.713  1.00  0.00     0.045 A 
HETATM   27  H   UNL     1     -42.243  53.285 -52.025  1.00  0.00     0.169 HD
HETATM   28  C   UNL     1     -40.719  53.940 -54.830  1.00  0.00     0.031 A 
HETATM   29  C   UNL     1     -41.371  55.193 -55.139  1.00  0.00     0.025 A 
BRANCH  26  30
HETATM   30  C   UNL     1     -40.410  52.002 -53.370  1.00  0.00    -0.009 A 
HETATM   31  C   UNL     1     -40.275  50.997 -54.336  1.00  0.00     0.013 A 
HETATM   32  C   UNL     1     -39.701  49.770 -54.001  1.00  0.00     0.001 A 
HETATM   33  C   UNL     1     -39.256  49.540 -52.699  1.00  0.00     0.000 A 
HETATM   34  C   UNL     1     -39.384  50.536 -51.732  1.00  0.00     0.001 A 
HETATM   35  C   UNL     1     -39.961  51.763 -52.066  1.00  0.00     0.013 A 
ENDBRANCH  26  30
ENDBRANCH   2  22
TORSDOF 4
ENDMDL
MODEL 2
REMARK VINA RESULT:      -9.7      7.501     10.049
REMARK  4 active torsions:
REMARK  status: ('A' for Active; 'I' for Inactive)
REMARK    1  A    between atoms: C_5  and  N_6 
REMARK       I    between atoms: N_6  and  C_7 
REMARK    2  A    between atoms: C_7  and  C_8 
REMARK    3  A    between atoms: C_12  and  C_13 
REMARK    4  A    between atoms: N_24  and  C_25 
ROOT
HETATM    1  N   UNL     1     -45.012  59.806 -50.245  1.00  0.00    -0.348 N 
HETATM    2  C   UNL     1     -45.192  59.385 -51.537  1.00  0.00     0.257 C 
HETATM    3  O   UNL     1     -46.030  59.892 -52.281  1.00  0.00    -0.267 OA
HETATM    4  H   UNL     1     -44.271  59.385 -49.684  1.00  0.00     0.163 HD
ENDROOT
BRANCH   1   5
HETATM    5  C   UNL     1     -45.786  60.899 -49.701  1.00  0.00     0.122 C 
HETATM    6  C   UNL     1     -45.455  62.260 -50.355  1.00  0.00     0.039 C 
HETATM    7  C   UNL     1     -44.206  62.990 -49.775  1.00  0.00    -0.040 C 
HETATM    8  C   UNL     1     -44.116  64.386 -50.427  1.00  0.00     0.015 C 
HETATM    9  C   UNL     1     -42.908  62.231 -50.120  1.00  0.00     0.015 C 
HETATM   10  C   UNL     1     -44.310  63.171 -48.227  1.00  0.00     0.069 C 
HETATM   11  C   UNL     1     -44.906  61.973 -47.560  1.00  0.00     0.047 A 
HETATM   12  C   UNL     1     -45.581  60.964 -48.230  1.00  0.00     0.008 A 
HETATM   13  N   UNL     1     -45.087  61.738 -46.198  1.00  0.00    -0.238 N 
HETATM   14  C   UNL     1     -46.083  60.135 -47.225  1.00  0.00     0.150 A 
HETATM   15  N   UNL     1     -45.811  60.594 -46.008  1.00  0.00    -0.179 NA
BRANCH  13  16
HETATM   16  C   UNL     1     -44.707  62.501 -45.050  1.00  0.00     0.058 A 
HETATM   17  C   UNL     1     -43.917  61.879 -44.063  1.00  0.00     0.031 A 
HETATM   18  C   UNL     1     -43.543  62.565 -42.905  1.00  0.00     0.002 A 
HETATM   19  C   UNL     1     -43.932  63.888 -42.725  1.00  0.00     0.000 A 
HETATM   20  C   UNL     1     -44.689  64.525 -43.705  1.00  0.00     0.002 A 
HETATM   21  C   UNL     1     -45.076  63.836 -44.861  1.00  0.00     0.031 A 
ENDBRANCH  13  16
ENDBRANCH   1   5
BRANCH   2  22
HETATM   22  C   UNL     1     -44.327  58.263 -51.999  1.00  0.00     0.100 A 
HETATM   23  C   UNL     1     -44.292  56.908 -51.367  1.00  0.00     0.261 A 
HETATM   24  O   UNL     1     -44.984  56.626 -50.392  1.00  0.00    -0.267 OA
HETATM   25  N   UNL     1     -43.440  55.987 -51.935  1.00  0.00    -0.322 N 
HETATM   26  C   UNL     1     -42.646  56.241 -53.026  1.00  0.00     0.045 A 
HETATM   27  H   UNL     1     -43.424  55.067 -51.512  1.00  0.00     0.169 HD
HETATM   28  C   UNL     1     -42.665  57.456 -53.594  1.00  0.00     0.031 A 
HETATM   29  C   UNL     1     -43.527  58.486 -53.060  1.00  0.00     0.025 A 
BRANCH  26  30
HETATM   30  C   UNL     1     -41.788  55.172 -53.544  1.00  0.00    -0.009 A 
HETATM   31  C   UNL     1     -41.767  53.919 -52.920  1.00  0.00     0.013 A 
HETATM   32  C   UNL     1     -40.923  52.912 -53.392  1.00  0.00     0.001 A 
HETATM   33  C   UNL     1     -40.097  53.151 -54.490  1.00  0.00     0.000 A 
HETATM   34  C   UNL     1     -40.115  54.395 -55.119  1.00  0.00     0.001 A 
HETATM   35  C   UNL     1     -40.957  55.404 -54.646  1.00  0.00     0.013 A 
ENDBRANCH  26  30
ENDBRANCH   2  22
TORSDOF 4
ENDMDL
MODEL 3
REMARK VINA RESULT:      -9.5      2.852      4.221
REMARK  4 active torsions:
REMARK  status: ('A' for Active; 'I' for Inactive)
REMARK    1  A    between atoms: C_5  and  N_6 
REMARK       I    between atoms: N_6  and  C_7 
REMARK    2  A    between atoms: C_7  and  C_8 
REMARK    3  A    between atoms: C_12  and  C_13 
REMARK    4  A    between atoms: N_24  and  C_25 
ROOT
HETATM    1  N   UNL     1     -42.128  56.926 -55.901  1.00  0.00    -0.348 N 
HETATM    2  C   UNL     1     -41.410  56.981 -54.734  1.00  0.00     0.257 C 
HETATM    3  O   UNL     1     -41.034  58.045 -54.244  1.00  0.00    -0.267 OA
HETATM    4  H   UNL     1     -42.456  56.022 -56.240  1.00  0.00     0.163 HD
ENDROOT
BRANCH   1   5
HETATM    5  C   UNL     1     -42.508  58.132 -56.601  1.00  0.00     0.122 C 
HETATM    6  C   UNL     1     -43.352  59.095 -55.734  1.00  0.00     0.039 C 
HETATM    7  C   UNL     1     -44.875  58.773 -55.673  1.00  0.00    -0.040 C 
HETATM    8  C   UNL     1     -45.579  59.910 -54.904  1.00  0.00     0.015 C 
HETATM    9  C   UNL     1     -45.134  57.461 -54.903  1.00  0.00     0.015 C 
HETATM   10  C   UNL     1     -45.503  58.675 -57.099  1.00  0.00     0.069 C 
HETATM   11  C   UNL     1     -44.590  57.997 -58.070  1.00  0.00     0.047 A 
HETATM   12  C   UNL     1     -43.241  57.771 -57.843  1.00  0.00     0.008 A 
HETATM   13  N   UNL     1     -44.832  57.665 -59.402  1.00  0.00    -0.238 N 
HETATM   14  C   UNL     1     -42.754  57.252 -59.044  1.00  0.00     0.150 A 
HETATM   15  N   UNL     1     -43.688  57.199 -59.988  1.00  0.00    -0.179 NA
BRANCH  13  16
HETATM   16  C   UNL     1     -46.006  57.792 -60.209  1.00  0.00     0.058 A 
HETATM   17  C   UNL     1     -46.652  56.618 -60.641  1.00  0.00     0.031 A 
HETATM   18  C   UNL     1     -47.784  56.680 -61.458  1.00  0.00     0.002 A 
HETATM   19  C   UNL     1     -48.300  57.914 -61.836  1.00  0.00     0.000 A 
HETATM   20  C   UNL     1     -47.689  59.084 -61.393  1.00  0.00     0.002 A 
HETATM   21  C   UNL     1     -46.547  59.025 -60.584  1.00  0.00     0.031 A 
ENDBRANCH  13  16
ENDBRANCH   1   5
BRANCH   2  22
HETATM   22  C   UNL     1     -41.089  55.677 -54.087  1.00  0.00     0.100 A 
HETATM   23  C   UNL     1     -41.272  55.390 -52.631  1.00  0.00     0.261 A 
HETATM   24  O   UNL     1     -41.700  56.234 -51.849  1.00  0.00    -0.267 OA
HETATM   25  N   UNL     1     -40.936  54.122 -52.208  1.00  0.00    -0.322 N 
HETATM   26  C   UNL     1     -40.459  53.135 -53.034  1.00  0.00     0.045 A 
HETATM   27  H   UNL     1     -41.071  53.925 -51.224  1.00  0.00     0.169 HD
HETATM   28  C   UNL     1     -40.284  53.387 -54.340  1.00  0.00     0.031 A 
HETATM   29  C   UNL     1     -40.607  54.692 -54.870  1.00  0.00     0.025 A 
BRANCH  26  30
HETATM   30  C   UNL     1     -40.146  51.823 -52.464  1.00  0.00    -0.009 A 
HETATM   31  C   UNL     1     -40.122  51.643 -51.076  1.00  0.00     0.013 A 
HETATM   32  C   UNL     1     -39.789  50.401 -50.533  1.00  0.00     0.001 A 
HETATM   33  C   UNL     1     -39.480  49.331 -51.373  1.00  0.00     0.000 A 
HETATM   34  C   UNL     1     -39.505  49.501 -52.757  1.00  0.00     0.001 A 
HETATM   35  C   UNL     1     -39.836  50.744 -53.301  1.00  0.00     0.013 A 
ENDBRANCH  26  30
ENDBRANCH   2  22
TORSDOF 4
ENDMDL
MODEL 4
REMARK VINA RESULT:      -9.5      1.799      9.929
REMARK  4 active torsions:
REMARK  status: ('A' for Active; 'I' for Inactive)
REMARK    1  A    between atoms: C_5  and  N_6 
REMARK       I    between atoms: N_6  and  C_7 
REMARK    2  A    between atoms: C_7  and  C_8 
REMARK    3  A    between atoms: C_12  and  C_13 
REMARK    4  A    between atoms: N_24  and  C_25 
ROOT
HETATM    1  N   UNL     1     -43.082  57.856 -55.945  1.00  0.00    -0.348 N 
HETATM    2  C   UNL     1     -43.531  58.239 -57.183  1.00  0.00     0.257 C 
HETATM    3  O   UNL     1     -44.519  57.729 -57.709  1.00  0.00    -0.267 OA
HETATM    4  H   UNL     1     -42.286  58.342 -55.532  1.00  0.00     0.163 HD
ENDROOT
BRANCH   1   5
HETATM    5  C   UNL     1     -43.775  56.844 -55.179  1.00  0.00     0.122 C 
HETATM    6  C   UNL     1     -44.383  57.391 -53.866  1.00  0.00     0.039 C 
HETATM    7  C   UNL     1     -43.396  57.479 -52.663  1.00  0.00    -0.040 C 
HETATM    8  C   UNL     1     -44.198  57.889 -51.410  1.00  0.00     0.015 C 
HETATM    9  C   UNL     1     -42.323  58.561 -52.904  1.00  0.00     0.015 C 
HETATM   10  C   UNL     1     -42.703  56.108 -52.383  1.00  0.00     0.069 C 
HETATM   11  C   UNL     1     -42.349  55.389 -53.645  1.00  0.00     0.047 A 
HETATM   12  C   UNL     1     -42.848  55.718 -54.895  1.00  0.00     0.008 A 
HETATM   13  N   UNL     1     -41.660  54.186 -53.794  1.00  0.00    -0.238 N 
HETATM   14  C   UNL     1     -42.376  54.718 -55.748  1.00  0.00     0.150 A 
HETATM   15  N   UNL     1     -41.680  53.789 -55.102  1.00  0.00    -0.179 NA
BRANCH  13  16
HETATM   16  C   UNL     1     -41.033  53.332 -52.833  1.00  0.00     0.058 A 
HETATM   17  C   UNL     1     -40.173  52.318 -53.298  1.00  0.00     0.031 A 
HETATM   18  C   UNL     1     -39.559  51.432 -52.409  1.00  0.00     0.002 A 
HETATM   19  C   UNL     1     -39.775  51.561 -51.041  1.00  0.00     0.000 A 
HETATM   20  C   UNL     1     -40.600  52.577 -50.564  1.00  0.00     0.002 A 
HETATM   21  C   UNL     1     -41.227  53.457 -51.455  1.00  0.00     0.031 A 
ENDBRANCH  13  16
ENDBRANCH   1   5
BRANCH   2  22
HETATM   22  C   UNL     1     -42.750  59.303 -57.874  1.00  0.00     0.100 A 
HETATM   23  C   UNL     1     -41.893  60.310 -57.176  1.00  0.00     0.261 A 
HETATM   24  O   UNL     1     -41.782  60.335 -55.953  1.00  0.00    -0.267 OA
HETATM   25  N   UNL     1     -41.231  61.214 -57.977  1.00  0.00    -0.322 N 
HETATM   26  C   UNL     1     -41.311  61.233 -59.347  1.00  0.00     0.045 A 
HETATM   27  H   UNL     1     -40.642  61.889 -57.504  1.00  0.00     0.169 HD
HETATM   28  C   UNL     1     -42.083  60.339 -59.981  1.00  0.00     0.031 A 
HETATM   29  C   UNL     1     -42.818  59.355 -59.219  1.00  0.00     0.025 A 
BRANCH  26  30
HETATM   30  C   UNL     1     -40.548  62.241 -60.088  1.00  0.00    -0.009 A 
HETATM   31  C   UNL     1     -39.639  63.070 -59.422  1.00  0.00     0.013 A 
HETATM   32  C   UNL     1     -38.938  64.054 -60.122  1.00  0.00     0.001 A 
HETATM   33  C   UNL     1     -39.142  64.213 -61.493  1.00  0.00     0.000 A 
HETATM   34  C   UNL     1     -40.043  63.389 -62.165  1.00  0.00     0.001 A 
HETATM   35  C   UNL     1     -40.746  62.406 -61.465  1.00  0.00     0.013 A 
ENDBRANCH  26  30
ENDBRANCH   2  22
TORSDOF 4
ENDMDL
MODEL 5
REMARK VINA RESULT:      -9.3      5.110      7.206
REMARK  4 active torsions:
REMARK  status: ('A' for Active; 'I' for Inactive)
REMARK    1  A    between atoms: C_5  and  N_6 
REMARK       I    between atoms: N_6  and  C_7 
REMARK    2  A    between atoms: C_7  and  C_8 
REMARK    3  A    between atoms: C_12  and  C_13 
REMARK    4  A    between atoms: N_24  and  C_25 
ROOT
HETATM    1  N   UNL     1     -44.227  57.971 -52.761  1.00  0.00    -0.348 N 
HETATM    2  C   UNL     1     -44.345  56.999 -53.721  1.00  0.00     0.257 C 
HETATM    3  O   UNL     1     -45.151  57.085 -54.645  1.00  0.00    -0.267 OA
HETATM    4  H   UNL     1     -43.509  57.876 -52.042  1.00  0.00     0.163 HD
ENDROOT
BRANCH   1   5
HETATM    5  C   UNL     1     -45.034  59.170 -52.808  1.00  0.00     0.122 C 
HETATM    6  C   UNL     1     -44.486  60.229 -53.794  1.00  0.00     0.039 C 
HETATM    7  C   UNL     1     -43.352  61.137 -53.231  1.00  0.00    -0.040 C 
HETATM    8  C   UNL     1     -43.039  62.225 -54.280  1.00  0.00     0.015 C 
HETATM    9  C   UNL     1     -42.059  60.330 -52.997  1.00  0.00     0.015 C 
HETATM   10  C   UNL     1     -43.779  61.838 -51.902  1.00  0.00     0.069 C 
HETATM   11  C   UNL     1     -44.577  60.931 -51.020  1.00  0.00     0.047 A 
HETATM   12  C   UNL     1     -45.149  59.741 -51.441  1.00  0.00     0.008 A 
HETATM   13  N   UNL     1     -45.063  61.176 -49.737  1.00  0.00    -0.238 N 
HETATM   14  C   UNL     1     -45.907  59.299 -50.354  1.00  0.00     0.150 A 
HETATM   15  N   UNL     1     -45.878  60.154 -49.337  1.00  0.00    -0.179 NA
BRANCH  13  16
HETATM   16  C   UNL     1     -44.896  62.295 -48.861  1.00  0.00     0.058 A 
HETATM   17  C   UNL     1     -45.280  62.154 -47.513  1.00  0.00     0.031 A 
HETATM   18  C   UNL     1     -45.171  63.223 -46.620  1.00  0.00     0.002 A 
HETATM   19  C   UNL     1     -44.655  64.440 -47.054  1.00  0.00     0.000 A 
HETATM   20  C   UNL     1     -44.245  64.585 -48.376  1.00  0.00     0.002 A 
HETATM   21  C   UNL     1     -44.365  63.519 -49.277  1.00  0.00     0.031 A 
ENDBRANCH  13  16
ENDBRANCH   1   5
BRANCH   2  22
HETATM   22  C   UNL     1     -43.450  55.815 -53.583  1.00  0.00     0.100 A 
HETATM   23  C   UNL     1     -43.103  55.167 -52.281  1.00  0.00     0.261 A 
HETATM   24  O   UNL     1     -43.534  55.584 -51.210  1.00  0.00    -0.267 OA
HETATM   25  N   UNL     1     -42.270  54.071 -52.344  1.00  0.00    -0.322 N 
HETATM   26  C   UNL     1     -41.761  53.555 -53.510  1.00  0.00     0.045 A 
HETATM   27  H   UNL     1     -42.044  53.626 -51.463  1.00  0.00     0.169 HD
HETATM   28  C   UNL     1     -42.061  54.135 -54.681  1.00  0.00     0.031 A 
HETATM   29  C   UNL     1     -42.925  55.294 -54.709  1.00  0.00     0.025 A 
BRANCH  26  30
HETATM   30  C   UNL     1     -40.893  52.377 -53.445  1.00  0.00    -0.009 A 
HETATM   31  C   UNL     1     -40.843  51.476 -54.516  1.00  0.00     0.013 A 
HETATM   32  C   UNL     1     -40.043  50.335 -54.439  1.00  0.00     0.001 A 
HETATM   33  C   UNL     1     -39.287  50.088 -53.293  1.00  0.00     0.000 A 
HETATM   34  C   UNL     1     -39.329  50.981 -52.224  1.00  0.00     0.001 A 
HETATM   35  C   UNL     1     -40.131  52.122 -52.299  1.00  0.00     0.013 A 
ENDBRANCH  26  30
ENDBRANCH   2  22
TORSDOF 4
ENDMDL
MODEL 6
REMARK VINA RESULT:      -9.2     17.680     20.585
REMARK  4 active torsions:
REMARK  status: ('A' for Active; 'I' for Inactive)
REMARK    1  A    between atoms: C_5  and  N_6 
REMARK       I    between atoms: N_6  and  C_7 
REMARK    2  A    between atoms: C_7  and  C_8 
REMARK    3  A    between atoms: C_12  and  C_13 
REMARK    4  A    between atoms: N_24  and  C_25 
ROOT
HETATM    1  N   UNL     1     -34.712  40.274 -56.839  1.00  0.00    -0.348 N 
HETATM    2  C   UNL     1     -35.687  40.999 -57.474  1.00  0.00     0.257 C 
HETATM    3  O   UNL     1     -35.771  42.222 -57.365  1.00  0.00    -0.267 OA
HETATM    4  H   UNL     1     -34.657  39.268 -56.999  1.00  0.00     0.163 HD
ENDROOT
BRANCH   1   5
HETATM    5  C   UNL     1     -33.706  40.923 -56.028  1.00  0.00     0.122 C 
HETATM    6  C   UNL     1     -32.276  40.407 -56.311  1.00  0.00     0.039 C 
HETATM    7  C   UNL     1     -31.883  39.096 -55.567  1.00  0.00    -0.040 C 
HETATM    8  C   UNL     1     -30.390  38.816 -55.837  1.00  0.00     0.015 C 
HETATM    9  C   UNL     1     -32.687  37.892 -56.101  1.00  0.00     0.015 C 
HETATM   10  C   UNL     1     -32.093  39.222 -54.024  1.00  0.00     0.069 C 
HETATM   11  C   UNL     1     -33.337  39.980 -53.687  1.00  0.00     0.047 A 
HETATM   12  C   UNL     1     -34.047  40.754 -54.591  1.00  0.00     0.008 A 
HETATM   13  N   UNL     1     -33.888  40.228 -52.431  1.00  0.00    -0.238 N 
HETATM   14  C   UNL     1     -35.035  41.384 -53.832  1.00  0.00     0.150 A 
HETATM   15  N   UNL     1     -34.942  41.092 -52.539  1.00  0.00    -0.179 NA
BRANCH  13  16
HETATM   16  C   UNL     1     -33.499  39.790 -51.126  1.00  0.00     0.058 A 
HETATM   17  C   UNL     1     -34.403  39.004 -50.385  1.00  0.00     0.031 A 
HETATM   18  C   UNL     1     -34.091  38.576 -49.092  1.00  0.00     0.002 A 
HETATM   19  C   UNL     1     -32.863  38.905 -48.529  1.00  0.00     0.000 A 
HETATM   20  C   UNL     1     -31.947  39.657 -49.260  1.00  0.00     0.002 A 
HETATM   21  C   UNL     1     -32.263  40.099 -50.552  1.00  0.00     0.031 A 
ENDBRANCH  13  16
ENDBRANCH   1   5
BRANCH   2  22
HETATM   22  C   UNL     1     -36.661  40.229 -58.298  1.00  0.00     0.100 A 
HETATM   23  C   UNL     1     -37.396  39.017 -57.823  1.00  0.00     0.261 A 
HETATM   24  O   UNL     1     -37.234  38.557 -56.696  1.00  0.00    -0.267 OA
HETATM   25  N   UNL     1     -38.269  38.438 -58.718  1.00  0.00    -0.322 N 
HETATM   26  C   UNL     1     -38.496  38.908 -59.988  1.00  0.00     0.045 A 
HETATM   27  H   UNL     1     -38.774  37.623 -58.391  1.00  0.00     0.169 HD
HETATM   28  C   UNL     1     -37.835  39.990 -60.425  1.00  0.00     0.031 A 
HETATM   29  C   UNL     1     -36.895  40.658 -59.554  1.00  0.00     0.025 A 
BRANCH  26  30
HETATM   30  C   UNL     1     -39.459  38.208 -60.841  1.00  0.00    -0.009 A 
HETATM   31  C   UNL     1     -39.149  37.934 -62.179  1.00  0.00     0.013 A 
HETATM   32  C   UNL     1     -40.081  37.300 -63.002  1.00  0.00     0.001 A 
HETATM   33  C   UNL     1     -41.327  36.934 -62.493  1.00  0.00     0.000 A 
HETATM   34  C   UNL     1     -41.642  37.199 -61.161  1.00  0.00     0.001 A 
HETATM   35  C   UNL     1     -40.711  37.836 -60.338  1.00  0.00     0.013 A 
ENDBRANCH  26  30
ENDBRANCH   2  22
TORSDOF 4
ENDMDL
MODEL 7
REMARK VINA RESULT:      -8.9      3.677      5.336
REMARK  4 active torsions:
REMARK  status: ('A' for Active; 'I' for Inactive)
REMARK    1  A    between atoms: C_5  and  N_6 
REMARK       I    between atoms: N_6  and  C_7 
REMARK    2  A    between atoms: C_7  and  C_8 
REMARK    3  A    between atoms: C_12  and  C_13 
REMARK    4  A    between atoms: N_24  and  C_25 
ROOT
HETATM    1  N   UNL     1     -42.547  58.658 -52.752  1.00  0.00    -0.348 N 
HETATM    2  C   UNL     1     -41.315  58.236 -53.182  1.00  0.00     0.257 C 
HETATM    3  O   UNL     1     -40.466  59.017 -53.608  1.00  0.00    -0.267 OA
HETATM    4  H   UNL     1     -43.199  57.976 -52.363  1.00  0.00     0.163 HD
ENDROOT
BRANCH   1   5
HETATM    5  C   UNL     1     -42.898  60.061 -52.752  1.00  0.00     0.122 C 
HETATM    6  C   UNL     1     -43.645  60.497 -51.470  1.00  0.00     0.039 C 
HETATM    7  C   UNL     1     -45.179  60.218 -51.468  1.00  0.00    -0.040 C 
HETATM    8  C   UNL     1     -45.783  60.852 -50.197  1.00  0.00     0.015 C 
HETATM    9  C   UNL     1     -45.468  58.704 -51.416  1.00  0.00     0.015 C 
HETATM   10  C   UNL     1     -45.881  60.842 -52.716  1.00  0.00     0.069 C 
HETATM   11  C   UNL     1     -45.054  60.704 -53.954  1.00  0.00     0.047 A 
HETATM   12  C   UNL     1     -43.710  60.367 -53.958  1.00  0.00     0.008 A 
HETATM   13  N   UNL     1     -45.379  61.069 -55.259  1.00  0.00    -0.238 N 
HETATM   14  C   UNL     1     -43.310  60.488 -55.291  1.00  0.00     0.150 A 
HETATM   15  N   UNL     1     -44.291  60.923 -56.075  1.00  0.00    -0.179 NA
BRANCH  13  16
HETATM   16  C   UNL     1     -46.583  61.598 -55.820  1.00  0.00     0.058 A 
HETATM   17  C   UNL     1     -47.028  61.088 -57.055  1.00  0.00     0.031 A 
HETATM   18  C   UNL     1     -48.180  61.591 -57.666  1.00  0.00     0.002 A 
HETATM   19  C   UNL     1     -48.917  62.592 -57.043  1.00  0.00     0.000 A 
HETATM   20  C   UNL     1     -48.504  63.086 -55.808  1.00  0.00     0.002 A 
HETATM   21  C   UNL     1     -47.343  62.594 -55.199  1.00  0.00     0.031 A 
ENDBRANCH  13  16
ENDBRANCH   1   5
BRANCH   2  22
HETATM   22  C   UNL     1     -41.055  56.769 -53.121  1.00  0.00     0.100 A 
HETATM   23  C   UNL     1     -41.223  55.933 -51.893  1.00  0.00     0.261 A 
HETATM   24  O   UNL     1     -41.585  56.413 -50.821  1.00  0.00    -0.267 OA
HETATM   25  N   UNL     1     -40.950  54.589 -52.023  1.00  0.00    -0.322 N 
HETATM   26  C   UNL     1     -40.547  53.994 -53.193  1.00  0.00     0.045 A 
HETATM   27  H   UNL     1     -41.074  54.021 -51.193  1.00  0.00     0.169 HD
HETATM   28  C   UNL     1     -40.386  54.738 -54.297  1.00  0.00     0.031 A 
HETATM   29  C   UNL     1     -40.647  56.159 -54.250  1.00  0.00     0.025 A 
BRANCH  26  30
HETATM   30  C   UNL     1     -40.297  52.551 -53.205  1.00  0.00    -0.009 A 
HETATM   31  C   UNL     1     -39.775  51.914 -52.073  1.00  0.00     0.013 A 
HETATM   32  C   UNL     1     -39.503  50.545 -52.097  1.00  0.00     0.001 A 
HETATM   33  C   UNL     1     -39.754  49.804 -53.252  1.00  0.00     0.000 A 
HETATM   34  C   UNL     1     -40.277  50.430 -54.383  1.00  0.00     0.001 A 
HETATM   35  C   UNL     1     -40.547  51.800 -54.360  1.00  0.00     0.013 A 
ENDBRANCH  26  30
ENDBRANCH   2  22
TORSDOF 4
ENDMDL
MODEL 8
REMARK VINA RESULT:      -8.6      5.473      7.379
REMARK  4 active torsions:
REMARK  status: ('A' for Active; 'I' for Inactive)
REMARK    1  A    between atoms: C_5  and  N_6 
REMARK       I    between atoms: N_6  and  C_7 
REMARK    2  A    between atoms: C_7  and  C_8 
REMARK    3  A    between atoms: C_12  and  C_13 
REMARK    4  A    between atoms: N_24  and  C_25 
ROOT
HETATM    1  N   UNL     1     -43.226  60.330 -52.093  1.00  0.00    -0.348 N 
HETATM    2  C   UNL     1     -42.300  59.940 -53.026  1.00  0.00     0.257 C 
HETATM    3  O   UNL     1     -41.835  60.722 -53.853  1.00  0.00    -0.267 OA
HETATM    4  H   UNL     1     -43.546  59.655 -51.397  1.00  0.00     0.163 HD
ENDROOT
BRANCH   1   5
HETATM    5  C   UNL     1     -43.682  61.700 -52.019  1.00  0.00     0.122 C 
HETATM    6  C   UNL     1     -43.813  62.216 -50.567  1.00  0.00     0.039 C 
HETATM    7  C   UNL     1     -45.143  61.843 -49.846  1.00  0.00    -0.040 C 
HETATM    8  C   UNL     1     -45.171  62.563 -48.481  1.00  0.00     0.015 C 
HETATM    9  C   UNL     1     -45.220  60.326 -49.574  1.00  0.00     0.015 C 
HETATM   10  C   UNL     1     -46.392  62.291 -50.670  1.00  0.00     0.069 C 
HETATM   11  C   UNL     1     -46.202  62.079 -52.138  1.00  0.00     0.047 A 
HETATM   12  C   UNL     1     -44.977  61.829 -52.736  1.00  0.00     0.008 A 
HETATM   13  N   UNL     1     -47.116  62.288 -53.170  1.00  0.00    -0.238 N 
HETATM   14  C   UNL     1     -45.236  61.839 -54.109  1.00  0.00     0.150 A 
HETATM   15  N   UNL     1     -46.503  62.128 -54.382  1.00  0.00    -0.179 NA
BRANCH  13  16
HETATM   16  C   UNL     1     -48.491  62.680 -53.148  1.00  0.00     0.058 A 
HETATM   17  C   UNL     1     -48.808  64.027 -53.406  1.00  0.00     0.031 A 
HETATM   18  C   UNL     1     -50.131  64.475 -53.366  1.00  0.00     0.002 A 
HETATM   19  C   UNL     1     -51.159  63.579 -53.091  1.00  0.00     0.000 A 
HETATM   20  C   UNL     1     -50.863  62.238 -52.863  1.00  0.00     0.002 A 
HETATM   21  C   UNL     1     -49.537  61.789 -52.890  1.00  0.00     0.031 A 
ENDBRANCH  13  16
ENDBRANCH   1   5
BRANCH   2  22
HETATM   22  C   UNL     1     -41.889  58.508 -52.999  1.00  0.00     0.100 A 
HETATM   23  C   UNL     1     -41.568  57.746 -51.753  1.00  0.00     0.261 A 
HETATM   24  O   UNL     1     -41.611  58.265 -50.641  1.00  0.00    -0.267 OA
HETATM   25  N   UNL     1     -41.218  56.423 -51.916  1.00  0.00    -0.322 N 
HETATM   26  C   UNL     1     -41.157  55.785 -53.130  1.00  0.00     0.045 A 
HETATM   27  H   UNL     1     -41.011  55.904 -51.071  1.00  0.00     0.169 HD
HETATM   28  C   UNL     1     -41.436  56.464 -54.253  1.00  0.00     0.031 A 
HETATM   29  C   UNL     1     -41.808  57.858 -54.176  1.00  0.00     0.025 A 
BRANCH  26  30
HETATM   30  C   UNL     1     -40.782  54.370 -53.170  1.00  0.00    -0.009 A 
HETATM   31  C   UNL     1     -40.457  53.691 -51.989  1.00  0.00     0.013 A 
HETATM   32  C   UNL     1     -40.065  52.352 -52.032  1.00  0.00     0.001 A 
HETATM   33  C   UNL     1     -39.996  51.684 -53.254  1.00  0.00     0.000 A 
HETATM   34  C   UNL     1     -40.321  52.351 -54.433  1.00  0.00     0.001 A 
HETATM   35  C   UNL     1     -40.711  53.691 -54.392  1.00  0.00     0.013 A 
ENDBRANCH  26  30
ENDBRANCH   2  22
TORSDOF 4
ENDMDL
MODEL 9
REMARK VINA RESULT:      -8.6      2.886      5.018
REMARK  4 active torsions:
REMARK  status: ('A' for Active; 'I' for Inactive)
REMARK    1  A    between atoms: C_5  and  N_6 
REMARK       I    between atoms: N_6  and  C_7 
REMARK    2  A    between atoms: C_7  and  C_8 
REMARK    3  A    between atoms: C_12  and  C_13 
REMARK    4  A    between atoms: N_24  and  C_25 
ROOT
HETATM    1  N   UNL     1     -42.713  56.754 -58.236  1.00  0.00    -0.348 N 
HETATM    2  C   UNL     1     -42.968  55.583 -57.571  1.00  0.00     0.257 C 
HETATM    3  O   UNL     1     -43.549  54.639 -58.104  1.00  0.00    -0.267 OA
HETATM    4  H   UNL     1     -42.186  57.489 -57.765  1.00  0.00     0.163 HD
ENDROOT
BRANCH   1   5
HETATM    5  C   UNL     1     -43.092  56.924 -59.621  1.00  0.00     0.122 C 
HETATM    6  C   UNL     1     -42.209  57.951 -60.368  1.00  0.00     0.039 C 
HETATM    7  C   UNL     1     -42.619  59.442 -60.179  1.00  0.00    -0.040 C 
HETATM    8  C   UNL     1     -41.740  60.306 -61.108  1.00  0.00     0.015 C 
HETATM    9  C   UNL     1     -42.363  59.909 -58.731  1.00  0.00     0.015 C 
HETATM   10  C   UNL     1     -44.117  59.682 -60.549  1.00  0.00     0.069 C 
HETATM   11  C   UNL     1     -44.994  58.558 -60.097  1.00  0.00     0.047 A 
HETATM   12  C   UNL     1     -44.524  57.317 -59.696  1.00  0.00     0.008 A 
HETATM   13  N   UNL     1     -46.381  58.451 -60.182  1.00  0.00    -0.238 N 
HETATM   14  C   UNL     1     -45.670  56.542 -59.500  1.00  0.00     0.150 A 
HETATM   15  N   UNL     1     -46.783  57.201 -59.802  1.00  0.00    -0.179 NA
BRANCH  13  16
HETATM   16  C   UNL     1     -47.373  59.376 -60.638  1.00  0.00     0.058 A 
HETATM   17  C   UNL     1     -48.004  60.203 -59.689  1.00  0.00     0.031 A 
HETATM   18  C   UNL     1     -49.004  61.102 -60.072  1.00  0.00     0.002 A 
HETATM   19  C   UNL     1     -49.371  61.203 -61.409  1.00  0.00     0.000 A 
HETATM   20  C   UNL     1     -48.735  60.412 -62.362  1.00  0.00     0.002 A 
HETATM   21  C   UNL     1     -47.742  59.501 -61.980  1.00  0.00     0.031 A 
ENDBRANCH  13  16
ENDBRANCH   1   5
BRANCH   2  22
HETATM   22  C   UNL     1     -42.517  55.511 -56.152  1.00  0.00     0.100 A 
HETATM   23  C   UNL     1     -42.258  56.703 -55.288  1.00  0.00     0.261 A 
HETATM   24  O   UNL     1     -42.393  57.851 -55.703  1.00  0.00    -0.267 OA
HETATM   25  N   UNL     1     -41.858  56.448 -53.994  1.00  0.00    -0.322 N 
HETATM   26  C   UNL     1     -41.695  55.189 -53.471  1.00  0.00     0.045 A 
HETATM   27  H   UNL     1     -41.693  57.256 -53.406  1.00  0.00     0.169 HD
HETATM   28  C   UNL     1     -41.918  54.114 -54.242  1.00  0.00     0.031 A 
HETATM   29  C   UNL     1     -42.336  54.289 -55.615  1.00  0.00     0.025 A 
BRANCH  26  30
HETATM   30  C   UNL     1     -41.275  55.049 -52.075  1.00  0.00    -0.009 A 
HETATM   31  C   UNL     1     -40.534  53.934 -51.668  1.00  0.00     0.013 A 
HETATM   32  C   UNL     1     -40.164  53.783 -50.330  1.00  0.00     0.001 A 
HETATM   33  C   UNL     1     -40.533  54.748 -49.392  1.00  0.00     0.000 A 
HETATM   34  C   UNL     1     -41.268  55.863 -49.790  1.00  0.00     0.001 A 
HETATM   35  C   UNL     1     -41.640  56.013 -51.127  1.00  0.00     0.013 A 
ENDBRANCH  26  30
ENDBRANCH   2  22
TORSDOF 4
ENDMDL
MODEL 10
REMARK VINA RESULT:      -8.5      4.983      9.896
REMARK  4 active torsions:
REMARK  status: ('A' for Active; 'I' for Inactive)
REMARK    1  A    between atoms: C_5  and  N_6 
REMARK       I    between atoms: N_6  and  C_7 
REMARK    2  A    between atoms: C_7  and  C_8 
REMARK    3  A    between atoms: C_12  and  C_13 
REMARK    4  A    between atoms: N_24  and  C_25 
ROOT
HETATM    1  N   UNL     1     -43.850  59.798 -54.173  1.00  0.00    -0.348 N 
HETATM    2  C   UNL     1     -44.233  61.114 -54.133  1.00  0.00     0.257 C 
HETATM    3  O   UNL     1     -43.450  62.032 -54.374  1.00  0.00    -0.267 OA
HETATM    4  H   UNL     1     -44.548  59.072 -54.012  1.00  0.00     0.163 HD
ENDROOT
BRANCH   1   5
HETATM    5  C   UNL     1     -42.501  59.423 -54.533  1.00  0.00     0.122 C 
HETATM    6  C   UNL     1     -42.313  59.230 -56.056  1.00  0.00     0.039 C 
HETATM    7  C   UNL     1     -42.739  57.836 -56.607  1.00  0.00    -0.040 C 
HETATM    8  C   UNL     1     -42.341  57.764 -58.096  1.00  0.00     0.015 C 
HETATM    9  C   UNL     1     -44.268  57.650 -56.525  1.00  0.00     0.015 C 
HETATM   10  C   UNL     1     -42.029  56.672 -55.846  1.00  0.00     0.069 C 
HETATM   11  C   UNL     1     -41.921  56.943 -54.380  1.00  0.00     0.047 A 
HETATM   12  C   UNL     1     -42.121  58.186 -53.801  1.00  0.00     0.008 A 
HETATM   13  N   UNL     1     -41.422  56.112 -53.378  1.00  0.00    -0.238 N 
HETATM   14  C   UNL     1     -41.786  58.017 -52.455  1.00  0.00     0.150 A 
HETATM   15  N   UNL     1     -41.351  56.790 -52.193  1.00  0.00    -0.179 NA
BRANCH  13  16
HETATM   16  C   UNL     1     -40.944  54.764 -53.420  1.00  0.00     0.058 A 
HETATM   17  C   UNL     1     -40.791  54.069 -52.205  1.00  0.00     0.031 A 
HETATM   18  C   UNL     1     -40.297  52.762 -52.182  1.00  0.00     0.002 A 
HETATM   19  C   UNL     1     -39.972  52.122 -53.373  1.00  0.00     0.000 A 
HETATM   20  C   UNL     1     -40.145  52.787 -54.584  1.00  0.00     0.002 A 
HETATM   21  C   UNL     1     -40.628  54.101 -54.609  1.00  0.00     0.031 A 
ENDBRANCH  13  16
ENDBRANCH   1   5
BRANCH   2  22
HETATM   22  C   UNL     1     -45.652  61.384 -53.768  1.00  0.00     0.100 A 
HETATM   23  C   UNL     1     -46.350  60.781 -52.591  1.00  0.00     0.261 A 
HETATM   24  O   UNL     1     -45.789  59.993 -51.834  1.00  0.00    -0.267 OA
HETATM   25  N   UNL     1     -47.662  61.155 -52.398  1.00  0.00    -0.322 N 
HETATM   26  C   UNL     1     -48.341  62.033 -53.205  1.00  0.00     0.045 A 
HETATM   27  H   UNL     1     -48.131  60.754 -51.594  1.00  0.00     0.169 HD
HETATM   28  C   UNL     1     -47.725  62.573 -54.267  1.00  0.00     0.031 A 
HETATM   29  C   UNL     1     -46.348  62.233 -54.549  1.00  0.00     0.025 A 
BRANCH  26  30
HETATM   30  C   UNL     1     -49.733  62.359 -52.887  1.00  0.00    -0.009 A 
HETATM   31  C   UNL     1     -50.032  63.216 -51.821  1.00  0.00     0.013 A 
HETATM   32  C   UNL     1     -51.360  63.498 -51.495  1.00  0.00     0.001 A 
HETATM   33  C   UNL     1     -52.396  62.926 -52.233  1.00  0.00     0.000 A 
HETATM   34  C   UNL     1     -52.107  62.075 -53.298  1.00  0.00     0.001 A 
HETATM   35  C   UNL     1     -50.779  61.790 -53.624  1.00  0.00     0.013 A 
ENDBRANCH  26  30
ENDBRANCH   2  22
TORSDOF 4
ENDMDL
