MODEL 1
REMARK VINA RESULT:      -8.4      0.000      0.000
REMARK  3 active torsions:
REMARK  status: ('A' for Active; 'I' for Inactive)
REMARK    1  A    between atoms: C_8  and  C_9 
REMARK    2  A    between atoms: C_14  and  C_15 
REMARK    3  A    between atoms: C_16  and  O_17 
ROOT
HETATM    1  C   UNL     1     -43.165  57.233 -56.711  1.00  0.00     0.143 A 
HETATM    2  N   UNL     1     -42.330  57.779 -55.857  1.00  0.00    -0.223 NA
HETATM    3  C   UNL     1     -42.289  56.955 -54.739  1.00  0.00     0.149 A 
HETATM    4  C   UNL     1     -43.110  55.857 -54.950  1.00  0.00     0.046 A 
HETATM    5  C   UNL     1     -43.490  54.648 -54.169  1.00  0.00     0.070 C 
HETATM    6  C   UNL     1     -43.016  54.559 -52.708  1.00  0.00     0.045 C 
HETATM    7  C   UNL     1     -42.884  55.915 -52.003  1.00  0.00     0.132 C 
HETATM    8  N   UNL     1     -41.718  56.689 -52.376  1.00  0.00    -0.355 N 
HETATM    9  C   UNL     1     -41.450  57.283 -53.582  1.00  0.00     0.272 C 
HETATM   10  O   UNL     1     -40.506  58.070 -53.642  1.00  0.00    -0.266 OA
HETATM   11  N   UNL     1     -43.641  56.056 -56.206  1.00  0.00    -0.341 N 
HETATM   12  H   UNL     1     -44.285  55.442 -56.678  1.00  0.00     0.167 HD
HETATM   13  H   UNL     1     -41.087  56.993 -51.645  1.00  0.00     0.162 HD
ENDROOT
BRANCH   1  14
HETATM   14  C   UNL     1     -43.534  57.828 -58.023  1.00  0.00     0.059 A 
HETATM   15  C   UNL     1     -44.113  59.059 -58.267  1.00  0.00     0.040 A 
HETATM   16  C   UNL     1     -44.556  60.177 -57.404  1.00  0.00     0.071 C 
HETATM   17  N   UNL     1     -44.236  59.130 -59.630  1.00  0.00    -0.281 N 
HETATM   18  H   UNL     1     -44.617  59.889 -60.185  1.00  0.00     0.189 HD
HETATM   19  N   UNL     1     -43.784  58.051 -60.279  1.00  0.00    -0.179 NA
HETATM   20  C   UNL     1     -43.348  57.242 -59.303  1.00  0.00     0.067 A 
HETATM   21  C   UNL     1     -42.761  55.920 -59.636  1.00  0.00     0.073 C 
ENDBRANCH   1  14
BRANCH   6  22
HETATM   22  C   UNL     1     -41.801  53.657 -52.477  1.00  0.00    -0.019 A 
HETATM   23  C   UNL     1     -41.297  53.453 -51.173  1.00  0.00     0.074 A 
HETATM   24  C   UNL     1     -40.167  52.649 -50.977  1.00  0.00     0.037 A 
HETATM   25  C   UNL     1     -39.537  52.037 -52.061  1.00  0.00     0.003 A 
HETATM   26  C   UNL     1     -40.028  52.228 -53.348  1.00  0.00     0.001 A 
HETATM   27  C   UNL     1     -41.150  53.032 -53.555  1.00  0.00     0.010 A 
BRANCH  23  28
HETATM   28  O   UNL     1     -41.954  54.101 -50.157  1.00  0.00    -0.355 OA
HETATM   29  C   UNL     1     -41.168  54.519 -49.046  1.00  0.00     0.210 C 
ENDBRANCH  23  28
ENDBRANCH   6  22
TORSDOF 3
ENDMDL
MODEL 2
REMARK VINA RESULT:      -8.4      0.131      1.595
REMARK  3 active torsions:
REMARK  status: ('A' for Active; 'I' for Inactive)
REMARK    1  A    between atoms: C_8  and  C_9 
REMARK    2  A    between atoms: C_14  and  C_15 
REMARK    3  A    between atoms: C_16  and  O_17 
ROOT
HETATM    1  C   UNL     1     -43.194  57.240 -56.712  1.00  0.00     0.143 A 
HETATM    2  N   UNL     1     -42.355  57.796 -55.866  1.00  0.00    -0.223 NA
HETATM    3  C   UNL     1     -42.316  56.988 -54.737  1.00  0.00     0.149 A 
HETATM    4  C   UNL     1     -43.142  55.889 -54.931  1.00  0.00     0.046 A 
HETATM    5  C   UNL     1     -43.525  54.693 -54.132  1.00  0.00     0.070 C 
HETATM    6  C   UNL     1     -43.050  54.624 -52.671  1.00  0.00     0.045 C 
HETATM    7  C   UNL     1     -42.914  55.990 -51.986  1.00  0.00     0.132 C 
HETATM    8  N   UNL     1     -41.745  56.754 -52.371  1.00  0.00    -0.355 N 
HETATM    9  C   UNL     1     -41.476  57.330 -53.585  1.00  0.00     0.272 C 
HETATM   10  O   UNL     1     -40.529  58.113 -53.657  1.00  0.00    -0.266 OA
HETATM   11  N   UNL     1     -43.673  56.073 -56.189  1.00  0.00    -0.341 N 
HETATM   12  H   UNL     1     -44.320  55.454 -56.652  1.00  0.00     0.167 HD
HETATM   13  H   UNL     1     -41.113  57.066 -51.645  1.00  0.00     0.162 HD
ENDROOT
BRANCH   1  14
HETATM   14  C   UNL     1     -43.561  57.817 -58.032  1.00  0.00     0.059 A 
HETATM   15  C   UNL     1     -43.299  57.303 -59.289  1.00  0.00     0.040 A 
HETATM   16  C   UNL     1     -42.614  56.085 -59.779  1.00  0.00     0.071 C 
HETATM   17  N   UNL     1     -43.850  58.203 -60.163  1.00  0.00    -0.281 N 
HETATM   18  H   UNL     1     -43.860  58.163 -61.177  1.00  0.00     0.189 HD
HETATM   19  N   UNL     1     -44.443  59.248 -59.574  1.00  0.00    -0.179 NA
HETATM   20  C   UNL     1     -44.273  59.023 -58.264  1.00  0.00     0.067 A 
HETATM   21  C   UNL     1     -44.808  59.984 -57.267  1.00  0.00     0.073 C 
ENDBRANCH   1  14
BRANCH   6  22
HETATM   22  C   UNL     1     -41.839  53.721 -52.428  1.00  0.00    -0.019 A 
HETATM   23  C   UNL     1     -41.335  53.534 -51.121  1.00  0.00     0.074 A 
HETATM   24  C   UNL     1     -40.208  52.729 -50.914  1.00  0.00     0.037 A 
HETATM   25  C   UNL     1     -39.580  52.099 -51.990  1.00  0.00     0.003 A 
HETATM   26  C   UNL     1     -40.071  52.274 -53.279  1.00  0.00     0.001 A 
HETATM   27  C   UNL     1     -41.190  53.078 -53.497  1.00  0.00     0.010 A 
BRANCH  23  28
HETATM   28  O   UNL     1     -41.989  54.198 -50.114  1.00  0.00    -0.355 OA
HETATM   29  C   UNL     1     -41.202  54.628 -49.009  1.00  0.00     0.210 C 
ENDBRANCH  23  28
ENDBRANCH   6  22
TORSDOF 3
ENDMDL
MODEL 3
REMARK VINA RESULT:      -8.3      3.577      4.714
REMARK  3 active torsions:
REMARK  status: ('A' for Active; 'I' for Inactive)
REMARK    1  A    between atoms: C_8  and  C_9 
REMARK    2  A    between atoms: C_14  and  C_15 
REMARK    3  A    between atoms: C_16  and  O_17 
ROOT
HETATM    1  C   UNL     1     -44.196  58.241 -51.889  1.00  0.00     0.143 A 
HETATM    2  N   UNL     1     -42.946  58.412 -51.523  1.00  0.00    -0.223 NA
HETATM    3  C   UNL     1     -42.416  57.153 -51.273  1.00  0.00     0.149 A 
HETATM    4  C   UNL     1     -43.381  56.190 -51.532  1.00  0.00     0.046 A 
HETATM    5  C   UNL     1     -43.444  54.704 -51.466  1.00  0.00     0.070 C 
HETATM    6  C   UNL     1     -42.248  53.961 -50.849  1.00  0.00     0.045 C 
HETATM    7  C   UNL     1     -41.515  54.745 -49.753  1.00  0.00     0.132 C 
HETATM    8  N   UNL     1     -40.658  55.810 -50.230  1.00  0.00    -0.355 N 
HETATM    9  C   UNL     1     -41.028  56.985 -50.831  1.00  0.00     0.272 C 
HETATM   10  O   UNL     1     -40.170  57.855 -50.977  1.00  0.00    -0.266 OA
HETATM   11  N   UNL     1     -44.488  56.907 -51.928  1.00  0.00    -0.341 N 
HETATM   12  H   UNL     1     -45.379  56.518 -52.195  1.00  0.00     0.167 HD
HETATM   13  H   UNL     1     -39.684  55.805 -49.956  1.00  0.00     0.162 HD
ENDROOT
BRANCH   1  14
HETATM   14  C   UNL     1     -45.139  59.347 -52.202  1.00  0.00     0.059 A 
HETATM   15  C   UNL     1     -45.547  59.792 -53.446  1.00  0.00     0.040 A 
HETATM   16  C   UNL     1     -45.241  59.384 -54.836  1.00  0.00     0.071 C 
HETATM   17  N   UNL     1     -46.419  60.817 -53.188  1.00  0.00    -0.281 N 
HETATM   18  H   UNL     1     -46.926  61.390 -53.855  1.00  0.00     0.189 HD
HETATM   19  N   UNL     1     -46.604  61.067 -51.887  1.00  0.00    -0.179 NA
HETATM   20  C   UNL     1     -45.824  60.169 -51.269  1.00  0.00     0.067 A 
HETATM   21  C   UNL     1     -45.762  60.129 -49.786  1.00  0.00     0.073 C 
ENDBRANCH   1  14
BRANCH   6  22
HETATM   22  C   UNL     1     -41.288  53.330 -51.861  1.00  0.00    -0.019 A 
HETATM   23  C   UNL     1     -40.405  52.301 -51.466  1.00  0.00     0.074 A 
HETATM   24  C   UNL     1     -39.511  51.751 -52.393  1.00  0.00     0.037 A 
HETATM   25  C   UNL     1     -39.491  52.205 -53.712  1.00  0.00     0.003 A 
HETATM   26  C   UNL     1     -40.359  53.215 -54.112  1.00  0.00     0.001 A 
HETATM   27  C   UNL     1     -41.250  53.773 -53.194  1.00  0.00     0.010 A 
BRANCH  23  28
HETATM   28  O   UNL     1     -40.465  51.917 -50.149  1.00  0.00    -0.355 OA
HETATM   29  C   UNL     1     -40.307  50.529 -49.875  1.00  0.00     0.210 C 
ENDBRANCH  23  28
ENDBRANCH   6  22
TORSDOF 3
ENDMDL
MODEL 4
REMARK VINA RESULT:      -7.7      3.906      7.582
REMARK  3 active torsions:
REMARK  status: ('A' for Active; 'I' for Inactive)
REMARK    1  A    between atoms: C_8  and  C_9 
REMARK    2  A    between atoms: C_14  and  C_15 
REMARK    3  A    between atoms: C_16  and  O_17 
ROOT
HETATM    1  C   UNL     1     -41.492  55.485 -52.262  1.00  0.00     0.143 A 
HETATM    2  N   UNL     1     -41.003  56.557 -52.844  1.00  0.00    -0.223 NA
HETATM    3  C   UNL     1     -42.003  57.520 -52.837  1.00  0.00     0.149 A 
HETATM    4  C   UNL     1     -43.124  57.012 -52.195  1.00  0.00     0.046 A 
HETATM    5  C   UNL     1     -44.482  57.524 -51.864  1.00  0.00     0.070 C 
HETATM    6  C   UNL     1     -44.896  58.888 -52.441  1.00  0.00     0.045 C 
HETATM    7  C   UNL     1     -44.265  59.216 -53.800  1.00  0.00     0.132 C 
HETATM    8  N   UNL     1     -42.874  59.615 -53.750  1.00  0.00    -0.355 N 
HETATM    9  C   UNL     1     -41.787  58.846 -53.425  1.00  0.00     0.272 C 
HETATM   10  O   UNL     1     -40.667  59.308 -53.639  1.00  0.00    -0.266 OA
HETATM   11  N   UNL     1     -42.767  55.731 -51.835  1.00  0.00    -0.341 N 
HETATM   12  H   UNL     1     -43.351  55.072 -51.346  1.00  0.00     0.167 HD
HETATM   13  H   UNL     1     -42.612  60.504 -54.157  1.00  0.00     0.162 HD
ENDROOT
BRANCH   1  14
HETATM   14  C   UNL     1     -40.756  54.202 -52.108  1.00  0.00     0.059 A 
HETATM   15  C   UNL     1     -40.081  53.737 -50.994  1.00  0.00     0.040 A 
HETATM   16  C   UNL     1     -39.842  54.276 -49.636  1.00  0.00     0.071 C 
HETATM   17  N   UNL     1     -39.589  52.513 -51.364  1.00  0.00    -0.281 N 
HETATM   18  H   UNL     1     -39.039  51.866 -50.808  1.00  0.00     0.189 HD
HETATM   19  N   UNL     1     -39.892  52.154 -52.616  1.00  0.00    -0.179 NA
HETATM   20  C   UNL     1     -40.611  53.183 -53.085  1.00  0.00     0.067 A 
HETATM   21  C   UNL     1     -41.141  53.153 -54.472  1.00  0.00     0.073 C 
ENDBRANCH   1  14
BRANCH   6  22
HETATM   22  C   UNL     1     -44.813  60.057 -51.457  1.00  0.00    -0.019 A 
HETATM   23  C   UNL     1     -45.883  60.972 -51.338  1.00  0.00     0.074 A 
HETATM   24  C   UNL     1     -45.783  62.055 -50.456  1.00  0.00     0.037 A 
HETATM   25  C   UNL     1     -44.636  62.234 -49.682  1.00  0.00     0.003 A 
HETATM   26  C   UNL     1     -43.579  61.337 -49.789  1.00  0.00     0.001 A 
HETATM   27  C   UNL     1     -43.666  60.258 -50.669  1.00  0.00     0.010 A 
BRANCH  23  28
HETATM   28  O   UNL     1     -46.971  60.745 -52.143  1.00  0.00    -0.355 OA
HETATM   29  C   UNL     1     -47.654  61.891 -52.640  1.00  0.00     0.210 C 
ENDBRANCH  23  28
ENDBRANCH   6  22
TORSDOF 3
ENDMDL
MODEL 5
REMARK VINA RESULT:      -7.7      3.633      5.039
REMARK  3 active torsions:
REMARK  status: ('A' for Active; 'I' for Inactive)
REMARK    1  A    between atoms: C_8  and  C_9 
REMARK    2  A    between atoms: C_14  and  C_15 
REMARK    3  A    between atoms: C_16  and  O_17 
ROOT
HETATM    1  C   UNL     1     -43.044  60.129 -52.580  1.00  0.00     0.143 A 
HETATM    2  N   UNL     1     -43.916  59.354 -51.974  1.00  0.00    -0.223 NA
HETATM    3  C   UNL     1     -43.470  58.047 -52.114  1.00  0.00     0.149 A 
HETATM    4  C   UNL     1     -42.266  58.045 -52.805  1.00  0.00     0.046 A 
HETATM    5  C   UNL     1     -41.304  57.005 -53.263  1.00  0.00     0.070 C 
HETATM    6  C   UNL     1     -41.709  55.531 -53.097  1.00  0.00     0.045 C 
HETATM    7  C   UNL     1     -43.218  55.274 -53.198  1.00  0.00     0.132 C 
HETATM    8  N   UNL     1     -43.984  55.658 -52.030  1.00  0.00    -0.355 N 
HETATM    9  C   UNL     1     -44.225  56.921 -51.556  1.00  0.00     0.272 C 
HETATM   10  O   UNL     1     -45.069  57.056 -50.670  1.00  0.00    -0.266 OA
HETATM   11  N   UNL     1     -42.020  59.373 -53.075  1.00  0.00    -0.341 N 
HETATM   12  H   UNL     1     -41.220  59.736 -53.569  1.00  0.00     0.167 HD
HETATM   13  H   UNL     1     -44.565  54.959 -51.585  1.00  0.00     0.162 HD
ENDROOT
BRANCH   1  14
HETATM   14  C   UNL     1     -43.176  61.605 -52.704  1.00  0.00     0.059 A 
HETATM   15  C   UNL     1     -43.234  62.543 -51.690  1.00  0.00     0.040 A 
HETATM   16  C   UNL     1     -43.193  62.464 -50.212  1.00  0.00     0.071 C 
HETATM   17  N   UNL     1     -43.345  63.750 -52.329  1.00  0.00    -0.281 N 
HETATM   18  H   UNL     1     -43.411  64.674 -51.914  1.00  0.00     0.189 HD
HETATM   19  N   UNL     1     -43.360  63.665 -53.664  1.00  0.00    -0.179 NA
HETATM   20  C   UNL     1     -43.255  62.352 -53.909  1.00  0.00     0.067 A 
HETATM   21  C   UNL     1     -43.235  61.852 -55.307  1.00  0.00     0.073 C 
ENDBRANCH   1  14
BRANCH   6  22
HETATM   22  C   UNL     1     -41.072  54.816 -51.903  1.00  0.00    -0.019 A 
HETATM   23  C   UNL     1     -40.585  53.496 -52.033  1.00  0.00     0.074 A 
HETATM   24  C   UNL     1     -40.030  52.842 -50.926  1.00  0.00     0.037 A 
HETATM   25  C   UNL     1     -39.944  53.488 -49.692  1.00  0.00     0.003 A 
HETATM   26  C   UNL     1     -40.415  54.789 -49.555  1.00  0.00     0.001 A 
HETATM   27  C   UNL     1     -40.975  55.448 -50.651  1.00  0.00     0.010 A 
BRANCH  23  28
HETATM   28  O   UNL     1     -40.720  52.915 -53.269  1.00  0.00    -0.355 OA
HETATM   29  C   UNL     1     -39.859  51.821 -53.564  1.00  0.00     0.210 C 
ENDBRANCH  23  28
ENDBRANCH   6  22
TORSDOF 3
ENDMDL
MODEL 6
REMARK VINA RESULT:      -7.7      3.406      7.680
REMARK  3 active torsions:
REMARK  status: ('A' for Active; 'I' for Inactive)
REMARK    1  A    between atoms: C_8  and  C_9 
REMARK    2  A    between atoms: C_14  and  C_15 
REMARK    3  A    between atoms: C_16  and  O_17 
ROOT
HETATM    1  C   UNL     1     -40.435  52.589 -52.544  1.00  0.00     0.143 A 
HETATM    2  N   UNL     1     -40.844  53.401 -51.596  1.00  0.00    -0.223 NA
HETATM    3  C   UNL     1     -41.079  54.636 -52.187  1.00  0.00     0.149 A 
HETATM    4  C   UNL     1     -40.830  54.546 -53.550  1.00  0.00     0.046 A 
HETATM    5  C   UNL     1     -40.894  55.481 -54.706  1.00  0.00     0.070 C 
HETATM    6  C   UNL     1     -41.164  56.967 -54.413  1.00  0.00     0.045 C 
HETATM    7  C   UNL     1     -40.619  57.454 -53.064  1.00  0.00     0.132 C 
HETATM    8  N   UNL     1     -41.390  57.045 -51.908  1.00  0.00    -0.355 N 
HETATM    9  C   UNL     1     -41.541  55.782 -51.398  1.00  0.00     0.272 C 
HETATM   10  O   UNL     1     -42.066  55.663 -50.291  1.00  0.00    -0.266 OA
HETATM   11  N   UNL     1     -40.436  53.240 -53.745  1.00  0.00    -0.341 N 
HETATM   12  H   UNL     1     -40.178  52.828 -54.627  1.00  0.00     0.167 HD
HETATM   13  H   UNL     1     -41.732  57.761 -51.279  1.00  0.00     0.162 HD
ENDROOT
BRANCH   1  14
HETATM   14  C   UNL     1     -40.029  51.175 -52.322  1.00  0.00     0.059 A 
HETATM   15  C   UNL     1     -39.944  50.492 -51.123  1.00  0.00     0.040 A 
HETATM   16  C   UNL     1     -40.201  50.856 -49.711  1.00  0.00     0.071 C 
HETATM   17  N   UNL     1     -39.535  49.229 -51.462  1.00  0.00    -0.281 N 
HETATM   18  H   UNL     1     -39.364  48.441 -50.847  1.00  0.00     0.189 HD
HETATM   19  N   UNL     1     -39.352  49.045 -52.775  1.00  0.00    -0.179 NA
HETATM   20  C   UNL     1     -39.653  50.233 -53.316  1.00  0.00     0.067 A 
HETATM   21  C   UNL     1     -39.570  50.427 -54.785  1.00  0.00     0.073 C 
ENDBRANCH   1  14
BRANCH   6  22
HETATM   22  C   UNL     1     -42.603  57.424 -54.664  1.00  0.00    -0.019 A 
HETATM   23  C   UNL     1     -42.864  58.689 -55.237  1.00  0.00     0.074 A 
HETATM   24  C   UNL     1     -44.185  59.108 -55.435  1.00  0.00     0.037 A 
HETATM   25  C   UNL     1     -45.251  58.281 -55.080  1.00  0.00     0.003 A 
HETATM   26  C   UNL     1     -45.005  57.032 -54.520  1.00  0.00     0.001 A 
HETATM   27  C   UNL     1     -43.692  56.607 -54.313  1.00  0.00     0.010 A 
BRANCH  23  28
HETATM   28  O   UNL     1     -41.769  59.457 -55.543  1.00  0.00    -0.355 OA
HETATM   29  C   UNL     1     -41.842  60.236 -56.732  1.00  0.00     0.210 C 
ENDBRANCH  23  28
ENDBRANCH   6  22
TORSDOF 3
ENDMDL
MODEL 7
REMARK VINA RESULT:      -7.6     15.532     17.831
REMARK  3 active torsions:
REMARK  status: ('A' for Active; 'I' for Inactive)
REMARK    1  A    between atoms: C_8  and  C_9 
REMARK    2  A    between atoms: C_14  and  C_15 
REMARK    3  A    between atoms: C_16  and  O_17 
ROOT
HETATM    1  C   UNL     1     -38.277  38.916 -60.689  1.00  0.00     0.143 A 
HETATM    2  N   UNL     1     -38.015  40.197 -60.569  1.00  0.00    -0.223 NA
HETATM    3  C   UNL     1     -37.631  40.415 -59.252  1.00  0.00     0.149 A 
HETATM    4  C   UNL     1     -37.636  39.208 -58.568  1.00  0.00     0.046 A 
HETATM    5  C   UNL     1     -37.331  38.773 -57.177  1.00  0.00     0.070 C 
HETATM    6  C   UNL     1     -37.062  39.864 -56.126  1.00  0.00     0.045 C 
HETATM    7  C   UNL     1     -37.821  41.175 -56.369  1.00  0.00     0.132 C 
HETATM    8  N   UNL     1     -37.285  42.006 -57.427  1.00  0.00    -0.355 N 
HETATM    9  C   UNL     1     -37.275  41.756 -58.774  1.00  0.00     0.272 C 
HETATM   10  O   UNL     1     -36.962  42.673 -59.532  1.00  0.00    -0.266 OA
HETATM   11  N   UNL     1     -38.037  38.281 -59.504  1.00  0.00    -0.341 N 
HETATM   12  H   UNL     1     -38.149  37.292 -59.344  1.00  0.00     0.167 HD
HETATM   13  H   UNL     1     -37.034  42.962 -57.209  1.00  0.00     0.162 HD
ENDROOT
BRANCH   1  14
HETATM   14  C   UNL     1     -38.770  38.273 -61.936  1.00  0.00     0.059 A 
HETATM   15  C   UNL     1     -38.052  37.967 -63.077  1.00  0.00     0.040 A 
HETATM   16  C   UNL     1     -36.638  38.138 -63.480  1.00  0.00     0.071 C 
HETATM   17  N   UNL     1     -38.959  37.382 -63.922  1.00  0.00    -0.281 N 
HETATM   18  H   UNL     1     -38.801  37.022 -64.857  1.00  0.00     0.189 HD
HETATM   19  N   UNL     1     -40.195  37.286 -63.419  1.00  0.00    -0.179 NA
HETATM   20  C   UNL     1     -40.093  37.829 -62.198  1.00  0.00     0.067 A 
HETATM   21  C   UNL     1     -41.282  37.904 -61.312  1.00  0.00     0.073 C 
ENDBRANCH   1  14
BRANCH   6  22
HETATM   22  C   UNL     1     -35.586  40.093 -55.796  1.00  0.00    -0.019 A 
HETATM   23  C   UNL     1     -35.187  40.421 -54.481  1.00  0.00     0.074 A 
HETATM   24  C   UNL     1     -33.837  40.657 -54.196  1.00  0.00     0.037 A 
HETATM   25  C   UNL     1     -32.874  40.560 -55.202  1.00  0.00     0.003 A 
HETATM   26  C   UNL     1     -33.255  40.233 -56.499  1.00  0.00     0.001 A 
HETATM   27  C   UNL     1     -34.600  40.002 -56.794  1.00  0.00     0.010 A 
BRANCH  23  28
HETATM   28  O   UNL     1     -36.189  40.518 -53.547  1.00  0.00    -0.355 OA
HETATM   29  C   UNL     1     -36.391  41.795 -52.951  1.00  0.00     0.210 C 
ENDBRANCH  23  28
ENDBRANCH   6  22
TORSDOF 3
ENDMDL
MODEL 8
REMARK VINA RESULT:      -7.6      2.131      2.747
REMARK  3 active torsions:
REMARK  status: ('A' for Active; 'I' for Inactive)
REMARK    1  A    between atoms: C_8  and  C_9 
REMARK    2  A    between atoms: C_14  and  C_15 
REMARK    3  A    between atoms: C_16  and  O_17 
ROOT
HETATM    1  C   UNL     1     -42.535  59.956 -57.023  1.00  0.00     0.143 A 
HETATM    2  N   UNL     1     -41.820  60.052 -55.924  1.00  0.00    -0.223 NA
HETATM    3  C   UNL     1     -42.033  58.889 -55.195  1.00  0.00     0.149 A 
HETATM    4  C   UNL     1     -42.884  58.053 -55.903  1.00  0.00     0.046 A 
HETATM    5  C   UNL     1     -43.480  56.707 -55.681  1.00  0.00     0.070 C 
HETATM    6  C   UNL     1     -43.272  56.048 -54.307  1.00  0.00     0.045 C 
HETATM    7  C   UNL     1     -43.164  57.039 -53.141  1.00  0.00     0.132 C 
HETATM    8  N   UNL     1     -41.898  57.735 -53.043  1.00  0.00    -0.355 N 
HETATM    9  C   UNL     1     -41.384  58.676 -53.897  1.00  0.00     0.272 C 
HETATM   10  O   UNL     1     -40.388  59.303 -53.536  1.00  0.00    -0.266 OA
HETATM   11  N   UNL     1     -43.175  58.750 -57.055  1.00  0.00    -0.341 N 
HETATM   12  H   UNL     1     -43.772  58.432 -57.802  1.00  0.00     0.167 HD
HETATM   13  H   UNL     1     -41.382  57.677 -52.174  1.00  0.00     0.162 HD
ENDROOT
BRANCH   1  14
HETATM   14  C   UNL     1     -42.627  61.018 -58.060  1.00  0.00     0.059 A 
HETATM   15  C   UNL     1     -42.917  62.358 -57.883  1.00  0.00     0.040 A 
HETATM   16  C   UNL     1     -43.222  63.198 -56.702  1.00  0.00     0.071 C 
HETATM   17  N   UNL     1     -42.870  62.901 -59.141  1.00  0.00    -0.281 N 
HETATM   18  H   UNL     1     -43.027  63.866 -59.411  1.00  0.00     0.189 HD
HETATM   19  N   UNL     1     -42.573  62.024 -60.106  1.00  0.00    -0.179 NA
HETATM   20  C   UNL     1     -42.420  60.862 -59.456  1.00  0.00     0.067 A 
HETATM   21  C   UNL     1     -42.075  59.627 -60.205  1.00  0.00     0.073 C 
ENDBRANCH   1  14
BRANCH   6  22
HETATM   22  C   UNL     1     -42.185  54.972 -54.264  1.00  0.00    -0.019 A 
HETATM   23  C   UNL     1     -42.204  53.972 -53.267  1.00  0.00     0.074 A 
HETATM   24  C   UNL     1     -41.188  53.009 -53.220  1.00  0.00     0.037 A 
HETATM   25  C   UNL     1     -40.156  53.023 -54.160  1.00  0.00     0.003 A 
HETATM   26  C   UNL     1     -40.131  54.001 -55.148  1.00  0.00     0.001 A 
HETATM   27  C   UNL     1     -41.136  54.968 -55.200  1.00  0.00     0.010 A 
BRANCH  23  28
HETATM   28  O   UNL     1     -43.236  54.030 -52.364  1.00  0.00    -0.355 OA
HETATM   29  C   UNL     1     -42.884  54.112 -50.988  1.00  0.00     0.210 C 
ENDBRANCH  23  28
ENDBRANCH   6  22
TORSDOF 3
ENDMDL
MODEL 9
REMARK VINA RESULT:      -7.6      4.415      6.521
REMARK  3 active torsions:
REMARK  status: ('A' for Active; 'I' for Inactive)
REMARK    1  A    between atoms: C_8  and  C_9 
REMARK    2  A    between atoms: C_14  and  C_15 
REMARK    3  A    between atoms: C_16  and  O_17 
ROOT
HETATM    1  C   UNL     1     -43.475  60.785 -50.802  1.00  0.00     0.143 A 
HETATM    2  N   UNL     1     -44.383  59.835 -50.828  1.00  0.00    -0.223 NA
HETATM    3  C   UNL     1     -43.744  58.668 -51.225  1.00  0.00     0.149 A 
HETATM    4  C   UNL     1     -42.393  58.926 -51.412  1.00  0.00     0.046 A 
HETATM    5  C   UNL     1     -41.205  58.128 -51.820  1.00  0.00     0.070 C 
HETATM    6  C   UNL     1     -41.440  56.685 -52.299  1.00  0.00     0.045 C 
HETATM    7  C   UNL     1     -42.787  56.463 -52.998  1.00  0.00     0.132 C 
HETATM    8  N   UNL     1     -43.932  56.398 -52.114  1.00  0.00    -0.355 N 
HETATM    9  C   UNL     1     -44.480  57.408 -51.366  1.00  0.00     0.272 C 
HETATM   10  O   UNL     1     -45.573  57.209 -50.838  1.00  0.00    -0.266 OA
HETATM   11  N   UNL     1     -42.254  60.267 -51.128  1.00  0.00    -0.341 N 
HETATM   12  H   UNL     1     -41.394  60.791 -51.164  1.00  0.00     0.167 HD
HETATM   13  H   UNL     1     -44.526  55.579 -52.154  1.00  0.00     0.162 HD
ENDROOT
BRANCH   1  14
HETATM   14  C   UNL     1     -43.757  62.208 -50.473  1.00  0.00     0.059 A 
HETATM   15  C   UNL     1     -43.599  63.316 -51.284  1.00  0.00     0.040 A 
HETATM   16  C   UNL     1     -43.132  63.516 -52.674  1.00  0.00     0.071 C 
HETATM   17  N   UNL     1     -44.003  64.377 -50.517  1.00  0.00    -0.281 N 
HETATM   18  H   UNL     1     -44.031  65.359 -50.773  1.00  0.00     0.189 HD
HETATM   19  N   UNL     1     -44.407  64.043 -49.286  1.00  0.00    -0.179 NA
HETATM   20  C   UNL     1     -44.262  62.712 -49.246  1.00  0.00     0.067 A 
HETATM   21  C   UNL     1     -44.618  61.959 -48.017  1.00  0.00     0.073 C 
ENDBRANCH   1  14
BRANCH   6  22
HETATM   22  C   UNL     1     -41.130  55.603 -51.263  1.00  0.00    -0.019 A 
HETATM   23  C   UNL     1     -40.649  54.338 -51.669  1.00  0.00     0.074 A 
HETATM   24  C   UNL     1     -40.396  53.345 -50.715  1.00  0.00     0.037 A 
HETATM   25  C   UNL     1     -40.607  53.597 -49.359  1.00  0.00     0.003 A 
HETATM   26  C   UNL     1     -41.076  54.840 -48.948  1.00  0.00     0.001 A 
HETATM   27  C   UNL     1     -41.336  55.834 -49.892  1.00  0.00     0.010 A 
BRANCH  23  28
HETATM   28  O   UNL     1     -40.483  54.153 -53.020  1.00  0.00    -0.355 OA
HETATM   29  C   UNL     1     -41.220  53.093 -53.620  1.00  0.00     0.210 C 
ENDBRANCH  23  28
ENDBRANCH   6  22
TORSDOF 3
ENDMDL
MODEL 10
REMARK VINA RESULT:      -7.4      2.637      7.749
REMARK  3 active torsions:
REMARK  status: ('A' for Active; 'I' for Inactive)
REMARK    1  A    between atoms: C_8  and  C_9 
REMARK    2  A    between atoms: C_14  and  C_15 
REMARK    3  A    between atoms: C_16  and  O_17 
ROOT
HETATM    1  C   UNL     1     -41.537  55.158 -53.872  1.00  0.00     0.143 A 
HETATM    2  N   UNL     1     -41.567  56.471 -53.855  1.00  0.00    -0.223 NA
HETATM    3  C   UNL     1     -42.065  56.886 -55.083  1.00  0.00     0.149 A 
HETATM    4  C   UNL     1     -42.373  55.772 -55.852  1.00  0.00     0.046 A 
HETATM    5  C   UNL     1     -42.926  55.542 -57.215  1.00  0.00     0.070 C 
HETATM    6  C   UNL     1     -43.114  56.764 -58.129  1.00  0.00     0.045 C 
HETATM    7  C   UNL     1     -42.099  57.890 -57.896  1.00  0.00     0.132 C 
HETATM    8  N   UNL     1     -42.333  58.690 -56.712  1.00  0.00    -0.355 N 
HETATM    9  C   UNL     1     -42.220  58.309 -55.401  1.00  0.00     0.272 C 
HETATM   10  O   UNL     1     -42.258  59.186 -54.538  1.00  0.00    -0.266 OA
HETATM   11  N   UNL     1     -42.039  54.699 -55.057  1.00  0.00    -0.341 N 
HETATM   12  H   UNL     1     -42.135  53.727 -55.306  1.00  0.00     0.167 HD
HETATM   13  H   UNL     1     -42.425  59.692 -56.819  1.00  0.00     0.162 HD
ENDROOT
BRANCH   1  14
HETATM   14  C   UNL     1     -41.021  54.315 -52.761  1.00  0.00     0.059 A 
HETATM   15  C   UNL     1     -41.039  54.588 -51.405  1.00  0.00     0.040 A 
HETATM   16  C   UNL     1     -41.532  55.722 -50.591  1.00  0.00     0.071 C 
HETATM   17  N   UNL     1     -40.456  53.498 -50.815  1.00  0.00    -0.281 N 
HETATM   18  H   UNL     1     -40.294  53.333 -49.827  1.00  0.00     0.189 HD
HETATM   19  N   UNL     1     -40.069  52.549 -51.676  1.00  0.00    -0.179 NA
HETATM   20  C   UNL     1     -40.411  53.038 -52.875  1.00  0.00     0.067 A 
HETATM   21  C   UNL     1     -40.139  52.254 -54.106  1.00  0.00     0.073 C 
ENDBRANCH   1  14
BRANCH   6  22
HETATM   22  C   UNL     1     -44.551  57.280 -58.228  1.00  0.00    -0.019 A 
HETATM   23  C   UNL     1     -45.273  57.165 -59.438  1.00  0.00     0.074 A 
HETATM   24  C   UNL     1     -46.577  57.668 -59.525  1.00  0.00     0.037 A 
HETATM   25  C   UNL     1     -47.177  58.275 -58.422  1.00  0.00     0.003 A 
HETATM   26  C   UNL     1     -46.477  58.390 -57.226  1.00  0.00     0.001 A 
HETATM   27  C   UNL     1     -45.175  57.897 -57.130  1.00  0.00     0.010 A 
BRANCH  23  28
HETATM   28  O   UNL     1     -44.615  56.574 -60.487  1.00  0.00    -0.355 OA
HETATM   29  C   UNL     1     -45.205  55.403 -61.040  1.00  0.00     0.210 C 
ENDBRANCH  23  28
ENDBRANCH   6  22
TORSDOF 3
ENDMDL
