MODEL 1
REMARK VINA RESULT:      -8.1      0.000      0.000
REMARK  3 active torsions:
REMARK  status: ('A' for Active; 'I' for Inactive)
REMARK    1  A    between atoms: C_6  and  N_7 
REMARK       I    between atoms: N_7  and  C_8 
REMARK    2  A    between atoms: C_8  and  C_9 
REMARK    3  A    between atoms: C_9  and  C_10 
ROOT
HETATM    1  C   UNL     1     -42.775  54.726 -53.191  1.00  0.00     0.286 C 
HETATM    2  N   UNL     1     -41.591  54.751 -54.152  1.00  0.00    -0.056 N 
HETATM    3  H   UNL     1     -40.800  55.143 -53.596  1.00  0.00     0.278 HD
HETATM    4  H   UNL     1     -41.305  53.802 -54.417  1.00  0.00     0.278 HD
HETATM    5  C   UNL     1     -41.775  55.626 -55.360  1.00  0.00     0.209 C 
HETATM    6  C   UNL     1     -42.205  57.047 -54.913  1.00  0.00     0.115 C 
HETATM    7  N   UNL     1     -43.298  57.036 -53.943  1.00  0.00    -0.353 N 
HETATM    8  C   UNL     1     -43.373  56.121 -52.919  1.00  0.00     0.249 C 
HETATM    9  O   UNL     1     -43.988  56.394 -51.894  1.00  0.00    -0.271 OA
HETATM   10  C   UNL     1     -42.756  54.970 -56.335  1.00  0.00     0.035 C 
HETATM   11  C   UNL     1     -43.036  55.880 -57.527  1.00  0.00     0.002 C 
HETATM   12  C   UNL     1     -43.540  57.247 -57.074  1.00  0.00     0.002 C 
HETATM   13  C   UNL     1     -42.555  57.923 -56.121  1.00  0.00     0.027 C 
HETATM   14  H   UNL     1     -43.691  57.937 -53.672  1.00  0.00     0.163 HD
ENDROOT
BRANCH   1  15
HETATM   15  C   UNL     1     -42.427  53.998 -51.883  1.00  0.00     0.146 C 
BRANCH  15  16
HETATM   16  C   UNL     1     -41.032  54.323 -51.419  1.00  0.00     0.224 C 
HETATM   17  N   UNL     1     -40.009  53.433 -51.478  1.00  0.00    -0.327 N 
HETATM   18  H   UNL     1     -39.153  53.834 -51.103  1.00  0.00     0.169 HD
HETATM   19  O   UNL     1     -40.792  55.478 -51.039  1.00  0.00    -0.273 OA
BRANCH  17  20
HETATM   20  C   UNL     1     -39.878  52.107 -51.942  1.00  0.00     0.037 A 
HETATM   21  C   UNL     1     -39.798  51.708 -53.274  1.00  0.00     0.071 A 
HETATM   22  C   UNL     1     -39.668  50.354 -53.594  1.00  0.00     0.118 A 
HETATM   23  C   UNL     1     -39.605  49.378 -52.612  1.00  0.00     0.042 A 
HETATM   24  F   UNL     1     -39.599  49.999 -54.884  1.00  0.00    -0.206 F 
HETATM   25  C   UNL     1     -39.672  49.759 -51.279  1.00  0.00     0.005 A 
HETATM   26  C   UNL     1     -39.808  51.113 -50.949  1.00  0.00     0.029 A 
ENDBRANCH  17  20
ENDBRANCH  15  16
ENDBRANCH   1  15
TORSDOF 3
ENDMDL
MODEL 2
REMARK VINA RESULT:      -8.0      2.580      2.971
REMARK  3 active torsions:
REMARK  status: ('A' for Active; 'I' for Inactive)
REMARK    1  A    between atoms: C_6  and  N_7 
REMARK       I    between atoms: N_7  and  C_8 
REMARK    2  A    between atoms: C_8  and  C_9 
REMARK    3  A    between atoms: C_9  and  C_10 
ROOT
HETATM    1  C   UNL     1     -42.452  55.609 -51.283  1.00  0.00     0.286 C 
HETATM    2  N   UNL     1     -41.074  56.246 -51.130  1.00  0.00    -0.056 N 
HETATM    3  H   UNL     1     -40.894  56.257 -50.102  1.00  0.00     0.278 HD
HETATM    4  H   UNL     1     -40.341  55.653 -51.536  1.00  0.00     0.278 HD
HETATM    5  C   UNL     1     -40.971  57.661 -51.626  1.00  0.00     0.209 C 
HETATM    6  C   UNL     1     -42.093  58.518 -50.987  1.00  0.00     0.115 C 
HETATM    7  N   UNL     1     -43.412  57.891 -51.070  1.00  0.00    -0.353 N 
HETATM    8  C   UNL     1     -43.607  56.544 -50.874  1.00  0.00     0.249 C 
HETATM    9  O   UNL     1     -44.696  56.130 -50.493  1.00  0.00    -0.271 OA
HETATM   10  C   UNL     1     -40.984  57.680 -53.156  1.00  0.00     0.035 C 
HETATM   11  C   UNL     1     -40.979  59.110 -53.687  1.00  0.00     0.002 C 
HETATM   12  C   UNL     1     -42.139  59.917 -53.115  1.00  0.00     0.002 C 
HETATM   13  C   UNL     1     -42.120  59.928 -51.587  1.00  0.00     0.027 C 
HETATM   14  H   UNL     1     -44.210  58.438 -50.750  1.00  0.00     0.163 HD
ENDROOT
BRANCH   1  15
HETATM   15  C   UNL     1     -42.535  54.258 -50.555  1.00  0.00     0.146 C 
BRANCH  15  16
HETATM   16  C   UNL     1     -41.434  54.104 -49.540  1.00  0.00     0.224 C 
HETATM   17  N   UNL     1     -40.473  53.150 -49.633  1.00  0.00    -0.327 N 
HETATM   18  H   UNL     1     -39.832  53.198 -48.845  1.00  0.00     0.169 HD
HETATM   19  O   UNL     1     -41.360  54.933 -48.621  1.00  0.00    -0.273 OA
BRANCH  17  20
HETATM   20  C   UNL     1     -40.173  52.138 -50.569  1.00  0.00     0.037 A 
HETATM   21  C   UNL     1     -39.833  52.330 -51.906  1.00  0.00     0.071 A 
HETATM   22  C   UNL     1     -39.558  51.232 -52.724  1.00  0.00     0.118 A 
HETATM   23  C   UNL     1     -39.603  49.934 -52.239  1.00  0.00     0.042 A 
HETATM   24  F   UNL     1     -39.239  51.446 -54.008  1.00  0.00    -0.206 F 
HETATM   25  C   UNL     1     -39.929  49.725 -50.906  1.00  0.00     0.005 A 
HETATM   26  C   UNL     1     -40.212  50.819 -50.080  1.00  0.00     0.029 A 
ENDBRANCH  17  20
ENDBRANCH  15  16
ENDBRANCH   1  15
TORSDOF 3
ENDMDL
MODEL 3
REMARK VINA RESULT:      -7.8      2.295      3.092
REMARK  3 active torsions:
REMARK  status: ('A' for Active; 'I' for Inactive)
REMARK    1  A    between atoms: C_6  and  N_7 
REMARK       I    between atoms: N_7  and  C_8 
REMARK    2  A    between atoms: C_8  and  C_9 
REMARK    3  A    between atoms: C_9  and  C_10 
ROOT
HETATM    1  C   UNL     1     -42.385  55.606 -51.623  1.00  0.00     0.286 C 
HETATM    2  N   UNL     1     -42.804  56.725 -50.675  1.00  0.00    -0.056 N 
HETATM    3  H   UNL     1     -43.588  56.326 -50.114  1.00  0.00     0.278 HD
HETATM    4  H   UNL     1     -42.061  56.943 -50.003  1.00  0.00     0.278 HD
HETATM    5  C   UNL     1     -43.314  57.967 -51.350  1.00  0.00     0.209 C 
HETATM    6  C   UNL     1     -44.434  57.592 -52.354  1.00  0.00     0.115 C 
HETATM    7  N   UNL     1     -44.070  56.477 -53.228  1.00  0.00    -0.353 N 
HETATM    8  C   UNL     1     -43.380  55.376 -52.777  1.00  0.00     0.249 C 
HETATM    9  O   UNL     1     -43.491  54.302 -53.358  1.00  0.00    -0.271 OA
HETATM   10  C   UNL     1     -42.151  58.729 -51.990  1.00  0.00     0.035 C 
HETATM   11  C   UNL     1     -42.651  59.944 -52.764  1.00  0.00     0.002 C 
HETATM   12  C   UNL     1     -43.690  59.547 -53.808  1.00  0.00     0.002 C 
HETATM   13  C   UNL     1     -44.870  58.809 -53.176  1.00  0.00     0.027 C 
HETATM   14  H   UNL     1     -44.724  56.233 -53.971  1.00  0.00     0.163 HD
ENDROOT
BRANCH   1  15
HETATM   15  C   UNL     1     -42.092  54.302 -50.863  1.00  0.00     0.146 C 
BRANCH  15  16
HETATM   16  C   UNL     1     -40.655  54.226 -50.422  1.00  0.00     0.224 C 
HETATM   17  N   UNL     1     -39.765  53.350 -50.954  1.00  0.00    -0.327 N 
HETATM   18  H   UNL     1     -38.853  53.442 -50.513  1.00  0.00     0.169 HD
HETATM   19  O   UNL     1     -40.250  55.051 -49.590  1.00  0.00    -0.273 OA
BRANCH  17  20
HETATM   20  C   UNL     1     -39.828  52.371 -51.967  1.00  0.00     0.037 A 
HETATM   21  C   UNL     1     -39.540  51.017 -51.819  1.00  0.00     0.071 A 
HETATM   22  C   UNL     1     -39.645  50.154 -52.913  1.00  0.00     0.118 A 
HETATM   23  C   UNL     1     -40.044  50.606 -54.161  1.00  0.00     0.042 A 
HETATM   24  F   UNL     1     -39.357  48.856 -52.743  1.00  0.00    -0.206 F 
HETATM   25  C   UNL     1     -40.346  51.952 -54.323  1.00  0.00     0.005 A 
HETATM   26  C   UNL     1     -40.237  52.825 -53.235  1.00  0.00     0.029 A 
ENDBRANCH  17  20
ENDBRANCH  15  16
ENDBRANCH   1  15
TORSDOF 3
ENDMDL
MODEL 4
REMARK VINA RESULT:      -7.7      2.608      3.802
REMARK  3 active torsions:
REMARK  status: ('A' for Active; 'I' for Inactive)
REMARK    1  A    between atoms: C_6  and  N_7 
REMARK       I    between atoms: N_7  and  C_8 
REMARK    2  A    between atoms: C_8  and  C_9 
REMARK    3  A    between atoms: C_9  and  C_10 
ROOT
HETATM    1  C   UNL     1     -43.013  55.993 -52.417  1.00  0.00     0.286 C 
HETATM    2  N   UNL     1     -41.982  56.803 -53.198  1.00  0.00    -0.056 N 
HETATM    3  H   UNL     1     -41.156  56.172 -53.289  1.00  0.00     0.278 HD
HETATM    4  H   UNL     1     -42.301  56.988 -54.155  1.00  0.00     0.278 HD
HETATM    5  C   UNL     1     -41.521  58.062 -52.519  1.00  0.00     0.209 C 
HETATM    6  C   UNL     1     -41.048  57.734 -51.080  1.00  0.00     0.115 C 
HETATM    7  N   UNL     1     -41.999  56.905 -50.339  1.00  0.00    -0.353 N 
HETATM    8  C   UNL     1     -42.679  55.859 -50.918  1.00  0.00     0.249 C 
HETATM    9  O   UNL     1     -43.081  54.930 -50.227  1.00  0.00    -0.271 OA
HETATM   10  C   UNL     1     -42.625  59.119 -52.573  1.00  0.00     0.035 C 
HETATM   11  C   UNL     1     -42.220  60.375 -51.808  1.00  0.00     0.002 C 
HETATM   12  C   UNL     1     -41.841  60.048 -50.368  1.00  0.00     0.002 C 
HETATM   13  C   UNL     1     -40.718  59.013 -50.302  1.00  0.00     0.027 C 
HETATM   14  H   UNL     1     -41.795  56.724 -49.357  1.00  0.00     0.163 HD
ENDROOT
BRANCH   1  15
HETATM   15  C   UNL     1     -43.264  54.622 -53.064  1.00  0.00     0.146 C 
BRANCH  15  16
HETATM   16  C   UNL     1     -42.588  54.507 -54.405  1.00  0.00     0.224 C 
HETATM   17  N   UNL     1     -41.530  53.688 -54.630  1.00  0.00    -0.327 N 
HETATM   18  H   UNL     1     -41.206  53.766 -55.591  1.00  0.00     0.169 HD
HETATM   19  O   UNL     1     -43.069  55.133 -55.362  1.00  0.00    -0.273 OA
BRANCH  17  20
HETATM   20  C   UNL     1     -40.806  52.770 -53.841  1.00  0.00     0.037 A 
HETATM   21  C   UNL     1     -40.357  51.515 -54.246  1.00  0.00     0.071 A 
HETATM   22  C   UNL     1     -39.646  50.705 -53.357  1.00  0.00     0.118 A 
HETATM   23  C   UNL     1     -39.359  51.119 -52.066  1.00  0.00     0.042 A 
HETATM   24  F   UNL     1     -39.231  49.500 -53.772  1.00  0.00    -0.206 F 
HETATM   25  C   UNL     1     -39.789  52.371 -51.650  1.00  0.00     0.005 A 
HETATM   26  C   UNL     1     -40.507  53.188 -52.532  1.00  0.00     0.029 A 
ENDBRANCH  17  20
ENDBRANCH  15  16
ENDBRANCH   1  15
TORSDOF 3
ENDMDL
MODEL 5
REMARK VINA RESULT:      -7.6      1.745      2.300
REMARK  3 active torsions:
REMARK  status: ('A' for Active; 'I' for Inactive)
REMARK    1  A    between atoms: C_6  and  N_7 
REMARK       I    between atoms: N_7  and  C_8 
REMARK    2  A    between atoms: C_8  and  C_9 
REMARK    3  A    between atoms: C_9  and  C_10 
ROOT
HETATM    1  C   UNL     1     -43.229  54.936 -55.124  1.00  0.00     0.286 C 
HETATM    2  N   UNL     1     -42.169  55.087 -56.211  1.00  0.00    -0.056 N 
HETATM    3  H   UNL     1     -41.390  55.613 -55.758  1.00  0.00     0.278 HD
HETATM    4  H   UNL     1     -41.775  54.178 -56.477  1.00  0.00     0.278 HD
HETATM    5  C   UNL     1     -42.606  55.870 -57.417  1.00  0.00     0.209 C 
HETATM    6  C   UNL     1     -43.192  57.233 -56.968  1.00  0.00     0.115 C 
HETATM    7  N   UNL     1     -44.164  57.110 -55.883  1.00  0.00    -0.353 N 
HETATM    8  C   UNL     1     -43.995  56.241 -54.830  1.00  0.00     0.249 C 
HETATM    9  O   UNL     1     -44.532  56.470 -53.752  1.00  0.00    -0.271 OA
HETATM   10  C   UNL     1     -43.576  55.036 -58.257  1.00  0.00     0.035 C 
HETATM   11  C   UNL     1     -44.111  55.840 -59.437  1.00  0.00     0.002 C 
HETATM   12  C   UNL     1     -44.761  57.139 -58.973  1.00  0.00     0.002 C 
HETATM   13  C   UNL     1     -43.792  57.994 -58.155  1.00  0.00     0.027 C 
HETATM   14  H   UNL     1     -44.655  57.956 -55.597  1.00  0.00     0.163 HD
ENDROOT
BRANCH   1  15
HETATM   15  C   UNL     1     -42.642  54.326 -53.841  1.00  0.00     0.146 C 
BRANCH  15  16
HETATM   16  C   UNL     1     -41.255  54.844 -53.563  1.00  0.00     0.224 C 
HETATM   17  N   UNL     1     -40.211  54.032 -53.262  1.00  0.00    -0.327 N 
HETATM   18  H   UNL     1     -39.365  54.571 -53.091  1.00  0.00     0.169 HD
HETATM   19  O   UNL     1     -41.044  56.060 -53.689  1.00  0.00    -0.273 OA
BRANCH  17  20
HETATM   20  C   UNL     1     -40.047  52.636 -53.146  1.00  0.00     0.037 A 
HETATM   21  C   UNL     1     -39.769  51.936 -51.975  1.00  0.00     0.071 A 
HETATM   22  C   UNL     1     -39.632  50.545 -52.004  1.00  0.00     0.118 A 
HETATM   23  C   UNL     1     -39.777  49.825 -53.179  1.00  0.00     0.042 A 
HETATM   24  F   UNL     1     -39.359  49.899 -50.863  1.00  0.00    -0.206 F 
HETATM   25  C   UNL     1     -40.066  50.506 -54.354  1.00  0.00     0.005 A 
HETATM   26  C   UNL     1     -40.199  51.899 -54.335  1.00  0.00     0.029 A 
ENDBRANCH  17  20
ENDBRANCH  15  16
ENDBRANCH   1  15
TORSDOF 3
ENDMDL
MODEL 6
REMARK VINA RESULT:      -7.5     13.392     16.544
REMARK  3 active torsions:
REMARK  status: ('A' for Active; 'I' for Inactive)
REMARK    1  A    between atoms: C_6  and  N_7 
REMARK       I    between atoms: N_7  and  C_8 
REMARK    2  A    between atoms: C_8  and  C_9 
REMARK    3  A    between atoms: C_9  and  C_10 
ROOT
HETATM    1  C   UNL     1     -34.197  40.690 -53.779  1.00  0.00     0.286 C 
HETATM    2  N   UNL     1     -32.677  40.775 -53.692  1.00  0.00    -0.056 N 
HETATM    3  H   UNL     1     -32.333  40.428 -54.614  1.00  0.00     0.278 HD
HETATM    4  H   UNL     1     -32.361  41.749 -53.624  1.00  0.00     0.278 HD
HETATM    5  C   UNL     1     -32.055  39.920 -52.624  1.00  0.00     0.209 C 
HETATM    6  C   UNL     1     -32.558  38.461 -52.766  1.00  0.00     0.115 C 
HETATM    7  N   UNL     1     -34.010  38.368 -52.914  1.00  0.00    -0.353 N 
HETATM    8  C   UNL     1     -34.736  39.249 -53.680  1.00  0.00     0.249 C 
HETATM    9  O   UNL     1     -35.812  38.906 -54.158  1.00  0.00    -0.271 OA
HETATM   10  C   UNL     1     -32.326  40.528 -51.246  1.00  0.00     0.035 C 
HETATM   11  C   UNL     1     -31.789  39.631 -50.135  1.00  0.00     0.002 C 
HETATM   12  C   UNL     1     -32.360  38.221 -50.237  1.00  0.00     0.002 C 
HETATM   13  C   UNL     1     -32.071  37.593 -51.601  1.00  0.00     0.027 C 
HETATM   14  H   UNL     1     -34.420  37.435 -52.923  1.00  0.00     0.163 HD
ENDROOT
BRANCH   1  15
HETATM   15  C   UNL     1     -34.734  41.408 -55.028  1.00  0.00     0.146 C 
BRANCH  15  16
HETATM   16  C   UNL     1     -35.975  42.203 -54.721  1.00  0.00     0.224 C 
HETATM   17  N   UNL     1     -37.029  42.284 -55.572  1.00  0.00    -0.327 N 
HETATM   18  H   UNL     1     -37.761  42.881 -55.194  1.00  0.00     0.169 HD
HETATM   19  O   UNL     1     -36.067  42.746 -53.610  1.00  0.00    -0.273 OA
BRANCH  17  20
HETATM   20  C   UNL     1     -37.325  41.725 -56.833  1.00  0.00     0.037 A 
HETATM   21  C   UNL     1     -37.073  42.312 -58.071  1.00  0.00     0.071 A 
HETATM   22  C   UNL     1     -37.418  41.643 -59.248  1.00  0.00     0.118 A 
HETATM   23  C   UNL     1     -38.005  40.387 -59.225  1.00  0.00     0.042 A 
HETATM   24  F   UNL     1     -37.169  42.234 -60.424  1.00  0.00    -0.206 F 
HETATM   25  C   UNL     1     -38.253  39.783 -58.000  1.00  0.00     0.005 A 
HETATM   26  C   UNL     1     -37.916  40.448 -56.816  1.00  0.00     0.029 A 
ENDBRANCH  17  20
ENDBRANCH  15  16
ENDBRANCH   1  15
TORSDOF 3
ENDMDL
MODEL 7
REMARK VINA RESULT:      -7.4     13.760     15.250
REMARK  3 active torsions:
REMARK  status: ('A' for Active; 'I' for Inactive)
REMARK    1  A    between atoms: C_6  and  N_7 
REMARK       I    between atoms: N_7  and  C_8 
REMARK    2  A    between atoms: C_8  and  C_9 
REMARK    3  A    between atoms: C_9  and  C_10 
ROOT
HETATM    1  C   UNL     1     -36.975  41.128 -53.210  1.00  0.00     0.286 C 
HETATM    2  N   UNL     1     -36.952  39.926 -54.148  1.00  0.00    -0.056 N 
HETATM    3  H   UNL     1     -36.201  39.305 -53.774  1.00  0.00     0.278 HD
HETATM    4  H   UNL     1     -37.821  39.384 -54.083  1.00  0.00     0.278 HD
HETATM    5  C   UNL     1     -36.608  40.244 -55.577  1.00  0.00     0.209 C 
HETATM    6  C   UNL     1     -35.291  41.059 -55.626  1.00  0.00     0.115 C 
HETATM    7  N   UNL     1     -35.274  42.179 -54.687  1.00  0.00    -0.353 N 
HETATM    8  C   UNL     1     -35.785  42.087 -53.413  1.00  0.00     0.249 C 
HETATM    9  O   UNL     1     -35.364  42.823 -52.527  1.00  0.00    -0.271 OA
HETATM   10  C   UNL     1     -37.788  40.947 -56.252  1.00  0.00     0.035 C 
HETATM   11  C   UNL     1     -37.433  41.368 -57.675  1.00  0.00     0.002 C 
HETATM   12  C   UNL     1     -36.183  42.241 -57.699  1.00  0.00     0.002 C 
HETATM   13  C   UNL     1     -34.991  41.537 -57.051  1.00  0.00     0.027 C 
HETATM   14  H   UNL     1     -34.476  42.811 -54.727  1.00  0.00     0.163 HD
ENDROOT
BRANCH   1  15
HETATM   15  C   UNL     1     -37.109  40.698 -51.741  1.00  0.00     0.146 C 
BRANCH  15  16
HETATM   16  C   UNL     1     -36.902  39.216 -51.574  1.00  0.00     0.224 C 
HETATM   17  N   UNL     1     -35.687  38.664 -51.324  1.00  0.00    -0.327 N 
HETATM   18  H   UNL     1     -35.751  37.651 -51.263  1.00  0.00     0.169 HD
HETATM   19  O   UNL     1     -37.897  38.476 -51.591  1.00  0.00    -0.273 OA
BRANCH  17  20
HETATM   20  C   UNL     1     -34.389  39.181 -51.129  1.00  0.00     0.037 A 
HETATM   21  C   UNL     1     -33.827  39.546 -49.908  1.00  0.00     0.071 A 
HETATM   22  C   UNL     1     -32.522  40.045 -49.858  1.00  0.00     0.118 A 
HETATM   23  C   UNL     1     -31.752  40.181 -51.002  1.00  0.00     0.042 A 
HETATM   24  F   UNL     1     -32.009  40.394 -48.671  1.00  0.00    -0.206 F 
HETATM   25  C   UNL     1     -32.293  39.811 -52.226  1.00  0.00     0.005 A 
HETATM   26  C   UNL     1     -33.601  39.316 -52.286  1.00  0.00     0.029 A 
ENDBRANCH  17  20
ENDBRANCH  15  16
ENDBRANCH   1  15
TORSDOF 3
ENDMDL
MODEL 8
REMARK VINA RESULT:      -7.4      1.475      2.174
REMARK  3 active torsions:
REMARK  status: ('A' for Active; 'I' for Inactive)
REMARK    1  A    between atoms: C_6  and  N_7 
REMARK       I    between atoms: N_7  and  C_8 
REMARK    2  A    between atoms: C_8  and  C_9 
REMARK    3  A    between atoms: C_9  and  C_10 
ROOT
HETATM    1  C   UNL     1     -42.565  55.528 -53.298  1.00  0.00     0.286 C 
HETATM    2  N   UNL     1     -44.068  55.636 -53.535  1.00  0.00    -0.056 N 
HETATM    3  H   UNL     1     -44.324  54.765 -54.049  1.00  0.00     0.278 HD
HETATM    4  H   UNL     1     -44.589  55.603 -52.651  1.00  0.00     0.278 HD
HETATM    5  C   UNL     1     -44.494  56.804 -54.379  1.00  0.00     0.209 C 
HETATM    6  C   UNL     1     -43.684  56.813 -55.701  1.00  0.00     0.115 C 
HETATM    7  N   UNL     1     -42.246  56.647 -55.494  1.00  0.00    -0.353 N 
HETATM    8  C   UNL     1     -41.726  55.774 -54.567  1.00  0.00     0.249 C 
HETATM    9  O   UNL     1     -40.600  55.315 -54.720  1.00  0.00    -0.271 OA
HETATM   10  C   UNL     1     -44.367  58.102 -53.578  1.00  0.00     0.035 C 
HETATM   11  C   UNL     1     -44.701  59.315 -54.440  1.00  0.00     0.002 C 
HETATM   12  C   UNL     1     -43.835  59.356 -55.696  1.00  0.00     0.002 C 
HETATM   13  C   UNL     1     -43.975  58.076 -56.519  1.00  0.00     0.027 C 
HETATM   14  H   UNL     1     -41.643  56.731 -56.311  1.00  0.00     0.163 HD
ENDROOT
BRANCH   1  15
HETATM   15  C   UNL     1     -42.193  54.198 -52.624  1.00  0.00     0.146 C 
BRANCH  15  16
HETATM   16  C   UNL     1     -41.037  54.361 -51.672  1.00  0.00     0.224 C 
HETATM   17  N   UNL     1     -40.127  53.382 -51.443  1.00  0.00    -0.327 N 
HETATM   18  H   UNL     1     -39.436  53.677 -50.757  1.00  0.00     0.169 HD
HETATM   19  O   UNL     1     -40.869  55.466 -51.134  1.00  0.00    -0.273 OA
BRANCH  17  20
HETATM   20  C   UNL     1     -39.931  52.077 -51.943  1.00  0.00     0.037 A 
HETATM   21  C   UNL     1     -39.826  51.720 -53.285  1.00  0.00     0.071 A 
HETATM   22  C   UNL     1     -39.631  50.384 -53.642  1.00  0.00     0.118 A 
HETATM   23  C   UNL     1     -39.527  49.384 -52.688  1.00  0.00     0.042 A 
HETATM   24  F   UNL     1     -39.538  50.068 -54.941  1.00  0.00    -0.206 F 
HETATM   25  C   UNL     1     -39.619  49.724 -51.345  1.00  0.00     0.005 A 
HETATM   26  C   UNL     1     -39.820  51.060 -50.978  1.00  0.00     0.029 A 
ENDBRANCH  17  20
ENDBRANCH  15  16
ENDBRANCH   1  15
TORSDOF 3
ENDMDL
MODEL 9
REMARK VINA RESULT:      -7.2      2.989      4.469
REMARK  3 active torsions:
REMARK  status: ('A' for Active; 'I' for Inactive)
REMARK    1  A    between atoms: C_6  and  N_7 
REMARK       I    between atoms: N_7  and  C_8 
REMARK    2  A    between atoms: C_8  and  C_9 
REMARK    3  A    between atoms: C_9  and  C_10 
ROOT
HETATM    1  C   UNL     1     -41.270  57.228 -53.704  1.00  0.00     0.286 C 
HETATM    2  N   UNL     1     -41.863  56.738 -52.387  1.00  0.00    -0.056 N 
HETATM    3  H   UNL     1     -42.789  56.332 -52.642  1.00  0.00     0.278 HD
HETATM    4  H   UNL     1     -41.316  55.963 -51.996  1.00  0.00     0.278 HD
HETATM    5  C   UNL     1     -42.102  57.812 -51.363  1.00  0.00     0.209 C 
HETATM    6  C   UNL     1     -42.932  58.958 -51.996  1.00  0.00     0.115 C 
HETATM    7  N   UNL     1     -42.412  59.396 -53.290  1.00  0.00    -0.353 N 
HETATM    8  C   UNL     1     -41.931  58.516 -54.232  1.00  0.00     0.249 C 
HETATM    9  O   UNL     1     -41.943  58.821 -55.420  1.00  0.00    -0.271 OA
HETATM   10  C   UNL     1     -40.769  58.277 -50.773  1.00  0.00     0.035 C 
HETATM   11  C   UNL     1     -40.974  59.434 -49.800  1.00  0.00     0.002 C 
HETATM   12  C   UNL     1     -41.716  60.590 -50.462  1.00  0.00     0.002 C 
HETATM   13  C   UNL     1     -43.063  60.142 -51.032  1.00  0.00     0.027 C 
HETATM   14  H   UNL     1     -42.855  60.205 -53.723  1.00  0.00     0.163 HD
ENDROOT
BRANCH   1  15
HETATM   15  C   UNL     1     -41.266  56.119 -54.770  1.00  0.00     0.146 C 
BRANCH  15  16
HETATM   16  C   UNL     1     -42.477  55.232 -54.654  1.00  0.00     0.224 C 
HETATM   17  N   UNL     1     -42.439  54.004 -54.077  1.00  0.00    -0.327 N 
HETATM   18  H   UNL     1     -43.351  53.556 -54.112  1.00  0.00     0.169 HD
HETATM   19  O   UNL     1     -43.570  55.675 -55.036  1.00  0.00    -0.273 OA
BRANCH  17  20
HETATM   20  C   UNL     1     -41.435  53.239 -53.447  1.00  0.00     0.037 A 
HETATM   21  C   UNL     1     -41.058  53.322 -52.109  1.00  0.00     0.071 A 
HETATM   22  C   UNL     1     -40.043  52.498 -51.615  1.00  0.00     0.118 A 
HETATM   23  C   UNL     1     -39.395  51.578 -52.423  1.00  0.00     0.042 A 
HETATM   24  F   UNL     1     -39.697  52.603 -50.325  1.00  0.00    -0.206 F 
HETATM   25  C   UNL     1     -39.767  51.474 -53.757  1.00  0.00     0.005 A 
HETATM   26  C   UNL     1     -40.778  52.299 -54.262  1.00  0.00     0.029 A 
ENDBRANCH  17  20
ENDBRANCH  15  16
ENDBRANCH   1  15
TORSDOF 3
ENDMDL
MODEL 10
REMARK VINA RESULT:      -7.2     13.776     15.316
REMARK  3 active torsions:
REMARK  status: ('A' for Active; 'I' for Inactive)
REMARK    1  A    between atoms: C_6  and  N_7 
REMARK       I    between atoms: N_7  and  C_8 
REMARK    2  A    between atoms: C_8  and  C_9 
REMARK    3  A    between atoms: C_9  and  C_10 
ROOT
HETATM    1  C   UNL     1     -36.313  40.650 -54.900  1.00  0.00     0.286 C 
HETATM    2  N   UNL     1     -37.338  41.699 -55.318  1.00  0.00    -0.056 N 
HETATM    3  H   UNL     1     -38.185  41.494 -54.743  1.00  0.00     0.278 HD
HETATM    4  H   UNL     1     -37.039  42.643 -55.049  1.00  0.00     0.278 HD
HETATM    5  C   UNL     1     -37.746  41.645 -56.764  1.00  0.00     0.209 C 
HETATM    6  C   UNL     1     -38.192  40.205 -57.125  1.00  0.00     0.115 C 
HETATM    7  N   UNL     1     -37.248  39.182 -56.674  1.00  0.00    -0.353 N 
HETATM    8  C   UNL     1     -36.614  39.244 -55.456  1.00  0.00     0.249 C 
HETATM    9  O   UNL     1     -36.222  38.216 -54.914  1.00  0.00    -0.271 OA
HETATM   10  C   UNL     1     -36.613  42.172 -57.646  1.00  0.00     0.035 C 
HETATM   11  C   UNL     1     -36.962  42.039 -59.125  1.00  0.00     0.002 C 
HETATM   12  C   UNL     1     -37.315  40.599 -59.484  1.00  0.00     0.002 C 
HETATM   13  C   UNL     1     -38.465  40.071 -58.627  1.00  0.00     0.027 C 
HETATM   14  H   UNL     1     -37.433  38.220 -56.954  1.00  0.00     0.163 HD
ENDROOT
BRANCH   1  15
HETATM   15  C   UNL     1     -36.118  40.625 -53.376  1.00  0.00     0.146 C 
BRANCH  15  16
HETATM   16  C   UNL     1     -35.446  41.877 -52.880  1.00  0.00     0.224 C 
HETATM   17  N   UNL     1     -34.380  41.860 -52.041  1.00  0.00    -0.327 N 
HETATM   18  H   UNL     1     -34.081  42.804 -51.808  1.00  0.00     0.169 HD
HETATM   19  O   UNL     1     -35.838  42.969 -53.318  1.00  0.00    -0.273 OA
BRANCH  17  20
HETATM   20  C   UNL     1     -33.610  40.840 -51.443  1.00  0.00     0.037 A 
HETATM   21  C   UNL     1     -33.680  40.430 -50.114  1.00  0.00     0.071 A 
HETATM   22  C   UNL     1     -32.856  39.400 -49.653  1.00  0.00     0.118 A 
HETATM   23  C   UNL     1     -31.961  38.755 -50.492  1.00  0.00     0.042 A 
HETATM   24  F   UNL     1     -32.941  39.030 -48.369  1.00  0.00    -0.206 F 
HETATM   25  C   UNL     1     -31.886  39.143 -51.823  1.00  0.00     0.005 A 
HETATM   26  C   UNL     1     -32.704  40.177 -52.292  1.00  0.00     0.029 A 
ENDBRANCH  17  20
ENDBRANCH  15  16
ENDBRANCH   1  15
TORSDOF 3
ENDMDL
