MODEL 1
REMARK VINA RESULT:      -8.8      0.000      0.000
REMARK  4 active torsions:
REMARK  status: ('A' for Active; 'I' for Inactive)
REMARK    1  A    between atoms: N_4  and  C_5 
REMARK    2  A    between atoms: C_14  and  C_15 
REMARK       I    between atoms: C_15  and  N_16 
REMARK    3  A    between atoms: N_16  and  N_17 
REMARK       I    between atoms: N_17  and  C_18 
REMARK       I    between atoms: C_18  and  N_19 
REMARK    4  A    between atoms: N_19  and  C_20 
ROOT
HETATM    1  C   UNL     1     -41.940  57.921 -52.197  1.00  0.00     0.277 C 
HETATM    2  N   UNL     1     -41.783  58.138 -53.552  1.00  0.00    -0.261 N 
HETATM    3  O   UNL     1     -42.403  58.793 -51.463  1.00  0.00    -0.265 OA
HETATM    4  H   UNL     1     -41.298  57.469 -54.151  1.00  0.00     0.190 HD
ENDROOT
BRANCH   1   5
HETATM    5  C   UNL     1     -41.522  56.608 -51.726  1.00  0.00     0.077 A 
HETATM    6  S   UNL     1     -41.287  55.282 -52.841  1.00  0.00    -0.064 SA
HETATM    7  C   UNL     1     -40.822  54.279 -51.598  1.00  0.00     0.113 A 
HETATM    8  N   UNL     1     -40.391  52.993 -51.384  1.00  0.00    -0.226 N 
HETATM    9  C   UNL     1     -40.850  54.892 -50.410  1.00  0.00     0.027 A 
HETATM   10  N   UNL     1     -40.182  52.803 -50.026  1.00  0.00    -0.171 NA
HETATM   11  C   UNL     1     -40.468  53.983 -49.442  1.00  0.00     0.064 A 
HETATM   12  C   UNL     1     -40.357  54.152 -47.976  1.00  0.00     0.073 C 
HETATM   13  C   UNL     1     -41.233  56.230 -50.413  1.00  0.00     0.041 A 
BRANCH   8  14
HETATM   14  C   UNL     1     -40.137  51.930 -52.300  1.00  0.00     0.059 A 
HETATM   15  C   UNL     1     -39.748  50.676 -51.797  1.00  0.00     0.031 A 
HETATM   16  C   UNL     1     -39.475  49.615 -52.663  1.00  0.00     0.002 A 
HETATM   17  C   UNL     1     -39.590  49.790 -54.039  1.00  0.00     0.000 A 
HETATM   18  C   UNL     1     -39.979  51.026 -54.549  1.00  0.00     0.002 A 
HETATM   19  C   UNL     1     -40.252  52.094 -53.687  1.00  0.00     0.031 A 
ENDBRANCH   8  14
ENDBRANCH   1   5
BRANCH   2  20
HETATM   20  N   UNL     1     -41.968  59.424 -54.089  1.00  0.00    -0.249 N 
HETATM   21  C   UNL     1     -42.052  59.486 -55.474  1.00  0.00     0.339 C 
HETATM   22  N   UNL     1     -42.115  60.781 -55.932  1.00  0.00    -0.308 N 
HETATM   23  O   UNL     1     -42.092  58.458 -56.146  1.00  0.00    -0.245 OA
HETATM   24  H   UNL     1     -42.118  61.500 -55.224  1.00  0.00     0.170 HD
HETATM   25  H   UNL     1     -41.520  60.171 -53.567  1.00  0.00     0.192 HD
BRANCH  22  26
HETATM   26  C   UNL     1     -42.250  61.209 -57.270  1.00  0.00     0.038 A 
HETATM   27  C   UNL     1     -41.187  61.662 -58.055  1.00  0.00     0.053 A 
HETATM   28  C   UNL     1     -41.410  62.052 -59.378  1.00  0.00     0.036 A 
HETATM   29 CL   UNL     1     -40.090  62.599 -60.342  1.00  0.00    -0.084 Cl
HETATM   30  C   UNL     1     -42.687  62.001 -59.930  1.00  0.00     0.024 A 
HETATM   31  C   UNL     1     -43.752  61.557 -59.153  1.00  0.00     0.004 A 
HETATM   32  C   UNL     1     -43.534  61.162 -57.830  1.00  0.00     0.029 A 
ENDBRANCH  22  26
ENDBRANCH   2  20
TORSDOF 4
ENDMDL
MODEL 2
REMARK VINA RESULT:      -8.8      4.115     11.045
REMARK  4 active torsions:
REMARK  status: ('A' for Active; 'I' for Inactive)
REMARK    1  A    between atoms: N_4  and  C_5 
REMARK    2  A    between atoms: C_14  and  C_15 
REMARK       I    between atoms: C_15  and  N_16 
REMARK    3  A    between atoms: N_16  and  N_17 
REMARK       I    between atoms: N_17  and  C_18 
REMARK       I    between atoms: C_18  and  N_19 
REMARK    4  A    between atoms: N_19  and  C_20 
ROOT
HETATM    1  C   UNL     1     -43.638  56.019 -58.502  1.00  0.00     0.277 C 
HETATM    2  N   UNL     1     -43.622  55.977 -57.122  1.00  0.00    -0.261 N 
HETATM    3  O   UNL     1     -43.672  54.985 -59.169  1.00  0.00    -0.265 OA
HETATM    4  H   UNL     1     -43.480  56.818 -56.560  1.00  0.00     0.190 HD
ENDROOT
BRANCH   1   5
HETATM    5  C   UNL     1     -43.614  57.354 -59.084  1.00  0.00     0.077 A 
HETATM    6  S   UNL     1     -42.220  58.392 -58.900  1.00  0.00    -0.064 SA
HETATM    7  C   UNL     1     -42.946  59.579 -59.813  1.00  0.00     0.113 A 
HETATM    8  N   UNL     1     -42.690  60.833 -60.310  1.00  0.00    -0.226 N 
HETATM    9  C   UNL     1     -44.169  59.229 -60.225  1.00  0.00     0.027 A 
HETATM   10  N   UNL     1     -43.798  61.277 -61.016  1.00  0.00    -0.171 NA
HETATM   11  C   UNL     1     -44.698  60.276 -60.956  1.00  0.00     0.064 A 
HETATM   12  C   UNL     1     -46.021  60.401 -61.607  1.00  0.00     0.073 C 
HETATM   13  C   UNL     1     -44.609  57.963 -59.850  1.00  0.00     0.041 A 
BRANCH   8  14
HETATM   14  C   UNL     1     -41.529  61.654 -60.215  1.00  0.00     0.059 A 
HETATM   15  C   UNL     1     -40.986  62.203 -61.390  1.00  0.00     0.031 A 
HETATM   16  C   UNL     1     -39.840  63.000 -61.341  1.00  0.00     0.002 A 
HETATM   17  C   UNL     1     -39.224  63.261 -60.120  1.00  0.00     0.000 A 
HETATM   18  C   UNL     1     -39.755  62.726 -58.949  1.00  0.00     0.002 A 
HETATM   19  C   UNL     1     -40.902  61.926 -58.993  1.00  0.00     0.031 A 
ENDBRANCH   8  14
ENDBRANCH   1   5
BRANCH   2  20
HETATM   20  N   UNL     1     -43.448  54.753 -56.452  1.00  0.00    -0.249 N 
HETATM   21  C   UNL     1     -42.422  54.725 -55.517  1.00  0.00     0.339 C 
HETATM   22  N   UNL     1     -42.237  53.468 -54.988  1.00  0.00    -0.308 N 
HETATM   23  O   UNL     1     -41.814  55.750 -55.222  1.00  0.00    -0.245 OA
HETATM   24  H   UNL     1     -42.868  52.753 -55.319  1.00  0.00     0.170 HD
HETATM   25  H   UNL     1     -43.659  53.930 -57.009  1.00  0.00     0.192 HD
BRANCH  22  26
HETATM   26  C   UNL     1     -41.317  53.088 -53.989  1.00  0.00     0.038 A 
HETATM   27  C   UNL     1     -41.202  53.725 -52.750  1.00  0.00     0.053 A 
HETATM   28  C   UNL     1     -40.273  53.270 -51.812  1.00  0.00     0.036 A 
HETATM   29 CL   UNL     1     -40.147  54.056 -50.283  1.00  0.00    -0.084 Cl
HETATM   30  C   UNL     1     -39.447  52.186 -52.095  1.00  0.00     0.024 A 
HETATM   31  C   UNL     1     -39.550  51.549 -53.328  1.00  0.00     0.004 A 
HETATM   32  C   UNL     1     -40.482  51.998 -54.269  1.00  0.00     0.029 A 
ENDBRANCH  22  26
ENDBRANCH   2  20
TORSDOF 4
ENDMDL
MODEL 3
REMARK VINA RESULT:      -8.6      1.942      2.680
REMARK  4 active torsions:
REMARK  status: ('A' for Active; 'I' for Inactive)
REMARK    1  A    between atoms: N_4  and  C_5 
REMARK    2  A    between atoms: C_14  and  C_15 
REMARK       I    between atoms: C_15  and  N_16 
REMARK    3  A    between atoms: N_16  and  N_17 
REMARK       I    between atoms: N_17  and  C_18 
REMARK       I    between atoms: C_18  and  N_19 
REMARK    4  A    between atoms: N_19  and  C_20 
ROOT
HETATM    1  C   UNL     1     -41.886  59.213 -53.708  1.00  0.00     0.277 C 
HETATM    2  N   UNL     1     -42.347  59.420 -54.993  1.00  0.00    -0.261 N 
HETATM    3  O   UNL     1     -41.366  60.125 -53.064  1.00  0.00    -0.265 OA
HETATM    4  H   UNL     1     -42.675  58.650 -55.577  1.00  0.00     0.190 HD
ENDROOT
BRANCH   1   5
HETATM    5  C   UNL     1     -42.063  57.862 -53.194  1.00  0.00     0.077 A 
HETATM    6  S   UNL     1     -41.066  56.544 -53.761  1.00  0.00    -0.064 SA
HETATM    7  C   UNL     1     -41.828  55.483 -52.730  1.00  0.00     0.113 A 
HETATM    8  N   UNL     1     -41.788  54.163 -52.355  1.00  0.00    -0.226 N 
HETATM    9  C   UNL     1     -42.785  56.074 -52.007  1.00  0.00     0.027 A 
HETATM   10  N   UNL     1     -42.769  53.932 -51.402  1.00  0.00    -0.171 NA
HETATM   11  C   UNL     1     -43.372  55.119 -51.198  1.00  0.00     0.064 A 
HETATM   12  C   UNL     1     -44.485  55.251 -50.233  1.00  0.00     0.073 C 
HETATM   13  C   UNL     1     -42.965  57.438 -52.217  1.00  0.00     0.041 A 
BRANCH   8  14
HETATM   14  C   UNL     1     -40.932  53.101 -52.771  1.00  0.00     0.059 A 
HETATM   15  C   UNL     1     -40.999  52.656 -54.103  1.00  0.00     0.031 A 
HETATM   16  C   UNL     1     -40.189  51.607 -54.544  1.00  0.00     0.002 A 
HETATM   17  C   UNL     1     -39.301  50.993 -53.665  1.00  0.00     0.000 A 
HETATM   18  C   UNL     1     -39.224  51.429 -52.344  1.00  0.00     0.002 A 
HETATM   19  C   UNL     1     -40.034  52.477 -51.896  1.00  0.00     0.031 A 
ENDBRANCH   8  14
ENDBRANCH   1   5
BRANCH   2  20
HETATM   20  N   UNL     1     -42.059  60.621 -55.664  1.00  0.00    -0.249 N 
HETATM   21  C   UNL     1     -41.769  60.495 -57.016  1.00  0.00     0.339 C 
HETATM   22  N   UNL     1     -41.386  61.691 -57.578  1.00  0.00    -0.308 N 
HETATM   23  O   UNL     1     -41.895  59.415 -57.586  1.00  0.00    -0.245 OA
HETATM   24  H   UNL     1     -41.388  62.490 -56.960  1.00  0.00     0.170 HD
HETATM   25  H   UNL     1     -41.585  61.321 -55.100  1.00  0.00     0.192 HD
BRANCH  22  26
HETATM   26  C   UNL     1     -41.064  61.937 -58.929  1.00  0.00     0.038 A 
HETATM   27  C   UNL     1     -41.803  61.449 -60.010  1.00  0.00     0.053 A 
HETATM   28  C   UNL     1     -41.420  61.756 -61.317  1.00  0.00     0.036 A 
HETATM   29 CL   UNL     1     -42.345  61.158 -62.642  1.00  0.00    -0.084 Cl
HETATM   30  C   UNL     1     -40.298  62.543 -61.564  1.00  0.00     0.024 A 
HETATM   31  C   UNL     1     -39.552  63.029 -60.494  1.00  0.00     0.004 A 
HETATM   32  C   UNL     1     -39.935  62.727 -59.184  1.00  0.00     0.029 A 
ENDBRANCH  22  26
ENDBRANCH   2  20
TORSDOF 4
ENDMDL
MODEL 4
REMARK VINA RESULT:      -8.3      2.216      2.737
REMARK  4 active torsions:
REMARK  status: ('A' for Active; 'I' for Inactive)
REMARK    1  A    between atoms: N_4  and  C_5 
REMARK    2  A    between atoms: C_14  and  C_15 
REMARK       I    between atoms: C_15  and  N_16 
REMARK    3  A    between atoms: N_16  and  N_17 
REMARK       I    between atoms: N_17  and  C_18 
REMARK       I    between atoms: C_18  and  N_19 
REMARK    4  A    between atoms: N_19  and  C_20 
ROOT
HETATM    1  C   UNL     1     -43.837  56.516 -54.945  1.00  0.00     0.277 C 
HETATM    2  N   UNL     1     -43.585  56.229 -56.272  1.00  0.00    -0.261 N 
HETATM    3  O   UNL     1     -44.697  57.336 -54.624  1.00  0.00    -0.265 OA
HETATM    4  H   UNL     1     -42.802  55.638 -56.554  1.00  0.00     0.190 HD
ENDROOT
BRANCH   1   5
HETATM    5  C   UNL     1     -43.022  55.785 -53.984  1.00  0.00     0.077 A 
HETATM    6  S   UNL     1     -42.437  54.176 -54.338  1.00  0.00    -0.064 SA
HETATM    7  C   UNL     1     -41.641  54.112 -52.879  1.00  0.00     0.113 A 
HETATM    8  N   UNL     1     -40.831  53.273 -52.154  1.00  0.00    -0.226 N 
HETATM    9  C   UNL     1     -41.809  55.225 -52.156  1.00  0.00     0.027 A 
HETATM   10  N   UNL     1     -40.523  53.873 -50.942  1.00  0.00    -0.171 NA
HETATM   11  C   UNL     1     -41.131  55.075 -50.962  1.00  0.00     0.064 A 
HETATM   12  C   UNL     1     -41.021  56.002 -49.813  1.00  0.00     0.073 C 
HETATM   13  C   UNL     1     -42.581  56.227 -52.736  1.00  0.00     0.041 A 
BRANCH   8  14
HETATM   14  C   UNL     1     -40.301  51.987 -52.469  1.00  0.00     0.059 A 
HETATM   15  C   UNL     1     -40.198  51.606 -53.819  1.00  0.00     0.031 A 
HETATM   16  C   UNL     1     -39.700  50.348 -54.167  1.00  0.00     0.002 A 
HETATM   17  C   UNL     1     -39.295  49.459 -53.175  1.00  0.00     0.000 A 
HETATM   18  C   UNL     1     -39.388  49.828 -51.836  1.00  0.00     0.002 A 
HETATM   19  C   UNL     1     -39.888  51.085 -51.481  1.00  0.00     0.031 A 
ENDBRANCH   8  14
ENDBRANCH   1   5
BRANCH   2  20
HETATM   20  N   UNL     1     -44.168  57.005 -57.288  1.00  0.00    -0.249 N 
HETATM   21  C   UNL     1     -43.325  57.926 -57.894  1.00  0.00     0.339 C 
HETATM   22  N   UNL     1     -43.991  58.726 -58.793  1.00  0.00    -0.308 N 
HETATM   23  O   UNL     1     -42.125  57.945 -57.632  1.00  0.00    -0.245 OA
HETATM   24  H   UNL     1     -44.974  58.532 -58.914  1.00  0.00     0.170 HD
HETATM   25  H   UNL     1     -45.151  57.223 -57.146  1.00  0.00     0.192 HD
BRANCH  22  26
HETATM   26  C   UNL     1     -43.440  59.733 -59.614  1.00  0.00     0.038 A 
HETATM   27  C   UNL     1     -43.693  61.097 -59.453  1.00  0.00     0.053 A 
HETATM   28  C   UNL     1     -43.091  62.027 -60.303  1.00  0.00     0.036 A 
HETATM   29 CL   UNL     1     -43.401  63.709 -60.089  1.00  0.00    -0.084 Cl
HETATM   30  C   UNL     1     -42.238  61.612 -61.323  1.00  0.00     0.024 A 
HETATM   31  C   UNL     1     -41.984  60.255 -61.494  1.00  0.00     0.004 A 
HETATM   32  C   UNL     1     -42.582  59.320 -60.643  1.00  0.00     0.029 A 
ENDBRANCH  22  26
ENDBRANCH   2  20
TORSDOF 4
ENDMDL
MODEL 5
REMARK VINA RESULT:      -8.3      2.211      2.512
REMARK  4 active torsions:
REMARK  status: ('A' for Active; 'I' for Inactive)
REMARK    1  A    between atoms: N_4  and  C_5 
REMARK    2  A    between atoms: C_14  and  C_15 
REMARK       I    between atoms: C_15  and  N_16 
REMARK    3  A    between atoms: N_16  and  N_17 
REMARK       I    between atoms: N_17  and  C_18 
REMARK       I    between atoms: C_18  and  N_19 
REMARK    4  A    between atoms: N_19  and  C_20 
ROOT
HETATM    1  C   UNL     1     -43.305  57.192 -52.286  1.00  0.00     0.277 C 
HETATM    2  N   UNL     1     -44.415  56.880 -53.045  1.00  0.00    -0.261 N 
HETATM    3  O   UNL     1     -42.994  58.363 -52.066  1.00  0.00    -0.265 OA
HETATM    4  H   UNL     1     -44.620  55.921 -53.329  1.00  0.00     0.190 HD
ENDROOT
BRANCH   1   5
HETATM    5  C   UNL     1     -42.554  56.051 -51.783  1.00  0.00     0.077 A 
HETATM    6  S   UNL     1     -42.162  54.701 -52.822  1.00  0.00    -0.064 SA
HETATM    7  C   UNL     1     -41.344  53.947 -51.584  1.00  0.00     0.113 A 
HETATM    8  N   UNL     1     -40.616  52.809 -51.339  1.00  0.00    -0.226 N 
HETATM    9  C   UNL     1     -41.369  54.656 -50.450  1.00  0.00     0.027 A 
HETATM   10  N   UNL     1     -40.214  52.803 -50.012  1.00  0.00    -0.171 NA
HETATM   11  C   UNL     1     -40.684  53.949 -49.480  1.00  0.00     0.064 A 
HETATM   12  C   UNL     1     -40.443  54.283 -48.059  1.00  0.00     0.073 C 
HETATM   13  C   UNL     1     -42.037  55.875 -50.498  1.00  0.00     0.041 A 
BRANCH   8  14
HETATM   14  C   UNL     1     -40.242  51.738 -52.203  1.00  0.00     0.059 A 
HETATM   15  C   UNL     1     -39.863  50.508 -51.636  1.00  0.00     0.031 A 
HETATM   16  C   UNL     1     -39.474  49.440 -52.447  1.00  0.00     0.002 A 
HETATM   17  C   UNL     1     -39.461  49.584 -53.832  1.00  0.00     0.000 A 
HETATM   18  C   UNL     1     -39.839  50.796 -54.405  1.00  0.00     0.002 A 
HETATM   19  C   UNL     1     -40.227  51.870 -53.597  1.00  0.00     0.031 A 
ENDBRANCH   8  14
ENDBRANCH   1   5
BRANCH   2  20
HETATM   20  N   UNL     1     -45.104  57.888 -53.742  1.00  0.00    -0.249 N 
HETATM   21  C   UNL     1     -44.999  57.836 -55.125  1.00  0.00     0.339 C 
HETATM   22  N   UNL     1     -45.598  58.915 -55.732  1.00  0.00    -0.308 N 
HETATM   23  O   UNL     1     -44.447  56.887 -55.677  1.00  0.00    -0.245 OA
HETATM   24  H   UNL     1     -46.047  59.576 -55.114  1.00  0.00     0.170 HD
HETATM   25  H   UNL     1     -45.147  58.783 -53.262  1.00  0.00     0.192 HD
BRANCH  22  26
HETATM   26  C   UNL     1     -45.718  59.161 -57.116  1.00  0.00     0.038 A 
HETATM   27  C   UNL     1     -44.689  59.675 -57.909  1.00  0.00     0.053 A 
HETATM   28  C   UNL     1     -44.891  59.871 -59.278  1.00  0.00     0.036 A 
HETATM   29 CL   UNL     1     -43.612  60.495 -60.249  1.00  0.00    -0.084 Cl
HETATM   30  C   UNL     1     -46.114  59.566 -59.868  1.00  0.00     0.024 A 
HETATM   31  C   UNL     1     -47.146  59.059 -59.084  1.00  0.00     0.004 A 
HETATM   32  C   UNL     1     -46.948  58.857 -57.715  1.00  0.00     0.029 A 
ENDBRANCH  22  26
ENDBRANCH   2  20
TORSDOF 4
ENDMDL
MODEL 6
REMARK VINA RESULT:      -8.3      2.424      3.095
REMARK  4 active torsions:
REMARK  status: ('A' for Active; 'I' for Inactive)
REMARK    1  A    between atoms: N_4  and  C_5 
REMARK    2  A    between atoms: C_14  and  C_15 
REMARK       I    between atoms: C_15  and  N_16 
REMARK    3  A    between atoms: N_16  and  N_17 
REMARK       I    between atoms: N_17  and  C_18 
REMARK       I    between atoms: C_18  and  N_19 
REMARK    4  A    between atoms: N_19  and  C_20 
ROOT
HETATM    1  C   UNL     1     -43.005  57.176 -56.549  1.00  0.00     0.277 C 
HETATM    2  N   UNL     1     -42.093  57.378 -57.566  1.00  0.00    -0.261 N 
HETATM    3  O   UNL     1     -44.172  57.555 -56.657  1.00  0.00    -0.265 OA
HETATM    4  H   UNL     1     -41.101  57.172 -57.446  1.00  0.00     0.190 HD
ENDROOT
BRANCH   1   5
HETATM    5  C   UNL     1     -42.485  56.494 -55.373  1.00  0.00     0.077 A 
HETATM    6  S   UNL     1     -41.961  54.828 -55.455  1.00  0.00    -0.064 SA
HETATM    7  C   UNL     1     -41.520  54.856 -53.851  1.00  0.00     0.113 A 
HETATM    8  N   UNL     1     -40.960  54.044 -52.896  1.00  0.00    -0.226 N 
HETATM    9  C   UNL     1     -41.760  56.040 -53.276  1.00  0.00     0.027 A 
HETATM   10  N   UNL     1     -40.886  54.737 -51.696  1.00  0.00    -0.171 NA
HETATM   11  C   UNL     1     -41.381  55.964 -51.950  1.00  0.00     0.064 A 
HETATM   12  C   UNL     1     -41.460  56.987 -50.884  1.00  0.00     0.073 C 
HETATM   13  C   UNL     1     -42.303  57.025 -54.095  1.00  0.00     0.041 A 
BRANCH   8  14
HETATM   14  C   UNL     1     -40.473  52.707 -52.978  1.00  0.00     0.059 A 
HETATM   15  C   UNL     1     -40.585  52.016 -54.198  1.00  0.00     0.031 A 
HETATM   16  C   UNL     1     -40.135  50.699 -54.314  1.00  0.00     0.002 A 
HETATM   17  C   UNL     1     -39.565  50.057 -53.218  1.00  0.00     0.000 A 
HETATM   18  C   UNL     1     -39.445  50.732 -52.006  1.00  0.00     0.002 A 
HETATM   19  C   UNL     1     -39.896  52.051 -51.883  1.00  0.00     0.031 A 
ENDBRANCH   8  14
ENDBRANCH   1   5
BRANCH   2  20
HETATM   20  N   UNL     1     -42.424  58.191 -58.664  1.00  0.00    -0.249 N 
HETATM   21  C   UNL     1     -41.976  59.503 -58.593  1.00  0.00     0.339 C 
HETATM   22  N   UNL     1     -42.434  60.265 -59.642  1.00  0.00    -0.308 N 
HETATM   23  O   UNL     1     -41.231  59.862 -57.685  1.00  0.00    -0.245 OA
HETATM   24  H   UNL     1     -43.001  59.783 -60.323  1.00  0.00     0.170 HD
HETATM   25  H   UNL     1     -43.317  57.976 -59.098  1.00  0.00     0.192 HD
BRANCH  22  26
HETATM   26  C   UNL     1     -42.141  61.620 -59.906  1.00  0.00     0.038 A 
HETATM   27  C   UNL     1     -40.939  62.064 -60.463  1.00  0.00     0.053 A 
HETATM   28  C   UNL     1     -40.741  63.425 -60.707  1.00  0.00     0.036 A 
HETATM   29 CL   UNL     1     -39.259  63.962 -61.404  1.00  0.00    -0.084 Cl
HETATM   30  C   UNL     1     -41.728  64.356 -60.396  1.00  0.00     0.024 A 
HETATM   31  C   UNL     1     -42.927  63.923 -59.835  1.00  0.00     0.004 A 
HETATM   32  C   UNL     1     -43.131  62.561 -59.593  1.00  0.00     0.029 A 
ENDBRANCH  22  26
ENDBRANCH   2  20
TORSDOF 4
ENDMDL
MODEL 7
REMARK VINA RESULT:      -8.3     17.013     20.298
REMARK  4 active torsions:
REMARK  status: ('A' for Active; 'I' for Inactive)
REMARK    1  A    between atoms: N_4  and  C_5 
REMARK    2  A    between atoms: C_14  and  C_15 
REMARK       I    between atoms: C_15  and  N_16 
REMARK    3  A    between atoms: N_16  and  N_17 
REMARK       I    between atoms: N_17  and  C_18 
REMARK       I    between atoms: C_18  and  N_19 
REMARK    4  A    between atoms: N_19  and  C_20 
ROOT
HETATM    1  C   UNL     1     -33.039  40.457 -52.650  1.00  0.00     0.277 C 
HETATM    2  N   UNL     1     -33.081  39.892 -51.390  1.00  0.00    -0.261 N 
HETATM    3  O   UNL     1     -31.969  40.780 -53.166  1.00  0.00    -0.265 OA
HETATM    4  H   UNL     1     -33.963  39.724 -50.906  1.00  0.00     0.190 HD
ENDROOT
BRANCH   1   5
HETATM    5  C   UNL     1     -34.332  40.633 -53.295  1.00  0.00     0.077 A 
HETATM    6  S   UNL     1     -34.467  40.712 -55.037  1.00  0.00    -0.064 SA
HETATM    7  C   UNL     1     -36.121  40.861 -54.932  1.00  0.00     0.113 A 
HETATM    8  N   UNL     1     -37.224  40.972 -55.742  1.00  0.00    -0.226 N 
HETATM    9  C   UNL     1     -36.554  40.866 -53.667  1.00  0.00     0.027 A 
HETATM   10  N   UNL     1     -38.359  41.080 -54.953  1.00  0.00    -0.171 NA
HETATM   11  C   UNL     1     -37.928  41.011 -53.678  1.00  0.00     0.064 A 
HETATM   12  C   UNL     1     -38.879  41.096 -52.548  1.00  0.00     0.073 C 
HETATM   13  C   UNL     1     -35.582  40.729 -52.681  1.00  0.00     0.041 A 
BRANCH   8  14
HETATM   14  C   UNL     1     -37.341  40.971 -57.163  1.00  0.00     0.059 A 
HETATM   15  C   UNL     1     -36.938  42.112 -57.880  1.00  0.00     0.031 A 
HETATM   16  C   UNL     1     -37.052  42.157 -59.271  1.00  0.00     0.002 A 
HETATM   17  C   UNL     1     -37.565  41.064 -59.964  1.00  0.00     0.000 A 
HETATM   18  C   UNL     1     -37.963  39.927 -59.266  1.00  0.00     0.002 A 
HETATM   19  C   UNL     1     -37.853  39.877 -57.872  1.00  0.00     0.031 A 
ENDBRANCH   8  14
ENDBRANCH   1   5
BRANCH   2  20
HETATM   20  N   UNL     1     -31.924  39.849 -50.594  1.00  0.00    -0.249 N 
HETATM   21  C   UNL     1     -32.143  39.732 -49.228  1.00  0.00     0.339 C 
HETATM   22  N   UNL     1     -30.975  39.814 -48.506  1.00  0.00    -0.308 N 
HETATM   23  O   UNL     1     -33.274  39.545 -48.789  1.00  0.00    -0.245 OA
HETATM   24  H   UNL     1     -30.128  39.921 -49.046  1.00  0.00     0.170 HD
HETATM   25  H   UNL     1     -31.146  40.402 -50.944  1.00  0.00     0.192 HD
BRANCH  22  26
HETATM   26  C   UNL     1     -30.822  39.692 -47.109  1.00  0.00     0.038 A 
HETATM   27  C   UNL     1     -31.312  38.619 -46.361  1.00  0.00     0.053 A 
HETATM   28  C   UNL     1     -31.101  38.572 -44.981  1.00  0.00     0.036 A 
HETATM   29 CL   UNL     1     -31.699  37.238 -44.069  1.00  0.00    -0.084 Cl
HETATM   30  C   UNL     1     -30.408  39.590 -44.331  1.00  0.00     0.024 A 
HETATM   31  C   UNL     1     -29.922  40.666 -45.068  1.00  0.00     0.004 A 
HETATM   32  C   UNL     1     -30.127  40.716 -46.450  1.00  0.00     0.029 A 
ENDBRANCH  22  26
ENDBRANCH   2  20
TORSDOF 4
ENDMDL
MODEL 8
REMARK VINA RESULT:      -8.2      4.683      5.810
REMARK  4 active torsions:
REMARK  status: ('A' for Active; 'I' for Inactive)
REMARK    1  A    between atoms: N_4  and  C_5 
REMARK    2  A    between atoms: C_14  and  C_15 
REMARK       I    between atoms: C_15  and  N_16 
REMARK    3  A    between atoms: N_16  and  N_17 
REMARK       I    between atoms: N_17  and  C_18 
REMARK       I    between atoms: C_18  and  N_19 
REMARK    4  A    between atoms: N_19  and  C_20 
ROOT
HETATM    1  C   UNL     1     -43.442  56.659 -57.619  1.00  0.00     0.277 C 
HETATM    2  N   UNL     1     -44.147  57.831 -57.806  1.00  0.00    -0.261 N 
HETATM    3  O   UNL     1     -43.017  56.013 -58.578  1.00  0.00    -0.265 OA
HETATM    4  H   UNL     1     -44.600  58.315 -57.029  1.00  0.00     0.190 HD
ENDROOT
BRANCH   1   5
HETATM    5  C   UNL     1     -43.247  56.264 -56.231  1.00  0.00     0.077 A 
HETATM    6  S   UNL     1     -42.236  54.899 -55.816  1.00  0.00    -0.064 SA
HETATM    7  C   UNL     1     -42.506  55.155 -54.194  1.00  0.00     0.113 A 
HETATM    8  N   UNL     1     -42.148  54.644 -52.971  1.00  0.00    -0.226 N 
HETATM    9  C   UNL     1     -43.316  56.195 -53.969  1.00  0.00     0.027 A 
HETATM   10  N   UNL     1     -42.783  55.367 -51.972  1.00  0.00    -0.171 NA
HETATM   11  C   UNL     1     -43.496  56.320 -52.605  1.00  0.00     0.064 A 
HETATM   12  C   UNL     1     -44.314  57.289 -51.843  1.00  0.00     0.073 C 
HETATM   13  C   UNL     1     -43.769  56.880 -55.093  1.00  0.00     0.041 A 
BRANCH   8  14
HETATM   14  C   UNL     1     -41.273  53.571 -52.629  1.00  0.00     0.059 A 
HETATM   15  C   UNL     1     -40.986  53.335 -51.273  1.00  0.00     0.031 A 
HETATM   16  C   UNL     1     -40.120  52.304 -50.898  1.00  0.00     0.002 A 
HETATM   17  C   UNL     1     -39.535  51.497 -51.869  1.00  0.00     0.000 A 
HETATM   18  C   UNL     1     -39.816  51.719 -53.215  1.00  0.00     0.002 A 
HETATM   19  C   UNL     1     -40.681  52.750 -53.596  1.00  0.00     0.031 A 
ENDBRANCH   8  14
ENDBRANCH   1   5
BRANCH   2  20
HETATM   20  N   UNL     1     -44.562  58.211 -59.094  1.00  0.00    -0.249 N 
HETATM   21  C   UNL     1     -45.913  58.032 -59.363  1.00  0.00     0.339 C 
HETATM   22  N   UNL     1     -46.222  58.315 -60.674  1.00  0.00    -0.308 N 
HETATM   23  O   UNL     1     -46.689  57.690 -58.475  1.00  0.00    -0.245 OA
HETATM   24  H   UNL     1     -45.456  58.631 -61.250  1.00  0.00     0.170 HD
HETATM   25  H   UNL     1     -43.869  58.069 -59.823  1.00  0.00     0.192 HD
BRANCH  22  26
HETATM   26  C   UNL     1     -47.496  58.282 -61.277  1.00  0.00     0.038 A 
HETATM   27  C   UNL     1     -48.332  59.395 -61.398  1.00  0.00     0.053 A 
HETATM   28  C   UNL     1     -49.574  59.274 -62.027  1.00  0.00     0.036 A 
HETATM   29 CL   UNL     1     -50.593  60.655 -62.180  1.00  0.00    -0.084 Cl
HETATM   30  C   UNL     1     -49.999  58.049 -62.535  1.00  0.00     0.024 A 
HETATM   31  C   UNL     1     -49.175  56.934 -62.414  1.00  0.00     0.004 A 
HETATM   32  C   UNL     1     -47.930  57.051 -61.789  1.00  0.00     0.029 A 
ENDBRANCH  22  26
ENDBRANCH   2  20
TORSDOF 4
ENDMDL
MODEL 9
REMARK VINA RESULT:      -7.9      2.693      2.884
REMARK  4 active torsions:
REMARK  status: ('A' for Active; 'I' for Inactive)
REMARK    1  A    between atoms: N_4  and  C_5 
REMARK    2  A    between atoms: C_14  and  C_15 
REMARK       I    between atoms: C_15  and  N_16 
REMARK    3  A    between atoms: N_16  and  N_17 
REMARK       I    between atoms: N_17  and  C_18 
REMARK       I    between atoms: C_18  and  N_19 
REMARK    4  A    between atoms: N_19  and  C_20 
ROOT
HETATM    1  C   UNL     1     -44.146  56.474 -51.664  1.00  0.00     0.277 C 
HETATM    2  N   UNL     1     -44.366  56.617 -53.020  1.00  0.00    -0.261 N 
HETATM    3  O   UNL     1     -44.764  57.153 -50.844  1.00  0.00    -0.265 OA
HETATM    4  H   UNL     1     -43.784  56.144 -53.712  1.00  0.00     0.190 HD
ENDROOT
BRANCH   1   5
HETATM    5  C   UNL     1     -43.149  55.477 -51.298  1.00  0.00     0.077 A 
HETATM    6  S   UNL     1     -42.664  54.231 -52.425  1.00  0.00    -0.064 SA
HETATM    7  C   UNL     1     -41.575  53.620 -51.326  1.00  0.00     0.113 A 
HETATM    8  N   UNL     1     -40.634  52.625 -51.213  1.00  0.00    -0.226 N 
HETATM    9  C   UNL     1     -41.577  54.298 -50.173  1.00  0.00     0.027 A 
HETATM   10  N   UNL     1     -40.070  52.675 -49.947  1.00  0.00    -0.171 NA
HETATM   11  C   UNL     1     -40.660  53.711 -49.321  1.00  0.00     0.064 A 
HETATM   12  C   UNL     1     -40.301  54.065 -47.930  1.00  0.00     0.073 C 
HETATM   13  C   UNL     1     -42.448  55.380 -50.095  1.00  0.00     0.041 A 
BRANCH   8  14
HETATM   14  C   UNL     1     -40.193  51.649 -52.154  1.00  0.00     0.059 A 
HETATM   15  C   UNL     1     -40.226  51.961 -53.525  1.00  0.00     0.031 A 
HETATM   16  C   UNL     1     -39.817  51.026 -54.478  1.00  0.00     0.002 A 
HETATM   17  C   UNL     1     -39.368  49.771 -54.076  1.00  0.00     0.000 A 
HETATM   18  C   UNL     1     -39.326  49.452 -52.722  1.00  0.00     0.002 A 
HETATM   19  C   UNL     1     -39.736  50.385 -51.762  1.00  0.00     0.031 A 
ENDBRANCH   8  14
ENDBRANCH   1   5
BRANCH   2  20
HETATM   20  N   UNL     1     -45.158  57.675 -53.501  1.00  0.00    -0.249 N 
HETATM   21  C   UNL     1     -44.953  58.017 -54.831  1.00  0.00     0.339 C 
HETATM   22  N   UNL     1     -45.674  59.129 -55.197  1.00  0.00    -0.308 N 
HETATM   23  O   UNL     1     -44.222  57.338 -55.547  1.00  0.00    -0.245 OA
HETATM   24  H   UNL     1     -46.262  59.530 -54.481  1.00  0.00     0.170 HD
HETATM   25  H   UNL     1     -45.374  58.391 -52.813  1.00  0.00     0.192 HD
BRANCH  22  26
HETATM   26  C   UNL     1     -45.737  59.725 -56.474  1.00  0.00     0.038 A 
HETATM   27  C   UNL     1     -45.503  59.038 -57.669  1.00  0.00     0.053 A 
HETATM   28  C   UNL     1     -45.604  59.705 -58.892  1.00  0.00     0.036 A 
HETATM   29 CL   UNL     1     -45.324  58.846 -60.359  1.00  0.00    -0.084 Cl
HETATM   30  C   UNL     1     -45.932  61.057 -58.941  1.00  0.00     0.024 A 
HETATM   31  C   UNL     1     -46.162  61.751 -57.756  1.00  0.00     0.004 A 
HETATM   32  C   UNL     1     -46.065  61.086 -56.529  1.00  0.00     0.029 A 
ENDBRANCH  22  26
ENDBRANCH   2  20
TORSDOF 4
ENDMDL
MODEL 10
REMARK VINA RESULT:      -7.6     17.693     21.306
REMARK  4 active torsions:
REMARK  status: ('A' for Active; 'I' for Inactive)
REMARK    1  A    between atoms: N_4  and  C_5 
REMARK    2  A    between atoms: C_14  and  C_15 
REMARK       I    between atoms: C_15  and  N_16 
REMARK    3  A    between atoms: N_16  and  N_17 
REMARK       I    between atoms: N_17  and  C_18 
REMARK       I    between atoms: C_18  and  N_19 
REMARK    4  A    between atoms: N_19  and  C_20 
ROOT
HETATM    1  C   UNL     1     -33.299  40.329 -51.214  1.00  0.00     0.277 C 
HETATM    2  N   UNL     1     -32.670  39.291 -50.555  1.00  0.00    -0.261 N 
HETATM    3  O   UNL     1     -33.863  41.229 -50.591  1.00  0.00    -0.265 OA
HETATM    4  H   UNL     1     -32.298  38.483 -51.055  1.00  0.00     0.190 HD
ENDROOT
BRANCH   1   5
HETATM    5  C   UNL     1     -33.239  40.269 -52.668  1.00  0.00     0.077 A 
HETATM    6  S   UNL     1     -34.661  40.565 -53.641  1.00  0.00    -0.064 SA
HETATM    7  C   UNL     1     -33.782  40.362 -55.040  1.00  0.00     0.113 A 
HETATM    8  N   UNL     1     -33.943  40.406 -56.402  1.00  0.00    -0.226 N 
HETATM    9  C   UNL     1     -32.498  40.077 -54.799  1.00  0.00     0.027 A 
HETATM   10  N   UNL     1     -32.733  40.107 -57.012  1.00  0.00    -0.171 NA
HETATM   11  C   UNL     1     -31.855  39.909 -56.010  1.00  0.00     0.064 A 
HETATM   12  C   UNL     1     -30.444  39.563 -56.292  1.00  0.00     0.073 C 
HETATM   13  C   UNL     1     -32.119  40.018 -53.461  1.00  0.00     0.041 A 
BRANCH   8  14
HETATM   14  C   UNL     1     -35.087  40.710 -57.197  1.00  0.00     0.059 A 
HETATM   15  C   UNL     1     -35.657  39.694 -57.984  1.00  0.00     0.031 A 
HETATM   16  C   UNL     1     -36.768  39.956 -58.789  1.00  0.00     0.002 A 
HETATM   17  C   UNL     1     -37.325  41.232 -58.816  1.00  0.00     0.000 A 
HETATM   18  C   UNL     1     -36.772  42.244 -58.037  1.00  0.00     0.002 A 
HETATM   19  C   UNL     1     -35.657  41.988 -57.230  1.00  0.00     0.031 A 
ENDBRANCH   8  14
ENDBRANCH   1   5
BRANCH   2  20
HETATM   20  N   UNL     1     -32.824  39.137 -49.166  1.00  0.00    -0.249 N 
HETATM   21  C   UNL     1     -31.666  39.288 -48.416  1.00  0.00     0.339 C 
HETATM   22  N   UNL     1     -31.870  39.010 -47.084  1.00  0.00    -0.308 N 
HETATM   23  O   UNL     1     -30.622  39.663 -48.944  1.00  0.00    -0.245 OA
HETATM   24  H   UNL     1     -32.814  38.762 -46.825  1.00  0.00     0.170 HD
HETATM   25  H   UNL     1     -33.531  38.461 -48.889  1.00  0.00     0.192 HD
BRANCH  22  26
HETATM   26  C   UNL     1     -30.929  39.103 -46.037  1.00  0.00     0.038 A 
HETATM   27  C   UNL     1     -30.362  37.998 -45.396  1.00  0.00     0.053 A 
HETATM   28  C   UNL     1     -29.424  38.184 -44.378  1.00  0.00     0.036 A 
HETATM   29 CL   UNL     1     -28.723  36.815 -43.601  1.00  0.00    -0.084 Cl
HETATM   30  C   UNL     1     -29.045  39.464 -43.984  1.00  0.00     0.024 A 
HETATM   31  C   UNL     1     -29.609  40.571 -44.613  1.00  0.00     0.004 A 
HETATM   32  C   UNL     1     -30.545  40.390 -45.635  1.00  0.00     0.029 A 
ENDBRANCH  22  26
ENDBRANCH   2  20
TORSDOF 4
ENDMDL
