MODEL 1
REMARK VINA RESULT:      -8.1      0.000      0.000
REMARK  8 active torsions:
REMARK  status: ('A' for Active; 'I' for Inactive)
REMARK    1  A    between atoms: C_2  and  C_3 
REMARK    2  A    between atoms: C_6  and  N_7 
REMARK    3  A    between atoms: N_7  and  S_8 
REMARK    4  A    between atoms: S_8  and  C_9 
REMARK    5  A    between atoms: C_15  and  C_16 
REMARK       I    between atoms: C_16  and  N_17 
REMARK    6  A    between atoms: N_17  and  C_18 
REMARK    7  A    between atoms: C_18  and  C_19 
REMARK    8  A    between atoms: C_19  and  O_20 
ROOT
HETATM    1  C   UNL     1     -42.658  57.592 -54.406  1.00  0.00     0.081 A 
HETATM    2  C   UNL     1     -43.537  58.259 -53.551  1.00  0.00     0.043 A 
HETATM    3  C   UNL     1     -43.017  58.972 -52.466  1.00  0.00     0.043 A 
HETATM    4  C   UNL     1     -41.630  59.049 -52.249  1.00  0.00     0.046 A 
HETATM    5  N   UNL     1     -41.139  59.750 -51.141  1.00  0.00    -0.364 N 
HETATM    6  C   UNL     1     -41.989  60.452 -50.323  1.00  0.00     0.109 A 
HETATM    7  C   UNL     1     -43.330  60.470 -50.421  1.00  0.00     0.098 A 
HETATM    8  C   UNL     1     -43.934  59.668 -51.523  1.00  0.00     0.201 A 
HETATM    9  O   UNL     1     -45.149  59.568 -51.664  1.00  0.00    -0.286 OA
HETATM   10  C   UNL     1     -40.767  58.363 -53.111  1.00  0.00     0.032 A 
HETATM   11  C   UNL     1     -41.277  57.642 -54.196  1.00  0.00     0.027 A 
HETATM   12  H   UNL     1     -40.144  59.938 -51.076  1.00  0.00     0.165 HD
ENDROOT
BRANCH   1  13
HETATM   13  S   UNL     1     -43.319  56.726 -55.815  1.00  0.00     0.263 S 
HETATM   14  O   UNL     1     -42.245  56.528 -56.764  1.00  0.00    -0.200 OA
HETATM   15  O   UNL     1     -44.538  57.410 -56.194  1.00  0.00    -0.200 OA
BRANCH  13  16
HETATM   16  N   UNL     1     -43.786  55.246 -55.157  1.00  0.00    -0.281 N 
HETATM   17  H   UNL     1     -44.794  55.171 -55.035  1.00  0.00     0.179 HD
BRANCH  16  18
HETATM   18  C   UNL     1     -42.950  54.618 -54.195  1.00  0.00     0.042 A 
HETATM   19  C   UNL     1     -43.299  54.649 -52.847  1.00  0.00     0.030 A 
HETATM   20  C   UNL     1     -42.477  54.031 -51.900  1.00  0.00     0.010 A 
HETATM   21  C   UNL     1     -41.305  53.366 -52.292  1.00  0.00    -0.055 A 
HETATM   22  C   UNL     1     -40.959  53.363 -53.651  1.00  0.00     0.010 A 
HETATM   23  C   UNL     1     -41.774  53.990 -54.596  1.00  0.00     0.030 A 
BRANCH  21  24
HETATM   24  C   UNL     1     -40.402  52.666 -51.289  1.00  0.00     0.010 C 
HETATM   25  C   UNL     1     -39.727  53.645 -50.325  1.00  0.00     0.015 C 
HETATM   26  C   UNL     1     -39.364  51.798 -52.003  1.00  0.00     0.015 C 
ENDBRANCH  21  24
ENDBRANCH  16  18
ENDBRANCH  13  16
ENDBRANCH   1  13
BRANCH   7  27
HETATM   27  C   UNL     1     -44.104  61.267 -49.426  1.00  0.00     0.257 C 
HETATM   28  N   UNL     1     -44.977  60.554 -48.648  1.00  0.00    -0.355 N 
HETATM   29  H   UNL     1     -45.140  59.570 -48.868  1.00  0.00     0.162 HD
HETATM   30  O   UNL     1     -43.957  62.482 -49.320  1.00  0.00    -0.267 OA
BRANCH  28  31
HETATM   31  C   UNL     1     -45.845  61.183 -47.671  1.00  0.00     0.149 C 
BRANCH  31  32
HETATM   32  C   UNL     1     -45.966  60.365 -46.384  1.00  0.00     0.186 C 
BRANCH  32  33
HETATM   33  O   UNL     1     -46.636  59.132 -46.673  1.00  0.00    -0.394 OA
HETATM   34  C   UNL     1     -47.360  58.656 -45.547  1.00  0.00     0.201 C 
ENDBRANCH  32  33
ENDBRANCH  31  32
ENDBRANCH  28  31
ENDBRANCH   7  27
TORSDOF 8
ENDMDL
MODEL 2
REMARK VINA RESULT:      -8.0      1.413      2.021
REMARK  8 active torsions:
REMARK  status: ('A' for Active; 'I' for Inactive)
REMARK    1  A    between atoms: C_2  and  C_3 
REMARK    2  A    between atoms: C_6  and  N_7 
REMARK    3  A    between atoms: N_7  and  S_8 
REMARK    4  A    between atoms: S_8  and  C_9 
REMARK    5  A    between atoms: C_15  and  C_16 
REMARK       I    between atoms: C_16  and  N_17 
REMARK    6  A    between atoms: N_17  and  C_18 
REMARK    7  A    between atoms: C_18  and  C_19 
REMARK    8  A    between atoms: C_19  and  O_20 
ROOT
HETATM    1  C   UNL     1     -42.280  57.104 -53.648  1.00  0.00     0.081 A 
HETATM    2  C   UNL     1     -43.377  57.541 -52.903  1.00  0.00     0.043 A 
HETATM    3  C   UNL     1     -43.217  58.621 -52.030  1.00  0.00     0.043 A 
HETATM    4  C   UNL     1     -41.982  59.285 -51.920  1.00  0.00     0.046 A 
HETATM    5  N   UNL     1     -41.844  60.348 -51.020  1.00  0.00    -0.364 N 
HETATM    6  C   UNL     1     -42.927  60.820 -50.321  1.00  0.00     0.109 A 
HETATM    7  C   UNL     1     -44.161  60.285 -50.338  1.00  0.00     0.098 A 
HETATM    8  C   UNL     1     -44.362  59.088 -51.204  1.00  0.00     0.201 A 
HETATM    9  O   UNL     1     -45.433  58.489 -51.245  1.00  0.00    -0.286 OA
HETATM   10  C   UNL     1     -40.892  58.824 -52.666  1.00  0.00     0.032 A 
HETATM   11  C   UNL     1     -41.040  57.739 -53.539  1.00  0.00     0.027 A 
HETATM   12  H   UNL     1     -41.009  60.924 -51.058  1.00  0.00     0.165 HD
ENDROOT
BRANCH   1  13
HETATM   13  S   UNL     1     -42.500  55.760 -54.796  1.00  0.00     0.263 S 
HETATM   14  O   UNL     1     -42.901  56.319 -56.069  1.00  0.00    -0.200 OA
HETATM   15  O   UNL     1     -43.308  54.763 -54.127  1.00  0.00    -0.200 OA
BRANCH  13  16
HETATM   16  N   UNL     1     -40.947  55.115 -54.915  1.00  0.00    -0.281 N 
HETATM   17  H   UNL     1     -40.580  55.147 -55.864  1.00  0.00     0.179 HD
BRANCH  16  18
HETATM   18  C   UNL     1     -40.589  54.007 -54.101  1.00  0.00     0.042 A 
HETATM   19  C   UNL     1     -40.278  52.784 -54.691  1.00  0.00     0.030 A 
HETATM   20  C   UNL     1     -39.927  51.694 -53.890  1.00  0.00     0.010 A 
HETATM   21  C   UNL     1     -39.870  51.817 -52.493  1.00  0.00    -0.055 A 
HETATM   22  C   UNL     1     -40.206  53.050 -51.916  1.00  0.00     0.010 A 
HETATM   23  C   UNL     1     -40.569  54.137 -52.715  1.00  0.00     0.030 A 
BRANCH  21  24
HETATM   24  C   UNL     1     -39.469  50.657 -51.597  1.00  0.00     0.010 C 
HETATM   25  C   UNL     1     -39.662  49.299 -52.277  1.00  0.00     0.015 C 
HETATM   26  C   UNL     1     -40.219  50.712 -50.264  1.00  0.00     0.015 C 
ENDBRANCH  21  24
ENDBRANCH  16  18
ENDBRANCH  13  16
ENDBRANCH   1  13
BRANCH   7  27
HETATM   27  C   UNL     1     -45.217  60.910 -49.491  1.00  0.00     0.257 C 
HETATM   28  N   UNL     1     -44.892  61.083 -48.172  1.00  0.00    -0.355 N 
HETATM   29  H   UNL     1     -44.024  60.674 -47.823  1.00  0.00     0.162 HD
HETATM   30  O   UNL     1     -46.303  61.246 -49.958  1.00  0.00    -0.267 OA
BRANCH  28  31
HETATM   31  C   UNL     1     -45.824  61.626 -47.202  1.00  0.00     0.149 C 
BRANCH  31  32
HETATM   32  C   UNL     1     -46.113  60.651 -46.059  1.00  0.00     0.186 C 
BRANCH  32  33
HETATM   33  O   UNL     1     -46.703  59.461 -46.595  1.00  0.00    -0.394 OA
HETATM   34  C   UNL     1     -47.004  58.522 -45.572  1.00  0.00     0.201 C 
ENDBRANCH  32  33
ENDBRANCH  31  32
ENDBRANCH  28  31
ENDBRANCH   7  27
TORSDOF 8
ENDMDL
MODEL 3
REMARK VINA RESULT:      -8.0      5.116      8.195
REMARK  8 active torsions:
REMARK  status: ('A' for Active; 'I' for Inactive)
REMARK    1  A    between atoms: C_2  and  C_3 
REMARK    2  A    between atoms: C_6  and  N_7 
REMARK    3  A    between atoms: N_7  and  S_8 
REMARK    4  A    between atoms: S_8  and  C_9 
REMARK    5  A    between atoms: C_15  and  C_16 
REMARK       I    between atoms: C_16  and  N_17 
REMARK    6  A    between atoms: N_17  and  C_18 
REMARK    7  A    between atoms: C_18  and  C_19 
REMARK    8  A    between atoms: C_19  and  O_20 
ROOT
HETATM    1  C   UNL     1     -42.988  56.431 -56.056  1.00  0.00     0.081 A 
HETATM    2  C   UNL     1     -42.633  57.738 -56.397  1.00  0.00     0.043 A 
HETATM    3  C   UNL     1     -42.456  58.063 -57.745  1.00  0.00     0.043 A 
HETATM    4  C   UNL     1     -42.661  57.105 -58.753  1.00  0.00     0.046 A 
HETATM    5  N   UNL     1     -42.454  57.452 -60.093  1.00  0.00    -0.364 N 
HETATM    6  C   UNL     1     -42.156  58.745 -60.444  1.00  0.00     0.109 A 
HETATM    7  C   UNL     1     -41.939  59.757 -59.585  1.00  0.00     0.098 A 
HETATM    8  C   UNL     1     -42.050  59.440 -58.132  1.00  0.00     0.201 A 
HETATM    9  O   UNL     1     -41.813  60.277 -57.265  1.00  0.00    -0.286 OA
HETATM   10  C   UNL     1     -43.005  55.798 -58.390  1.00  0.00     0.032 A 
HETATM   11  C   UNL     1     -43.179  55.460 -57.043  1.00  0.00     0.027 A 
HETATM   12  H   UNL     1     -42.755  56.814 -60.822  1.00  0.00     0.165 HD
ENDROOT
BRANCH   1  13
HETATM   13  S   UNL     1     -43.261  56.032 -54.342  1.00  0.00     0.263 S 
HETATM   14  O   UNL     1     -43.925  54.748 -54.281  1.00  0.00    -0.200 OA
HETATM   15  O   UNL     1     -43.841  57.206 -53.725  1.00  0.00    -0.200 OA
BRANCH  13  16
HETATM   16  N   UNL     1     -41.694  55.899 -53.737  1.00  0.00    -0.281 N 
HETATM   17  H   UNL     1     -41.099  56.678 -54.012  1.00  0.00     0.179 HD
BRANCH  16  18
HETATM   18  C   UNL     1     -41.098  54.614 -53.626  1.00  0.00     0.042 A 
HETATM   19  C   UNL     1     -40.938  54.030 -52.371  1.00  0.00     0.030 A 
HETATM   20  C   UNL     1     -40.351  52.766 -52.261  1.00  0.00     0.010 A 
HETATM   21  C   UNL     1     -39.930  52.067 -53.403  1.00  0.00    -0.055 A 
HETATM   22  C   UNL     1     -40.081  52.680 -54.656  1.00  0.00     0.010 A 
HETATM   23  C   UNL     1     -40.657  53.948 -54.766  1.00  0.00     0.030 A 
BRANCH  21  24
HETATM   24  C   UNL     1     -39.310  50.683 -53.319  1.00  0.00     0.010 C 
HETATM   25  C   UNL     1     -39.659  49.810 -54.527  1.00  0.00     0.015 C 
HETATM   26  C   UNL     1     -39.700  49.989 -52.012  1.00  0.00     0.015 C 
ENDBRANCH  21  24
ENDBRANCH  16  18
ENDBRANCH  13  16
ENDBRANCH   1  13
BRANCH   7  27
HETATM   27  C   UNL     1     -41.595  61.098 -60.140  1.00  0.00     0.257 C 
HETATM   28  N   UNL     1     -40.851  61.904 -59.319  1.00  0.00    -0.355 N 
HETATM   29  H   UNL     1     -40.685  61.606 -58.357  1.00  0.00     0.162 HD
HETATM   30  O   UNL     1     -41.959  61.444 -61.261  1.00  0.00    -0.267 OA
BRANCH  28  31
HETATM   31  C   UNL     1     -40.479  63.258 -59.684  1.00  0.00     0.149 C 
BRANCH  31  32
HETATM   32  C   UNL     1     -38.966  63.478 -59.649  1.00  0.00     0.186 C 
BRANCH  32  33
HETATM   33  O   UNL     1     -38.558  64.129 -60.858  1.00  0.00    -0.394 OA
HETATM   34  C   UNL     1     -38.922  63.372 -62.005  1.00  0.00     0.201 C 
ENDBRANCH  32  33
ENDBRANCH  31  32
ENDBRANCH  28  31
ENDBRANCH   7  27
TORSDOF 8
ENDMDL
MODEL 4
REMARK VINA RESULT:      -8.0      3.396      7.426
REMARK  8 active torsions:
REMARK  status: ('A' for Active; 'I' for Inactive)
REMARK    1  A    between atoms: C_2  and  C_3 
REMARK    2  A    between atoms: C_6  and  N_7 
REMARK    3  A    between atoms: N_7  and  S_8 
REMARK    4  A    between atoms: S_8  and  C_9 
REMARK    5  A    between atoms: C_15  and  C_16 
REMARK       I    between atoms: C_16  and  N_17 
REMARK    6  A    between atoms: N_17  and  C_18 
REMARK    7  A    between atoms: C_18  and  C_19 
REMARK    8  A    between atoms: C_19  and  O_20 
ROOT
HETATM    1  C   UNL     1     -42.819  58.427 -52.264  1.00  0.00     0.081 A 
HETATM    2  C   UNL     1     -42.582  57.951 -53.556  1.00  0.00     0.043 A 
HETATM    3  C   UNL     1     -43.577  58.101 -54.527  1.00  0.00     0.043 A 
HETATM    4  C   UNL     1     -44.788  58.749 -54.227  1.00  0.00     0.046 A 
HETATM    5  N   UNL     1     -45.775  58.865 -55.213  1.00  0.00    -0.364 N 
HETATM    6  C   UNL     1     -45.535  58.447 -56.498  1.00  0.00     0.109 A 
HETATM    7  C   UNL     1     -44.422  57.820 -56.921  1.00  0.00     0.098 A 
HETATM    8  C   UNL     1     -43.361  57.577 -55.902  1.00  0.00     0.201 A 
HETATM    9  O   UNL     1     -42.333  56.961 -56.169  1.00  0.00    -0.286 OA
HETATM   10  C   UNL     1     -45.010  59.208 -52.924  1.00  0.00     0.032 A 
HETATM   11  C   UNL     1     -44.024  59.057 -51.943  1.00  0.00     0.027 A 
HETATM   12  H   UNL     1     -46.574  59.467 -55.045  1.00  0.00     0.165 HD
ENDROOT
BRANCH   1  13
HETATM   13  S   UNL     1     -41.531  58.278 -51.043  1.00  0.00     0.263 S 
HETATM   14  O   UNL     1     -41.637  59.405 -50.141  1.00  0.00    -0.200 OA
HETATM   15  O   UNL     1     -40.303  58.003 -51.758  1.00  0.00    -0.200 OA
BRANCH  13  16
HETATM   16  N   UNL     1     -41.945  56.856 -50.238  1.00  0.00    -0.281 N 
HETATM   17  H   UNL     1     -42.135  57.006 -49.249  1.00  0.00     0.179 HD
BRANCH  16  18
HETATM   18  C   UNL     1     -41.326  55.636 -50.619  1.00  0.00     0.042 A 
HETATM   19  C   UNL     1     -40.326  55.086 -49.820  1.00  0.00     0.030 A 
HETATM   20  C   UNL     1     -39.716  53.885 -50.195  1.00  0.00     0.010 A 
HETATM   21  C   UNL     1     -40.108  53.215 -51.364  1.00  0.00    -0.055 A 
HETATM   22  C   UNL     1     -41.102  53.794 -52.166  1.00  0.00     0.010 A 
HETATM   23  C   UNL     1     -41.704  55.000 -51.798  1.00  0.00     0.030 A 
BRANCH  21  24
HETATM   24  C   UNL     1     -39.481  51.897 -51.787  1.00  0.00     0.010 C 
HETATM   25  C   UNL     1     -39.794  51.539 -53.242  1.00  0.00     0.015 C 
HETATM   26  C   UNL     1     -39.899  50.766 -50.844  1.00  0.00     0.015 C 
ENDBRANCH  21  24
ENDBRANCH  16  18
ENDBRANCH  13  16
ENDBRANCH   1  13
BRANCH   7  27
HETATM   27  C   UNL     1     -44.339  57.409 -58.351  1.00  0.00     0.257 C 
HETATM   28  N   UNL     1     -44.034  56.091 -58.570  1.00  0.00    -0.355 N 
HETATM   29  H   UNL     1     -43.764  55.511 -57.775  1.00  0.00     0.162 HD
HETATM   30  O   UNL     1     -44.536  58.207 -59.264  1.00  0.00    -0.267 OA
BRANCH  28  31
HETATM   31  C   UNL     1     -43.861  55.541 -59.901  1.00  0.00     0.149 C 
BRANCH  31  32
HETATM   32  C   UNL     1     -45.044  54.674 -60.334  1.00  0.00     0.186 C 
BRANCH  32  33
HETATM   33  O   UNL     1     -45.716  55.309 -61.428  1.00  0.00    -0.394 OA
HETATM   34  C   UNL     1     -46.785  56.131 -60.977  1.00  0.00     0.201 C 
ENDBRANCH  32  33
ENDBRANCH  31  32
ENDBRANCH  28  31
ENDBRANCH   7  27
TORSDOF 8
ENDMDL
MODEL 5
REMARK VINA RESULT:      -7.8      1.668      2.373
REMARK  8 active torsions:
REMARK  status: ('A' for Active; 'I' for Inactive)
REMARK    1  A    between atoms: C_2  and  C_3 
REMARK    2  A    between atoms: C_6  and  N_7 
REMARK    3  A    between atoms: N_7  and  S_8 
REMARK    4  A    between atoms: S_8  and  C_9 
REMARK    5  A    between atoms: C_15  and  C_16 
REMARK       I    between atoms: C_16  and  N_17 
REMARK    6  A    between atoms: N_17  and  C_18 
REMARK    7  A    between atoms: C_18  and  C_19 
REMARK    8  A    between atoms: C_19  and  O_20 
ROOT
HETATM    1  C   UNL     1     -43.983  58.599 -53.930  1.00  0.00     0.081 A 
HETATM    2  C   UNL     1     -44.771  58.717 -52.783  1.00  0.00     0.043 A 
HETATM    3  C   UNL     1     -44.400  59.635 -51.796  1.00  0.00     0.043 A 
HETATM    4  C   UNL     1     -43.269  60.454 -51.959  1.00  0.00     0.046 A 
HETATM    5  N   UNL     1     -42.907  61.347 -50.943  1.00  0.00    -0.364 N 
HETATM    6  C   UNL     1     -43.702  61.508 -49.835  1.00  0.00     0.109 A 
HETATM    7  C   UNL     1     -44.809  60.797 -49.559  1.00  0.00     0.098 A 
HETATM    8  C   UNL     1     -45.206  59.759 -50.552  1.00  0.00     0.201 A 
HETATM    9  O   UNL     1     -46.165  59.015 -50.366  1.00  0.00    -0.286 OA
HETATM   10  C   UNL     1     -42.486  60.312 -53.109  1.00  0.00     0.032 A 
HETATM   11  C   UNL     1     -42.845  59.393 -54.101  1.00  0.00     0.027 A 
HETATM   12  H   UNL     1     -42.193  62.044 -51.128  1.00  0.00     0.165 HD
ENDROOT
BRANCH   1  13
HETATM   13  S   UNL     1     -44.486  57.466 -55.208  1.00  0.00     0.263 S 
HETATM   14  O   UNL     1     -43.389  57.326 -56.140  1.00  0.00    -0.200 OA
HETATM   15  O   UNL     1     -45.798  57.889 -55.651  1.00  0.00    -0.200 OA
BRANCH  13  16
HETATM   16  N   UNL     1     -44.709  56.026 -54.361  1.00  0.00    -0.281 N 
HETATM   17  H   UNL     1     -45.408  56.107 -53.625  1.00  0.00     0.179 HD
BRANCH  16  18
HETATM   18  C   UNL     1     -43.595  55.175 -54.129  1.00  0.00     0.042 A 
HETATM   19  C   UNL     1     -43.202  54.265 -55.108  1.00  0.00     0.030 A 
HETATM   20  C   UNL     1     -42.107  53.428 -54.880  1.00  0.00     0.010 A 
HETATM   21  C   UNL     1     -41.385  53.500 -53.679  1.00  0.00    -0.055 A 
HETATM   22  C   UNL     1     -41.808  54.407 -52.697  1.00  0.00     0.010 A 
HETATM   23  C   UNL     1     -42.910  55.237 -52.919  1.00  0.00     0.030 A 
BRANCH  21  24
HETATM   24  C   UNL     1     -40.176  52.619 -53.411  1.00  0.00     0.010 C 
HETATM   25  C   UNL     1     -40.225  51.303 -54.192  1.00  0.00     0.015 C 
HETATM   26  C   UNL     1     -40.011  52.359 -51.912  1.00  0.00     0.015 C 
ENDBRANCH  21  24
ENDBRANCH  16  18
ENDBRANCH  13  16
ENDBRANCH   1  13
BRANCH   7  27
HETATM   27  C   UNL     1     -45.539  61.085 -48.291  1.00  0.00     0.257 C 
HETATM   28  N   UNL     1     -44.886  60.731 -47.139  1.00  0.00    -0.355 N 
HETATM   29  H   UNL     1     -44.022  60.193 -47.211  1.00  0.00     0.162 HD
HETATM   30  O   UNL     1     -46.651  61.608 -48.291  1.00  0.00    -0.267 OA
BRANCH  28  31
HETATM   31  C   UNL     1     -45.478  60.892 -45.825  1.00  0.00     0.149 C 
BRANCH  31  32
HETATM   32  C   UNL     1     -44.796  61.989 -45.006  1.00  0.00     0.186 C 
BRANCH  32  33
HETATM   33  O   UNL     1     -45.118  63.265 -45.572  1.00  0.00    -0.394 OA
HETATM   34  C   UNL     1     -46.479  63.607 -45.346  1.00  0.00     0.201 C 
ENDBRANCH  32  33
ENDBRANCH  31  32
ENDBRANCH  28  31
ENDBRANCH   7  27
TORSDOF 8
ENDMDL
MODEL 6
REMARK VINA RESULT:      -7.6      3.853      7.321
REMARK  8 active torsions:
REMARK  status: ('A' for Active; 'I' for Inactive)
REMARK    1  A    between atoms: C_2  and  C_3 
REMARK    2  A    between atoms: C_6  and  N_7 
REMARK    3  A    between atoms: N_7  and  S_8 
REMARK    4  A    between atoms: S_8  and  C_9 
REMARK    5  A    between atoms: C_15  and  C_16 
REMARK       I    between atoms: C_16  and  N_17 
REMARK    6  A    between atoms: N_17  and  C_18 
REMARK    7  A    between atoms: C_18  and  C_19 
REMARK    8  A    between atoms: C_19  and  O_20 
ROOT
HETATM    1  C   UNL     1     -43.227  57.114 -52.277  1.00  0.00     0.081 A 
HETATM    2  C   UNL     1     -43.269  56.854 -53.648  1.00  0.00     0.043 A 
HETATM    3  C   UNL     1     -44.080  57.647 -54.464  1.00  0.00     0.043 A 
HETATM    4  C   UNL     1     -44.823  58.714 -53.928  1.00  0.00     0.046 A 
HETATM    5  N   UNL     1     -45.645  59.477 -54.765  1.00  0.00    -0.364 N 
HETATM    6  C   UNL     1     -45.656  59.264 -56.122  1.00  0.00     0.109 A 
HETATM    7  C   UNL     1     -44.991  58.286 -56.764  1.00  0.00     0.098 A 
HETATM    8  C   UNL     1     -44.165  57.372 -55.924  1.00  0.00     0.201 A 
HETATM    9  O   UNL     1     -43.568  56.413 -56.403  1.00  0.00    -0.286 OA
HETATM   10  C   UNL     1     -44.776  58.950 -52.550  1.00  0.00     0.032 A 
HETATM   11  C   UNL     1     -43.972  58.159 -51.723  1.00  0.00     0.027 A 
HETATM   12  H   UNL     1     -46.051  60.337 -54.411  1.00  0.00     0.165 HD
ENDROOT
BRANCH   1  13
HETATM   13  S   UNL     1     -42.154  56.134 -51.248  1.00  0.00     0.263 S 
HETATM   14  O   UNL     1     -42.891  54.967 -50.815  1.00  0.00    -0.200 OA
HETATM   15  O   UNL     1     -41.550  57.036 -50.290  1.00  0.00    -0.200 OA
BRANCH  13  16
HETATM   16  N   UNL     1     -40.930  55.679 -52.314  1.00  0.00    -0.281 N 
HETATM   17  H   UNL     1     -40.795  56.351 -53.066  1.00  0.00     0.179 HD
BRANCH  16  18
HETATM   18  C   UNL     1     -40.741  54.302 -52.609  1.00  0.00     0.042 A 
HETATM   19  C   UNL     1     -41.163  53.792 -53.835  1.00  0.00     0.030 A 
HETATM   20  C   UNL     1     -40.977  52.437 -54.126  1.00  0.00     0.010 A 
HETATM   21  C   UNL     1     -40.357  51.582 -53.201  1.00  0.00    -0.055 A 
HETATM   22  C   UNL     1     -39.959  52.109 -51.965  1.00  0.00     0.010 A 
HETATM   23  C   UNL     1     -40.154  53.461 -51.669  1.00  0.00     0.030 A 
BRANCH  21  24
HETATM   24  C   UNL     1     -40.121  50.110 -53.497  1.00  0.00     0.010 C 
HETATM   25  C   UNL     1     -39.510  49.365 -52.308  1.00  0.00     0.015 C 
HETATM   26  C   UNL     1     -39.261  49.937 -54.751  1.00  0.00     0.015 C 
ENDBRANCH  21  24
ENDBRANCH  16  18
ENDBRANCH  13  16
ENDBRANCH   1  13
BRANCH   7  27
HETATM   27  C   UNL     1     -45.139  58.182 -58.244  1.00  0.00     0.257 C 
HETATM   28  N   UNL     1     -45.380  56.923 -58.726  1.00  0.00    -0.355 N 
HETATM   29  H   UNL     1     -45.323  56.131 -58.084  1.00  0.00     0.162 HD
HETATM   30  O   UNL     1     -45.049  59.168 -58.972  1.00  0.00    -0.267 OA
BRANCH  28  31
HETATM   31  C   UNL     1     -45.495  56.638 -60.144  1.00  0.00     0.149 C 
BRANCH  31  32
HETATM   32  C   UNL     1     -46.909  56.213 -60.544  1.00  0.00     0.186 C 
BRANCH  32  33
HETATM   33  O   UNL     1     -47.539  57.288 -61.251  1.00  0.00    -0.394 OA
HETATM   34  C   UNL     1     -48.451  56.804 -62.227  1.00  0.00     0.201 C 
ENDBRANCH  32  33
ENDBRANCH  31  32
ENDBRANCH  28  31
ENDBRANCH   7  27
TORSDOF 8
ENDMDL
MODEL 7
REMARK VINA RESULT:      -7.4      3.220      4.021
REMARK  8 active torsions:
REMARK  status: ('A' for Active; 'I' for Inactive)
REMARK    1  A    between atoms: C_2  and  C_3 
REMARK    2  A    between atoms: C_6  and  N_7 
REMARK    3  A    between atoms: N_7  and  S_8 
REMARK    4  A    between atoms: S_8  and  C_9 
REMARK    5  A    between atoms: C_15  and  C_16 
REMARK       I    between atoms: C_16  and  N_17 
REMARK    6  A    between atoms: N_17  and  C_18 
REMARK    7  A    between atoms: C_18  and  C_19 
REMARK    8  A    between atoms: C_19  and  O_20 
ROOT
HETATM    1  C   UNL     1     -43.648  56.569 -53.386  1.00  0.00     0.081 A 
HETATM    2  C   UNL     1     -44.210  57.802 -53.726  1.00  0.00     0.043 A 
HETATM    3  C   UNL     1     -44.770  58.592 -52.719  1.00  0.00     0.043 A 
HETATM    4  C   UNL     1     -44.745  58.177 -51.376  1.00  0.00     0.046 A 
HETATM    5  N   UNL     1     -45.335  58.978 -50.391  1.00  0.00    -0.364 N 
HETATM    6  C   UNL     1     -45.845  60.214 -50.704  1.00  0.00     0.109 A 
HETATM    7  C   UNL     1     -45.926  60.734 -51.942  1.00  0.00     0.098 A 
HETATM    8  C   UNL     1     -45.402  59.896 -53.058  1.00  0.00     0.201 A 
HETATM    9  O   UNL     1     -45.482  60.251 -54.231  1.00  0.00    -0.286 OA
HETATM   10  C   UNL     1     -44.188  56.934 -51.058  1.00  0.00     0.032 A 
HETATM   11  C   UNL     1     -43.629  56.132 -52.059  1.00  0.00     0.027 A 
HETATM   12  H   UNL     1     -45.177  58.759 -49.413  1.00  0.00     0.165 HD
ENDROOT
BRANCH   1  13
HETATM   13  S   UNL     1     -42.890  55.588 -54.664  1.00  0.00     0.263 S 
HETATM   14  O   UNL     1     -42.975  56.325 -55.906  1.00  0.00    -0.200 OA
HETATM   15  O   UNL     1     -43.435  54.252 -54.547  1.00  0.00    -0.200 OA
BRANCH  13  16
HETATM   16  N   UNL     1     -41.284  55.496 -54.159  1.00  0.00    -0.281 N 
HETATM   17  H   UNL     1     -40.655  56.034 -54.751  1.00  0.00     0.179 HD
BRANCH  16  18
HETATM   18  C   UNL     1     -40.798  54.282 -53.603  1.00  0.00     0.042 A 
HETATM   19  C   UNL     1     -40.756  54.121 -52.220  1.00  0.00     0.030 A 
HETATM   20  C   UNL     1     -40.277  52.928 -51.672  1.00  0.00     0.010 A 
HETATM   21  C   UNL     1     -39.848  51.878 -52.499  1.00  0.00    -0.055 A 
HETATM   22  C   UNL     1     -39.879  52.067 -53.889  1.00  0.00     0.010 A 
HETATM   23  C   UNL     1     -40.346  53.263 -54.437  1.00  0.00     0.030 A 
BRANCH  21  24
HETATM   24  C   UNL     1     -39.345  50.561 -51.934  1.00  0.00     0.010 C 
HETATM   25  C   UNL     1     -39.596  49.384 -52.881  1.00  0.00     0.015 C 
HETATM   26  C   UNL     1     -39.949  50.291 -50.555  1.00  0.00     0.015 C 
ENDBRANCH  21  24
ENDBRANCH  16  18
ENDBRANCH  13  16
ENDBRANCH   1  13
BRANCH   7  27
HETATM   27  C   UNL     1     -46.538  62.084 -52.106  1.00  0.00     0.257 C 
HETATM   28  N   UNL     1     -47.636  62.139 -52.923  1.00  0.00    -0.355 N 
HETATM   29  H   UNL     1     -47.893  61.308 -53.458  1.00  0.00     0.162 HD
HETATM   30  O   UNL     1     -46.079  63.072 -51.539  1.00  0.00    -0.267 OA
BRANCH  28  31
HETATM   31  C   UNL     1     -48.317  63.382 -53.233  1.00  0.00     0.149 C 
BRANCH  31  32
HETATM   32  C   UNL     1     -49.832  63.209 -53.341  1.00  0.00     0.186 C 
BRANCH  32  33
HETATM   33  O   UNL     1     -50.192  61.913 -52.845  1.00  0.00    -0.394 OA
HETATM   34  C   UNL     1     -51.456  61.497 -53.345  1.00  0.00     0.201 C 
ENDBRANCH  32  33
ENDBRANCH  31  32
ENDBRANCH  28  31
ENDBRANCH   7  27
TORSDOF 8
ENDMDL
MODEL 8
REMARK VINA RESULT:      -7.4     18.734     21.177
REMARK  8 active torsions:
REMARK  status: ('A' for Active; 'I' for Inactive)
REMARK    1  A    between atoms: C_2  and  C_3 
REMARK    2  A    between atoms: C_6  and  N_7 
REMARK    3  A    between atoms: N_7  and  S_8 
REMARK    4  A    between atoms: S_8  and  C_9 
REMARK    5  A    between atoms: C_15  and  C_16 
REMARK       I    between atoms: C_16  and  N_17 
REMARK    6  A    between atoms: N_17  and  C_18 
REMARK    7  A    between atoms: C_18  and  C_19 
REMARK    8  A    between atoms: C_19  and  O_20 
ROOT
HETATM    1  C   UNL     1     -34.324  40.734 -55.836  1.00  0.00     0.081 A 
HETATM    2  C   UNL     1     -34.871  39.851 -56.769  1.00  0.00     0.043 A 
HETATM    3  C   UNL     1     -35.711  40.354 -57.768  1.00  0.00     0.043 A 
HETATM    4  C   UNL     1     -35.982  41.730 -57.859  1.00  0.00     0.046 A 
HETATM    5  N   UNL     1     -36.845  42.203 -58.854  1.00  0.00    -0.364 N 
HETATM    6  C   UNL     1     -37.348  41.353 -59.808  1.00  0.00     0.109 A 
HETATM    7  C   UNL     1     -37.164  40.021 -59.842  1.00  0.00     0.098 A 
HETATM    8  C   UNL     1     -36.330  39.431 -58.756  1.00  0.00     0.201 A 
HETATM    9  O   UNL     1     -36.149  38.220 -58.661  1.00  0.00    -0.286 OA
HETATM   10  C   UNL     1     -35.433  42.597 -56.907  1.00  0.00     0.032 A 
HETATM   11  C   UNL     1     -34.596  42.103 -55.900  1.00  0.00     0.027 A 
HETATM   12  H   UNL     1     -36.912  43.202 -59.018  1.00  0.00     0.165 HD
ENDROOT
BRANCH   1  13
HETATM   13  S   UNL     1     -33.215  40.097 -54.597  1.00  0.00     0.263 S 
HETATM   14  O   UNL     1     -31.863  40.426 -54.994  1.00  0.00    -0.200 OA
HETATM   15  O   UNL     1     -33.610  38.728 -54.342  1.00  0.00    -0.200 OA
BRANCH  13  16
HETATM   16  N   UNL     1     -33.642  40.981 -53.226  1.00  0.00    -0.281 N 
HETATM   17  H   UNL     1     -33.585  41.987 -53.374  1.00  0.00     0.179 HD
BRANCH  16  18
HETATM   18  C   UNL     1     -33.307  40.477 -51.941  1.00  0.00     0.042 A 
HETATM   19  C   UNL     1     -31.970  40.324 -51.583  1.00  0.00     0.030 A 
HETATM   20  C   UNL     1     -31.640  39.828 -50.319  1.00  0.00     0.010 A 
HETATM   21  C   UNL     1     -32.642  39.492 -49.395  1.00  0.00    -0.055 A 
HETATM   22  C   UNL     1     -33.982  39.634 -49.780  1.00  0.00     0.010 A 
HETATM   23  C   UNL     1     -34.313  40.119 -51.048  1.00  0.00     0.030 A 
BRANCH  21  24
HETATM   24  C   UNL     1     -32.315  38.972 -48.005  1.00  0.00     0.010 C 
HETATM   25  C   UNL     1     -31.038  39.594 -47.432  1.00  0.00     0.015 C 
HETATM   26  C   UNL     1     -32.229  37.445 -47.999  1.00  0.00     0.015 C 
ENDBRANCH  21  24
ENDBRANCH  16  18
ENDBRANCH  13  16
ENDBRANCH   1  13
BRANCH   7  27
HETATM   27  C   UNL     1     -37.809  39.243 -60.938  1.00  0.00     0.257 C 
HETATM   28  N   UNL     1     -38.885  38.481 -60.567  1.00  0.00    -0.355 N 
HETATM   29  H   UNL     1     -39.103  38.388 -59.573  1.00  0.00     0.162 HD
HETATM   30  O   UNL     1     -37.396  39.293 -62.094  1.00  0.00    -0.267 OA
BRANCH  28  31
HETATM   31  C   UNL     1     -39.592  37.622 -61.498  1.00  0.00     0.149 C 
BRANCH  31  32
HETATM   32  C   UNL     1     -40.992  37.252 -61.006  1.00  0.00     0.186 C 
BRANCH  32  33
HETATM   33  O   UNL     1     -41.890  37.227 -62.122  1.00  0.00    -0.394 OA
HETATM   34  C   UNL     1     -41.359  37.934 -63.235  1.00  0.00     0.201 C 
ENDBRANCH  32  33
ENDBRANCH  31  32
ENDBRANCH  28  31
ENDBRANCH   7  27
TORSDOF 8
ENDMDL
MODEL 9
REMARK VINA RESULT:      -7.2      3.677      6.996
REMARK  8 active torsions:
REMARK  status: ('A' for Active; 'I' for Inactive)
REMARK    1  A    between atoms: C_2  and  C_3 
REMARK    2  A    between atoms: C_6  and  N_7 
REMARK    3  A    between atoms: N_7  and  S_8 
REMARK    4  A    between atoms: S_8  and  C_9 
REMARK    5  A    between atoms: C_15  and  C_16 
REMARK       I    between atoms: C_16  and  N_17 
REMARK    6  A    between atoms: N_17  and  C_18 
REMARK    7  A    between atoms: C_18  and  C_19 
REMARK    8  A    between atoms: C_19  and  O_20 
ROOT
HETATM    1  C   UNL     1     -43.589  57.095 -52.521  1.00  0.00     0.081 A 
HETATM    2  C   UNL     1     -43.303  57.250 -53.879  1.00  0.00     0.043 A 
HETATM    3  C   UNL     1     -43.979  58.235 -54.606  1.00  0.00     0.043 A 
HETATM    4  C   UNL     1     -44.910  59.083 -53.982  1.00  0.00     0.046 A 
HETATM    5  N   UNL     1     -45.588  60.045 -54.739  1.00  0.00    -0.364 N 
HETATM    6  C   UNL     1     -45.280  60.241 -56.063  1.00  0.00     0.109 A 
HETATM    7  C   UNL     1     -44.409  59.508 -56.778  1.00  0.00     0.098 A 
HETATM    8  C   UNL     1     -43.715  58.400 -56.060  1.00  0.00     0.201 A 
HETATM    9  O   UNL     1     -42.946  57.635 -56.635  1.00  0.00    -0.286 OA
HETATM   10  C   UNL     1     -45.190  58.904 -52.623  1.00  0.00     0.032 A 
HETATM   11  C   UNL     1     -44.524  57.918 -51.887  1.00  0.00     0.027 A 
HETATM   12  H   UNL     1     -46.134  60.756 -54.264  1.00  0.00     0.165 HD
ENDROOT
BRANCH   1  13
HETATM   13  S   UNL     1     -42.691  55.874 -51.587  1.00  0.00     0.263 S 
HETATM   14  O   UNL     1     -43.464  54.651 -51.588  1.00  0.00    -0.200 OA
HETATM   15  O   UNL     1     -42.288  56.504 -50.348  1.00  0.00    -0.200 OA
BRANCH  13  16
HETATM   16  N   UNL     1     -41.287  55.668 -52.497  1.00  0.00    -0.281 N 
HETATM   17  H   UNL     1     -41.202  56.351 -53.247  1.00  0.00     0.179 HD
BRANCH  16  18
HETATM   18  C   UNL     1     -40.797  54.355 -52.733  1.00  0.00     0.042 A 
HETATM   19  C   UNL     1     -40.332  53.586 -51.669  1.00  0.00     0.030 A 
HETATM   20  C   UNL     1     -39.850  52.295 -51.902  1.00  0.00     0.010 A 
HETATM   21  C   UNL     1     -39.839  51.754 -53.197  1.00  0.00    -0.055 A 
HETATM   22  C   UNL     1     -40.292  52.551 -54.258  1.00  0.00     0.010 A 
HETATM   23  C   UNL     1     -40.764  53.846 -54.028  1.00  0.00     0.030 A 
BRANCH  21  24
HETATM   24  C   UNL     1     -39.343  50.346 -53.479  1.00  0.00     0.010 C 
HETATM   25  C   UNL     1     -39.905  49.777 -54.784  1.00  0.00     0.015 C 
HETATM   26  C   UNL     1     -39.644  49.415 -52.303  1.00  0.00     0.015 C 
ENDBRANCH  21  24
ENDBRANCH  16  18
ENDBRANCH  13  16
ENDBRANCH   1  13
BRANCH   7  27
HETATM   27  C   UNL     1     -44.215  59.841 -58.219  1.00  0.00     0.257 C 
HETATM   28  N   UNL     1     -42.928  59.751 -58.678  1.00  0.00    -0.355 N 
HETATM   29  H   UNL     1     -42.176  59.590 -58.006  1.00  0.00     0.162 HD
HETATM   30  O   UNL     1     -45.156  60.171 -58.936  1.00  0.00    -0.267 OA
BRANCH  28  31
HETATM   31  C   UNL     1     -42.559  60.094 -60.039  1.00  0.00     0.149 C 
BRANCH  31  32
HETATM   32  C   UNL     1     -41.955  61.496 -60.146  1.00  0.00     0.186 C 
BRANCH  32  33
HETATM   33  O   UNL     1     -41.402  61.866 -58.877  1.00  0.00    -0.394 OA
HETATM   34  C   UNL     1     -40.116  62.453 -59.021  1.00  0.00     0.201 C 
ENDBRANCH  32  33
ENDBRANCH  31  32
ENDBRANCH  28  31
ENDBRANCH   7  27
TORSDOF 8
ENDMDL
MODEL 10
REMARK VINA RESULT:      -7.2      2.206      2.999
REMARK  8 active torsions:
REMARK  status: ('A' for Active; 'I' for Inactive)
REMARK    1  A    between atoms: C_2  and  C_3 
REMARK    2  A    between atoms: C_6  and  N_7 
REMARK    3  A    between atoms: N_7  and  S_8 
REMARK    4  A    between atoms: S_8  and  C_9 
REMARK    5  A    between atoms: C_15  and  C_16 
REMARK       I    between atoms: C_16  and  N_17 
REMARK    6  A    between atoms: N_17  and  C_18 
REMARK    7  A    between atoms: C_18  and  C_19 
REMARK    8  A    between atoms: C_19  and  O_20 
ROOT
HETATM    1  C   UNL     1     -43.335  58.162 -54.040  1.00  0.00     0.081 A 
HETATM    2  C   UNL     1     -43.492  58.760 -52.787  1.00  0.00     0.043 A 
HETATM    3  C   UNL     1     -44.543  59.662 -52.594  1.00  0.00     0.043 A 
HETATM    4  C   UNL     1     -45.451  59.947 -53.628  1.00  0.00     0.046 A 
HETATM    5  N   UNL     1     -46.480  60.872 -53.413  1.00  0.00    -0.364 N 
HETATM    6  C   UNL     1     -46.676  61.427 -52.173  1.00  0.00     0.109 A 
HETATM    7  C   UNL     1     -45.888  61.237 -51.099  1.00  0.00     0.098 A 
HETATM    8  C   UNL     1     -44.715  60.334 -51.278  1.00  0.00     0.201 A 
HETATM    9  O   UNL     1     -43.901  60.141 -50.379  1.00  0.00    -0.286 OA
HETATM   10  C   UNL     1     -45.269  59.346 -54.878  1.00  0.00     0.032 A 
HETATM   11  C   UNL     1     -44.218  58.446 -55.085  1.00  0.00     0.027 A 
HETATM   12  H   UNL     1     -47.222  60.955 -54.099  1.00  0.00     0.165 HD
ENDROOT
BRANCH   1  13
HETATM   13  S   UNL     1     -42.027  56.976 -54.268  1.00  0.00     0.263 S 
HETATM   14  O   UNL     1     -40.863  57.448 -53.550  1.00  0.00    -0.200 OA
HETATM   15  O   UNL     1     -41.966  56.685 -55.685  1.00  0.00    -0.200 OA
BRANCH  13  16
HETATM   16  N   UNL     1     -42.642  55.595 -53.523  1.00  0.00    -0.281 N 
HETATM   17  H   UNL     1     -43.256  55.813 -52.740  1.00  0.00     0.179 HD
BRANCH  16  18
HETATM   18  C   UNL     1     -41.829  54.434 -53.428  1.00  0.00     0.042 A 
HETATM   19  C   UNL     1     -41.111  54.184 -52.261  1.00  0.00     0.030 A 
HETATM   20  C   UNL     1     -40.311  53.042 -52.168  1.00  0.00     0.010 A 
HETATM   21  C   UNL     1     -40.230  52.132 -53.234  1.00  0.00    -0.055 A 
HETATM   22  C   UNL     1     -40.943  52.412 -54.408  1.00  0.00     0.010 A 
HETATM   23  C   UNL     1     -41.734  53.559 -54.506  1.00  0.00     0.030 A 
BRANCH  21  24
HETATM   24  C   UNL     1     -39.387  50.870 -53.154  1.00  0.00     0.010 C 
HETATM   25  C   UNL     1     -39.655  49.913 -54.318  1.00  0.00     0.015 C 
HETATM   26  C   UNL     1     -39.583  50.165 -51.810  1.00  0.00     0.015 C 
ENDBRANCH  21  24
ENDBRANCH  16  18
ENDBRANCH  13  16
ENDBRANCH   1  13
BRANCH   7  27
HETATM   27  C   UNL     1     -46.233  61.943 -49.832  1.00  0.00     0.257 C 
HETATM   28  N   UNL     1     -45.763  61.362 -48.684  1.00  0.00    -0.355 N 
HETATM   29  H   UNL     1     -45.325  60.441 -48.743  1.00  0.00     0.162 HD
HETATM   30  O   UNL     1     -46.894  62.979 -49.831  1.00  0.00    -0.267 OA
BRANCH  28  31
HETATM   31  C   UNL     1     -46.055  61.890 -47.365  1.00  0.00     0.149 C 
BRANCH  31  32
HETATM   32  C   UNL     1     -45.087  61.372 -46.300  1.00  0.00     0.186 C 
BRANCH  32  33
HETATM   33  O   UNL     1     -45.080  62.280 -45.191  1.00  0.00    -0.394 OA
HETATM   34  C   UNL     1     -45.234  63.626 -45.620  1.00  0.00     0.201 C 
ENDBRANCH  32  33
ENDBRANCH  31  32
ENDBRANCH  28  31
ENDBRANCH   7  27
TORSDOF 8
ENDMDL
