MODEL 1
REMARK VINA RESULT:      -8.7      0.000      0.000
REMARK  10 active torsions:
REMARK  status: ('A' for Active; 'I' for Inactive)
REMARK    1  A    between atoms: C_2  and  N_3 
REMARK    2  A    between atoms: N_3  and  C_4 
REMARK    3  A    between atoms: N_3  and  C_37 
REMARK    4  A    between atoms: C_7  and  C_8 
REMARK    5  A    between atoms: N_9  and  C_11 
REMARK    6  A    between atoms: C_11  and  C_12 
REMARK       I    between atoms: C_12  and  N_13 
REMARK    7  A    between atoms: N_13  and  C_14 
REMARK    8  A    between atoms: C_20  and  C_21 
REMARK    9  A    between atoms: C_21  and  O_22 
REMARK   10  A    between atoms: C_28  and  O_29 
ROOT
HETATM    1  C   UNL     1     -40.872  53.550 -52.941  1.00  0.00     0.228 C 
HETATM    2  N   UNL     1     -41.459  53.966 -51.591  1.00  0.00    -0.054 N 
HETATM    3  H   UNL     1     -41.208  54.960 -51.556  1.00  0.00     0.281 HD
HETATM    4  C   UNL     1     -40.723  53.386 -50.411  1.00  0.00     0.239 C 
HETATM    5  C   UNL     1     -40.443  51.895 -50.511  1.00  0.00     0.066 C 
HETATM    6  C   UNL     1     -39.854  51.494 -51.862  1.00  0.00     0.065 C 
HETATM    7  C   UNL     1     -40.701  52.018 -53.046  1.00  0.00     0.055 C 
HETATM    8  C   UNL     1     -39.690  49.965 -51.952  1.00  0.00     0.038 C 
HETATM    9  C   UNL     1     -39.089  49.525 -53.287  1.00  0.00     0.003 C 
HETATM   10  C   UNL     1     -39.873  50.082 -54.468  1.00  0.00     0.001 C 
HETATM   11  C   UNL     1     -40.038  51.599 -54.381  1.00  0.00     0.010 C 
ENDROOT
BRANCH   2  12
HETATM   12  C   UNL     1     -42.990  54.037 -51.444  1.00  0.00     0.338 C 
BRANCH  12  13
HETATM   13  C   UNL     1     -43.613  55.344 -50.953  1.00  0.00     0.248 C 
HETATM   14  N   UNL     1     -43.120  56.460 -51.608  1.00  0.00    -0.319 N 
HETATM   15  H   UNL     1     -42.315  56.364 -52.231  1.00  0.00     0.169 HD
HETATM   16  O   UNL     1     -44.424  55.340 -50.036  1.00  0.00    -0.271 OA
BRANCH  14  17
HETATM   17  C   UNL     1     -43.496  57.783 -51.387  1.00  0.00     0.094 A 
HETATM   18  S   UNL     1     -45.122  58.246 -51.400  1.00  0.00    -0.076 SA
HETATM   19  C   UNL     1     -44.750  59.875 -51.075  1.00  0.00    -0.012 A 
HETATM   20  C   UNL     1     -45.866  60.863 -50.939  1.00  0.00     0.057 C 
HETATM   21  C   UNL     1     -43.383  60.088 -50.958  1.00  0.00    -0.030 A 
HETATM   22  C   UNL     1     -42.773  61.421 -50.641  1.00  0.00     0.050 C 
HETATM   23  C   UNL     1     -42.635  58.855 -51.180  1.00  0.00     0.080 A 
BRANCH  23  24
HETATM   24  C   UNL     1     -41.178  58.659 -51.176  1.00  0.00     0.296 C 
HETATM   25  O   UNL     1     -40.632  57.865 -50.410  1.00  0.00    -0.259 OA
BRANCH  24  26
HETATM   26  O   UNL     1     -40.516  59.420 -52.087  1.00  0.00    -0.322 OA
HETATM   27  C   UNL     1     -40.775  59.084 -53.450  1.00  0.00     0.213 C 
ENDBRANCH  24  26
ENDBRANCH  23  24
ENDBRANCH  14  17
ENDBRANCH  12  13
ENDBRANCH   2  12
BRANCH   1  28
HETATM   28  C   UNL     1     -41.564  54.254 -54.096  1.00  0.00    -0.027 A 
HETATM   29  C   UNL     1     -41.121  55.528 -54.479  1.00  0.00     0.011 A 
HETATM   30  C   UNL     1     -41.695  56.194 -55.570  1.00  0.00     0.030 A 
HETATM   31  C   UNL     1     -42.739  55.630 -56.311  1.00  0.00     0.030 A 
HETATM   32  C   UNL     1     -43.200  54.373 -55.891  1.00  0.00     0.030 A 
HETATM   33  C   UNL     1     -42.628  53.691 -54.807  1.00  0.00     0.011 A 
BRANCH  31  34
HETATM   34  N   UNL     1     -43.273  56.236 -57.445  1.00  0.00    -0.382 N 
BRANCH  34  35
HETATM   35  C   UNL     1     -43.297  55.537 -58.741  1.00  0.00     0.118 C 
HETATM   36  C   UNL     1     -42.542  56.318 -59.808  1.00  0.00     0.026 C 
ENDBRANCH  34  35
BRANCH  34  37
HETATM   37  C   UNL     1     -43.265  57.707 -57.507  1.00  0.00     0.118 C 
HETATM   38  C   UNL     1     -44.568  58.292 -56.977  1.00  0.00     0.026 C 
ENDBRANCH  34  37
ENDBRANCH  31  34
ENDBRANCH   1  28
BRANCH   6  39
HETATM   39  O   UNL     1     -38.563  52.119 -51.931  1.00  0.00    -0.389 OA
HETATM   40  H   UNL     1     -38.285  52.373 -51.030  1.00  0.00     0.210 HD
ENDBRANCH   6  39
TORSDOF 10
ENDMDL
MODEL 2
REMARK VINA RESULT:      -8.2      1.351      2.002
REMARK  10 active torsions:
REMARK  status: ('A' for Active; 'I' for Inactive)
REMARK    1  A    between atoms: C_2  and  N_3 
REMARK    2  A    between atoms: N_3  and  C_4 
REMARK    3  A    between atoms: N_3  and  C_37 
REMARK    4  A    between atoms: C_7  and  C_8 
REMARK    5  A    between atoms: N_9  and  C_11 
REMARK    6  A    between atoms: C_11  and  C_12 
REMARK       I    between atoms: C_12  and  N_13 
REMARK    7  A    between atoms: N_13  and  C_14 
REMARK    8  A    between atoms: C_20  and  C_21 
REMARK    9  A    between atoms: C_21  and  O_22 
REMARK   10  A    between atoms: C_28  and  O_29 
ROOT
HETATM    1  C   UNL     1     -41.154  54.904 -52.382  1.00  0.00     0.228 C 
HETATM    2  N   UNL     1     -41.903  55.614 -51.252  1.00  0.00    -0.054 N 
HETATM    3  H   UNL     1     -41.616  56.587 -51.396  1.00  0.00     0.281 HD
HETATM    4  C   UNL     1     -41.366  55.296 -49.881  1.00  0.00     0.239 C 
HETATM    5  C   UNL     1     -41.141  53.815 -49.618  1.00  0.00     0.066 C 
HETATM    6  C   UNL     1     -40.389  53.122 -50.751  1.00  0.00     0.065 C 
HETATM    7  C   UNL     1     -41.039  53.385 -52.130  1.00  0.00     0.055 C 
HETATM    8  C   UNL     1     -40.282  51.608 -50.485  1.00  0.00     0.038 C 
HETATM    9  C   UNL     1     -39.522  50.878 -51.593  1.00  0.00     0.003 C 
HETATM   10  C   UNL     1     -40.108  51.174 -52.967  1.00  0.00     0.001 C 
HETATM   11  C   UNL     1     -40.216  52.674 -53.232  1.00  0.00     0.010 C 
ENDROOT
BRANCH   2  12
HETATM   12  C   UNL     1     -43.435  55.736 -51.349  1.00  0.00     0.338 C 
BRANCH  12  13
HETATM   13  C   UNL     1     -44.030  57.058 -51.834  1.00  0.00     0.248 C 
HETATM   14  N   UNL     1     -43.817  58.104 -50.953  1.00  0.00    -0.319 N 
HETATM   15  H   UNL     1     -43.435  57.911 -50.025  1.00  0.00     0.169 HD
HETATM   16  O   UNL     1     -44.661  57.108 -52.883  1.00  0.00    -0.271 OA
BRANCH  14  17
HETATM   17  C   UNL     1     -44.231  59.424 -51.120  1.00  0.00     0.094 A 
HETATM   18  S   UNL     1     -45.795  59.912 -50.702  1.00  0.00    -0.076 SA
HETATM   19  C   UNL     1     -45.512  61.522 -51.171  1.00  0.00    -0.012 A 
HETATM   20  C   UNL     1     -46.606  62.531 -51.011  1.00  0.00     0.057 C 
HETATM   21  C   UNL     1     -44.224  61.709 -51.656  1.00  0.00    -0.030 A 
HETATM   22  C   UNL     1     -43.690  63.035 -52.110  1.00  0.00     0.050 C 
HETATM   23  C   UNL     1     -43.475  60.457 -51.662  1.00  0.00     0.080 A 
BRANCH  23  24
HETATM   24  C   UNL     1     -42.100  60.220 -52.124  1.00  0.00     0.296 C 
HETATM   25  O   UNL     1     -41.784  60.332 -53.308  1.00  0.00    -0.259 OA
BRANCH  24  26
HETATM   26  O   UNL     1     -41.235  59.881 -51.132  1.00  0.00    -0.322 OA
HETATM   27  C   UNL     1     -40.265  58.897 -51.492  1.00  0.00     0.213 C 
ENDBRANCH  24  26
ENDBRANCH  23  24
ENDBRANCH  14  17
ENDBRANCH  12  13
ENDBRANCH   2  12
BRANCH   1  28
HETATM   28  C   UNL     1     -41.646  55.348 -53.749  1.00  0.00    -0.027 A 
HETATM   29  C   UNL     1     -42.415  54.462 -54.517  1.00  0.00     0.011 A 
HETATM   30  C   UNL     1     -42.932  54.847 -55.760  1.00  0.00     0.030 A 
HETATM   31  C   UNL     1     -42.694  56.117 -56.297  1.00  0.00     0.030 A 
HETATM   32  C   UNL     1     -41.889  56.979 -55.537  1.00  0.00     0.030 A 
HETATM   33  C   UNL     1     -41.373  56.610 -54.286  1.00  0.00     0.011 A 
BRANCH  31  34
HETATM   34  N   UNL     1     -43.261  56.549 -57.493  1.00  0.00    -0.382 N 
BRANCH  34  35
HETATM   35  C   UNL     1     -42.909  55.913 -58.774  1.00  0.00     0.118 C 
HETATM   36  C   UNL     1     -44.055  55.062 -59.305  1.00  0.00     0.026 C 
ENDBRANCH  34  35
BRANCH  34  37
HETATM   37  C   UNL     1     -43.720  57.946 -57.572  1.00  0.00     0.118 C 
HETATM   38  C   UNL     1     -45.239  58.037 -57.502  1.00  0.00     0.026 C 
ENDBRANCH  34  37
ENDBRANCH  31  34
ENDBRANCH   1  28
BRANCH   6  39
HETATM   39  O   UNL     1     -39.074  53.699 -50.764  1.00  0.00    -0.389 OA
HETATM   40  H   UNL     1     -39.128  54.617 -50.435  1.00  0.00     0.210 HD
ENDBRANCH   6  39
TORSDOF 10
ENDMDL
MODEL 3
REMARK VINA RESULT:      -7.8      2.291      6.539
REMARK  10 active torsions:
REMARK  status: ('A' for Active; 'I' for Inactive)
REMARK    1  A    between atoms: C_2  and  N_3 
REMARK    2  A    between atoms: N_3  and  C_4 
REMARK    3  A    between atoms: N_3  and  C_37 
REMARK    4  A    between atoms: C_7  and  C_8 
REMARK    5  A    between atoms: N_9  and  C_11 
REMARK    6  A    between atoms: C_11  and  C_12 
REMARK       I    between atoms: C_12  and  N_13 
REMARK    7  A    between atoms: N_13  and  C_14 
REMARK    8  A    between atoms: C_20  and  C_21 
REMARK    9  A    between atoms: C_21  and  O_22 
REMARK   10  A    between atoms: C_28  and  O_29 
ROOT
HETATM    1  C   UNL     1     -43.543  57.005 -55.946  1.00  0.00     0.228 C 
HETATM    2  N   UNL     1     -43.556  58.408 -55.336  1.00  0.00    -0.054 N 
HETATM    3  H   UNL     1     -44.067  58.247 -54.461  1.00  0.00     0.281 HD
HETATM    4  C   UNL     1     -44.441  59.378 -56.076  1.00  0.00     0.239 C 
HETATM    5  C   UNL     1     -44.253  59.379 -57.585  1.00  0.00     0.066 C 
HETATM    6  C   UNL     1     -44.246  57.972 -58.180  1.00  0.00     0.065 C 
HETATM    7  C   UNL     1     -43.244  57.039 -57.461  1.00  0.00     0.055 C 
HETATM    8  C   UNL     1     -43.948  58.023 -59.690  1.00  0.00     0.038 C 
HETATM    9  C   UNL     1     -43.945  56.633 -60.327  1.00  0.00     0.003 C 
HETATM   10  C   UNL     1     -43.010  55.679 -59.594  1.00  0.00     0.001 C 
HETATM   11  C   UNL     1     -43.305  55.629 -58.096  1.00  0.00     0.010 C 
ENDROOT
BRANCH   2  12
HETATM   12  C   UNL     1     -42.233  58.993 -54.807  1.00  0.00     0.338 C 
BRANCH  12  13
HETATM   13  C   UNL     1     -42.234  59.666 -53.434  1.00  0.00     0.248 C 
HETATM   14  N   UNL     1     -43.488  60.104 -53.045  1.00  0.00    -0.319 N 
HETATM   15  H   UNL     1     -44.258  60.090 -53.718  1.00  0.00     0.169 HD
HETATM   16  O   UNL     1     -41.189  59.814 -52.814  1.00  0.00    -0.271 OA
BRANCH  14  17
HETATM   17  C   UNL     1     -43.807  60.745 -51.850  1.00  0.00     0.094 A 
HETATM   18  S   UNL     1     -43.266  62.314 -51.525  1.00  0.00    -0.076 SA
HETATM   19  C   UNL     1     -44.026  62.353 -50.003  1.00  0.00    -0.012 A 
HETATM   20  C   UNL     1     -43.918  63.591 -49.168  1.00  0.00     0.057 C 
HETATM   21  C   UNL     1     -44.697  61.171 -49.720  1.00  0.00    -0.030 A 
HETATM   22  C   UNL     1     -45.482  60.940 -48.463  1.00  0.00     0.050 C 
HETATM   23  C   UNL     1     -44.538  60.202 -50.799  1.00  0.00     0.080 A 
BRANCH  23  24
HETATM   24  C   UNL     1     -45.060  58.830 -50.877  1.00  0.00     0.296 C 
HETATM   25  O   UNL     1     -46.217  58.557 -50.559  1.00  0.00    -0.259 OA
BRANCH  24  26
HETATM   26  O   UNL     1     -44.158  57.921 -51.333  1.00  0.00    -0.322 OA
HETATM   27  C   UNL     1     -44.332  56.598 -50.826  1.00  0.00     0.213 C 
ENDBRANCH  24  26
ENDBRANCH  23  24
ENDBRANCH  14  17
ENDBRANCH  12  13
ENDBRANCH   2  12
BRANCH   1  28
HETATM   28  C   UNL     1     -42.740  56.032 -55.099  1.00  0.00    -0.027 A 
HETATM   29  C   UNL     1     -43.404  55.261 -54.135  1.00  0.00     0.011 A 
HETATM   30  C   UNL     1     -42.713  54.314 -53.367  1.00  0.00     0.030 A 
HETATM   31  C   UNL     1     -41.336  54.109 -53.514  1.00  0.00     0.030 A 
HETATM   32  C   UNL     1     -40.678  54.917 -54.453  1.00  0.00     0.030 A 
HETATM   33  C   UNL     1     -41.359  55.860 -55.235  1.00  0.00     0.011 A 
BRANCH  31  34
HETATM   34  N   UNL     1     -40.643  53.122 -52.818  1.00  0.00    -0.382 N 
BRANCH  34  35
HETATM   35  C   UNL     1     -40.286  53.299 -51.401  1.00  0.00     0.118 C 
HETATM   36  C   UNL     1     -40.129  51.958 -50.695  1.00  0.00     0.026 C 
ENDBRANCH  34  35
BRANCH  34  37
HETATM   37  C   UNL     1     -39.778  52.214 -53.592  1.00  0.00     0.118 C 
HETATM   38  C   UNL     1     -40.595  51.147 -54.308  1.00  0.00     0.026 C 
ENDBRANCH  34  37
ENDBRANCH  31  34
ENDBRANCH   1  28
BRANCH   6  39
HETATM   39  O   UNL     1     -45.567  57.448 -57.971  1.00  0.00    -0.389 OA
HETATM   40  H   UNL     1     -45.735  57.385 -57.010  1.00  0.00     0.210 HD
ENDBRANCH   6  39
TORSDOF 10
ENDMDL
MODEL 4
REMARK VINA RESULT:      -7.7      2.947      7.969
REMARK  10 active torsions:
REMARK  status: ('A' for Active; 'I' for Inactive)
REMARK    1  A    between atoms: C_2  and  N_3 
REMARK    2  A    between atoms: N_3  and  C_4 
REMARK    3  A    between atoms: N_3  and  C_37 
REMARK    4  A    between atoms: C_7  and  C_8 
REMARK    5  A    between atoms: N_9  and  C_11 
REMARK    6  A    between atoms: C_11  and  C_12 
REMARK       I    between atoms: C_12  and  N_13 
REMARK    7  A    between atoms: N_13  and  C_14 
REMARK    8  A    between atoms: C_20  and  C_21 
REMARK    9  A    between atoms: C_21  and  O_22 
REMARK   10  A    between atoms: C_28  and  O_29 
ROOT
HETATM    1  C   UNL     1     -43.764  57.576 -57.791  1.00  0.00     0.228 C 
HETATM    2  N   UNL     1     -43.019  56.244 -57.902  1.00  0.00    -0.054 N 
HETATM    3  H   UNL     1     -42.055  56.532 -57.707  1.00  0.00     0.281 HD
HETATM    4  C   UNL     1     -42.941  55.714 -59.310  1.00  0.00     0.239 C 
HETATM    5  C   UNL     1     -44.261  55.730 -60.065  1.00  0.00     0.066 C 
HETATM    6  C   UNL     1     -44.991  57.066 -59.949  1.00  0.00     0.065 C 
HETATM    7  C   UNL     1     -45.146  57.520 -58.479  1.00  0.00     0.055 C 
HETATM    8  C   UNL     1     -46.366  56.995 -60.640  1.00  0.00     0.038 C 
HETATM    9  C   UNL     1     -47.124  58.320 -60.557  1.00  0.00     0.003 C 
HETATM   10  C   UNL     1     -47.234  58.818 -59.122  1.00  0.00     0.001 C 
HETATM   11  C   UNL     1     -45.871  58.888 -58.435  1.00  0.00     0.010 C 
ENDROOT
BRANCH   2  12
HETATM   12  C   UNL     1     -43.242  55.183 -56.808  1.00  0.00     0.338 C 
BRANCH  12  13
HETATM   13  C   UNL     1     -42.146  54.976 -55.763  1.00  0.00     0.248 C 
HETATM   14  N   UNL     1     -42.392  53.903 -54.924  1.00  0.00    -0.319 N 
HETATM   15  H   UNL     1     -43.303  53.440 -54.952  1.00  0.00     0.169 HD
HETATM   16  O   UNL     1     -41.195  55.745 -55.698  1.00  0.00    -0.271 OA
BRANCH  14  17
HETATM   17  C   UNL     1     -41.578  53.463 -53.882  1.00  0.00     0.094 A 
HETATM   18  S   UNL     1     -40.687  52.031 -54.011  1.00  0.00    -0.076 SA
HETATM   19  C   UNL     1     -40.021  52.204 -52.455  1.00  0.00    -0.012 A 
HETATM   20  C   UNL     1     -39.057  51.173 -51.957  1.00  0.00     0.057 C 
HETATM   21  C   UNL     1     -40.472  53.351 -51.815  1.00  0.00    -0.030 A 
HETATM   22  C   UNL     1     -40.024  53.770 -50.447  1.00  0.00     0.050 C 
HETATM   23  C   UNL     1     -41.425  54.079 -52.646  1.00  0.00     0.080 A 
BRANCH  23  24
HETATM   24  C   UNL     1     -42.152  55.317 -52.328  1.00  0.00     0.296 C 
HETATM   25  O   UNL     1     -41.604  56.418 -52.361  1.00  0.00    -0.259 OA
BRANCH  24  26
HETATM   26  O   UNL     1     -43.459  55.123 -52.010  1.00  0.00    -0.322 OA
HETATM   27  C   UNL     1     -43.706  54.845 -50.631  1.00  0.00     0.213 C 
ENDBRANCH  24  26
ENDBRANCH  23  24
ENDBRANCH  14  17
ENDBRANCH  12  13
ENDBRANCH   2  12
BRANCH   1  28
HETATM   28  C   UNL     1     -43.711  58.134 -56.379  1.00  0.00    -0.027 A 
HETATM   29  C   UNL     1     -44.731  57.803 -55.476  1.00  0.00     0.011 A 
HETATM   30  C   UNL     1     -44.696  58.253 -54.151  1.00  0.00     0.030 A 
HETATM   31  C   UNL     1     -43.659  59.061 -53.673  1.00  0.00     0.030 A 
HETATM   32  C   UNL     1     -42.666  59.419 -54.598  1.00  0.00     0.030 A 
HETATM   33  C   UNL     1     -42.684  58.968 -55.926  1.00  0.00     0.011 A 
BRANCH  31  34
HETATM   34  N   UNL     1     -43.561  59.457 -52.342  1.00  0.00    -0.382 N 
BRANCH  34  35
HETATM   35  C   UNL     1     -42.453  60.310 -51.882  1.00  0.00     0.118 C 
HETATM   36  C   UNL     1     -41.616  59.610 -50.820  1.00  0.00     0.026 C 
ENDBRANCH  34  35
BRANCH  34  37
HETATM   37  C   UNL     1     -44.175  58.591 -51.321  1.00  0.00     0.118 C 
HETATM   38  C   UNL     1     -45.383  59.261 -50.678  1.00  0.00     0.026 C 
ENDBRANCH  34  37
ENDBRANCH  31  34
ENDBRANCH   1  28
BRANCH   6  39
HETATM   39  O   UNL     1     -44.165  58.028 -60.625  1.00  0.00    -0.389 OA
HETATM   40  H   UNL     1     -43.936  57.682 -61.509  1.00  0.00     0.210 HD
ENDBRANCH   6  39
TORSDOF 10
ENDMDL
MODEL 5
REMARK VINA RESULT:      -7.7      3.911      8.431
REMARK  10 active torsions:
REMARK  status: ('A' for Active; 'I' for Inactive)
REMARK    1  A    between atoms: C_2  and  N_3 
REMARK    2  A    between atoms: N_3  and  C_4 
REMARK    3  A    between atoms: N_3  and  C_37 
REMARK    4  A    between atoms: C_7  and  C_8 
REMARK    5  A    between atoms: N_9  and  C_11 
REMARK    6  A    between atoms: C_11  and  C_12 
REMARK       I    between atoms: C_12  and  N_13 
REMARK    7  A    between atoms: N_13  and  C_14 
REMARK    8  A    between atoms: C_20  and  C_21 
REMARK    9  A    between atoms: C_21  and  O_22 
REMARK   10  A    between atoms: C_28  and  O_29 
ROOT
HETATM    1  C   UNL     1     -41.810  57.036 -55.335  1.00  0.00     0.228 C 
HETATM    2  N   UNL     1     -42.169  57.088 -56.821  1.00  0.00    -0.054 N 
HETATM    3  H   UNL     1     -41.295  56.773 -57.254  1.00  0.00     0.281 HD
HETATM    4  C   UNL     1     -42.329  58.489 -57.352  1.00  0.00     0.239 C 
HETATM    5  C   UNL     1     -43.194  59.397 -56.492  1.00  0.00     0.066 C 
HETATM    6  C   UNL     1     -42.822  59.337 -55.012  1.00  0.00     0.065 C 
HETATM    7  C   UNL     1     -42.776  57.885 -54.480  1.00  0.00     0.055 C 
HETATM    8  C   UNL     1     -43.793  60.189 -54.173  1.00  0.00     0.038 C 
HETATM    9  C   UNL     1     -43.445  60.166 -52.684  1.00  0.00     0.003 C 
HETATM   10  C   UNL     1     -43.333  58.743 -52.154  1.00  0.00     0.001 C 
HETATM   11  C   UNL     1     -42.371  57.897 -52.985  1.00  0.00     0.010 C 
ENDROOT
BRANCH   2  12
HETATM   12  C   UNL     1     -43.168  56.055 -57.374  1.00  0.00     0.338 C 
BRANCH  12  13
HETATM   13  C   UNL     1     -43.883  56.367 -58.688  1.00  0.00     0.248 C 
HETATM   14  N   UNL     1     -45.183  56.807 -58.508  1.00  0.00    -0.319 N 
HETATM   15  H   UNL     1     -45.608  56.756 -57.580  1.00  0.00     0.169 HD
HETATM   16  O   UNL     1     -43.323  56.178 -59.761  1.00  0.00    -0.271 OA
BRANCH  14  17
HETATM   17  C   UNL     1     -46.080  57.173 -59.509  1.00  0.00     0.094 A 
HETATM   18  S   UNL     1     -46.802  56.014 -60.506  1.00  0.00    -0.076 SA
HETATM   19  C   UNL     1     -47.680  57.184 -61.376  1.00  0.00    -0.012 A 
HETATM   20  C   UNL     1     -48.595  56.739 -62.474  1.00  0.00     0.057 C 
HETATM   21  C   UNL     1     -47.430  58.472 -60.923  1.00  0.00    -0.030 A 
HETATM   22  C   UNL     1     -48.092  59.695 -61.486  1.00  0.00     0.050 C 
HETATM   23  C   UNL     1     -46.453  58.471 -59.840  1.00  0.00     0.080 A 
BRANCH  23  24
HETATM   24  C   UNL     1     -45.898  59.621 -59.112  1.00  0.00     0.296 C 
HETATM   25  O   UNL     1     -45.062  60.369 -59.619  1.00  0.00    -0.259 OA
BRANCH  24  26
HETATM   26  O   UNL     1     -46.397  59.773 -57.856  1.00  0.00    -0.322 OA
HETATM   27  C   UNL     1     -47.644  60.465 -57.787  1.00  0.00     0.213 C 
ENDBRANCH  24  26
ENDBRANCH  23  24
ENDBRANCH  14  17
ENDBRANCH  12  13
ENDBRANCH   2  12
BRANCH   1  28
HETATM   28  C   UNL     1     -41.536  55.615 -54.872  1.00  0.00    -0.027 A 
HETATM   29  C   UNL     1     -40.284  55.042 -55.137  1.00  0.00     0.011 A 
HETATM   30  C   UNL     1     -39.970  53.755 -54.685  1.00  0.00     0.030 A 
HETATM   31  C   UNL     1     -40.889  52.979 -53.969  1.00  0.00     0.030 A 
HETATM   32  C   UNL     1     -42.152  53.549 -53.748  1.00  0.00     0.030 A 
HETATM   33  C   UNL     1     -42.476  54.841 -54.186  1.00  0.00     0.011 A 
BRANCH  31  34
HETATM   34  N   UNL     1     -40.574  51.729 -53.443  1.00  0.00    -0.382 N 
BRANCH  34  35
HETATM   35  C   UNL     1     -39.670  51.597 -52.288  1.00  0.00     0.118 C 
HETATM   36  C   UNL     1     -39.876  52.727 -51.288  1.00  0.00     0.026 C 
ENDBRANCH  34  35
BRANCH  34  37
HETATM   37  C   UNL     1     -40.644  50.567 -54.343  1.00  0.00     0.118 C 
HETATM   38  C   UNL     1     -39.332  49.792 -54.354  1.00  0.00     0.026 C 
ENDBRANCH  34  37
ENDBRANCH  31  34
ENDBRANCH   1  28
BRANCH   6  39
HETATM   39  O   UNL     1     -41.498  59.886 -54.915  1.00  0.00    -0.389 OA
HETATM   40  H   UNL     1     -41.053  59.794 -55.780  1.00  0.00     0.210 HD
ENDBRANCH   6  39
TORSDOF 10
ENDMDL
MODEL 6
REMARK VINA RESULT:      -7.6      2.752      8.032
REMARK  10 active torsions:
REMARK  status: ('A' for Active; 'I' for Inactive)
REMARK    1  A    between atoms: C_2  and  N_3 
REMARK    2  A    between atoms: N_3  and  C_4 
REMARK    3  A    between atoms: N_3  and  C_37 
REMARK    4  A    between atoms: C_7  and  C_8 
REMARK    5  A    between atoms: N_9  and  C_11 
REMARK    6  A    between atoms: C_11  and  C_12 
REMARK       I    between atoms: C_12  and  N_13 
REMARK    7  A    between atoms: N_13  and  C_14 
REMARK    8  A    between atoms: C_20  and  C_21 
REMARK    9  A    between atoms: C_21  and  O_22 
REMARK   10  A    between atoms: C_28  and  O_29 
ROOT
HETATM    1  C   UNL     1     -43.810  57.597 -57.768  1.00  0.00     0.228 C 
HETATM    2  N   UNL     1     -43.015  56.304 -57.958  1.00  0.00    -0.054 N 
HETATM    3  H   UNL     1     -42.064  56.613 -57.730  1.00  0.00     0.281 HD
HETATM    4  C   UNL     1     -42.901  55.874 -59.397  1.00  0.00     0.239 C 
HETATM    5  C   UNL     1     -44.211  55.894 -60.168  1.00  0.00     0.066 C 
HETATM    6  C   UNL     1     -44.992  57.192 -59.973  1.00  0.00     0.065 C 
HETATM    7  C   UNL     1     -45.181  57.539 -58.477  1.00  0.00     0.055 C 
HETATM    8  C   UNL     1     -46.356  57.118 -60.686  1.00  0.00     0.038 C 
HETATM    9  C   UNL     1     -47.163  58.406 -60.524  1.00  0.00     0.003 C 
HETATM   10  C   UNL     1     -47.308  58.801 -59.061  1.00  0.00     0.001 C 
HETATM   11  C   UNL     1     -45.957  58.873 -58.352  1.00  0.00     0.010 C 
ENDROOT
BRANCH   2  12
HETATM   12  C   UNL     1     -43.210  55.164 -56.942  1.00  0.00     0.338 C 
BRANCH  12  13
HETATM   13  C   UNL     1     -42.339  55.153 -55.686  1.00  0.00     0.248 C 
HETATM   14  N   UNL     1     -42.844  54.345 -54.682  1.00  0.00    -0.319 N 
HETATM   15  H   UNL     1     -43.783  53.952 -54.776  1.00  0.00     0.169 HD
HETATM   16  O   UNL     1     -41.332  55.848 -55.621  1.00  0.00    -0.271 OA
BRANCH  14  17
HETATM   17  C   UNL     1     -42.274  54.127 -53.429  1.00  0.00     0.094 A 
HETATM   18  S   UNL     1     -42.814  54.963 -52.062  1.00  0.00    -0.076 SA
HETATM   19  C   UNL     1     -41.701  54.183 -51.039  1.00  0.00    -0.012 A 
HETATM   20  C   UNL     1     -41.699  54.512 -49.579  1.00  0.00     0.057 C 
HETATM   21  C   UNL     1     -40.900  53.280 -51.725  1.00  0.00    -0.030 A 
HETATM   22  C   UNL     1     -39.854  52.428 -51.068  1.00  0.00     0.050 C 
HETATM   23  C   UNL     1     -41.214  53.272 -53.150  1.00  0.00     0.080 A 
BRANCH  23  24
HETATM   24  C   UNL     1     -40.580  52.487 -54.219  1.00  0.00     0.296 C 
HETATM   25  O   UNL     1     -39.799  52.996 -55.023  1.00  0.00    -0.259 OA
BRANCH  24  26
HETATM   26  O   UNL     1     -40.930  51.174 -54.221  1.00  0.00    -0.322 OA
HETATM   27  C   UNL     1     -39.832  50.261 -54.202  1.00  0.00     0.213 C 
ENDBRANCH  24  26
ENDBRANCH  23  24
ENDBRANCH  14  17
ENDBRANCH  12  13
ENDBRANCH   2  12
BRANCH   1  28
HETATM   28  C   UNL     1     -43.794  58.060 -56.321  1.00  0.00    -0.027 A 
HETATM   29  C   UNL     1     -44.823  57.650 -55.463  1.00  0.00     0.011 A 
HETATM   30  C   UNL     1     -44.822  58.010 -54.109  1.00  0.00     0.030 A 
HETATM   31  C   UNL     1     -43.809  58.804 -53.559  1.00  0.00     0.030 A 
HETATM   32  C   UNL     1     -42.808  59.242 -54.438  1.00  0.00     0.030 A 
HETATM   33  C   UNL     1     -42.792  58.880 -55.793  1.00  0.00     0.011 A 
BRANCH  31  34
HETATM   34  N   UNL     1     -43.744  59.110 -52.202  1.00  0.00    -0.382 N 
BRANCH  34  35
HETATM   35  C   UNL     1     -44.679  60.072 -51.595  1.00  0.00     0.118 C 
HETATM   36  C   UNL     1     -45.707  59.370 -50.717  1.00  0.00     0.026 C 
ENDBRANCH  34  35
BRANCH  34  37
HETATM   37  C   UNL     1     -42.447  58.956 -51.524  1.00  0.00     0.118 C 
HETATM   38  C   UNL     1     -42.065  60.219 -50.762  1.00  0.00     0.026 C 
ENDBRANCH  34  37
ENDBRANCH  31  34
ENDBRANCH   1  28
BRANCH   6  39
HETATM   39  O   UNL     1     -44.195  58.226 -60.570  1.00  0.00    -0.389 OA
HETATM   40  H   UNL     1     -44.306  58.191 -61.540  1.00  0.00     0.210 HD
ENDBRANCH   6  39
TORSDOF 10
ENDMDL
MODEL 7
REMARK VINA RESULT:      -7.5      2.834      8.590
REMARK  10 active torsions:
REMARK  status: ('A' for Active; 'I' for Inactive)
REMARK    1  A    between atoms: C_2  and  N_3 
REMARK    2  A    between atoms: N_3  and  C_4 
REMARK    3  A    between atoms: N_3  and  C_37 
REMARK    4  A    between atoms: C_7  and  C_8 
REMARK    5  A    between atoms: N_9  and  C_11 
REMARK    6  A    between atoms: C_11  and  C_12 
REMARK       I    between atoms: C_12  and  N_13 
REMARK    7  A    between atoms: N_13  and  C_14 
REMARK    8  A    between atoms: C_20  and  C_21 
REMARK    9  A    between atoms: C_21  and  O_22 
REMARK   10  A    between atoms: C_28  and  O_29 
ROOT
HETATM    1  C   UNL     1     -42.647  59.531 -52.468  1.00  0.00     0.228 C 
HETATM    2  N   UNL     1     -41.663  58.427 -52.078  1.00  0.00    -0.054 N 
HETATM    3  H   UNL     1     -41.058  58.918 -51.411  1.00  0.00     0.281 HD
HETATM    4  C   UNL     1     -40.715  58.048 -53.186  1.00  0.00     0.239 C 
HETATM    5  C   UNL     1     -41.379  57.813 -54.533  1.00  0.00     0.066 C 
HETATM    6  C   UNL     1     -42.356  58.925 -54.911  1.00  0.00     0.065 C 
HETATM    7  C   UNL     1     -43.381  59.207 -53.788  1.00  0.00     0.055 C 
HETATM    8  C   UNL     1     -43.078  58.588 -56.229  1.00  0.00     0.038 C 
HETATM    9  C   UNL     1     -44.057  59.684 -56.649  1.00  0.00     0.003 C 
HETATM   10  C   UNL     1     -45.037  60.023 -55.534  1.00  0.00     0.001 C 
HETATM   11  C   UNL     1     -44.322  60.356 -54.226  1.00  0.00     0.010 C 
ENDROOT
BRANCH   2  12
HETATM   12  C   UNL     1     -42.172  57.258 -51.215  1.00  0.00     0.338 C 
BRANCH  12  13
HETATM   13  C   UNL     1     -41.294  56.013 -51.087  1.00  0.00     0.248 C 
HETATM   14  N   UNL     1     -41.638  55.012 -51.979  1.00  0.00    -0.319 N 
HETATM   15  H   UNL     1     -42.496  55.099 -52.527  1.00  0.00     0.169 HD
HETATM   16  O   UNL     1     -40.422  55.953 -50.230  1.00  0.00    -0.271 OA
BRANCH  14  17
HETATM   17  C   UNL     1     -41.021  53.769 -52.107  1.00  0.00     0.094 A 
HETATM   18  S   UNL     1     -40.618  52.846 -50.749  1.00  0.00    -0.076 SA
HETATM   19  C   UNL     1     -39.965  51.588 -51.691  1.00  0.00    -0.012 A 
HETATM   20  C   UNL     1     -39.417  50.375 -51.006  1.00  0.00     0.057 C 
HETATM   21  C   UNL     1     -40.041  51.857 -53.051  1.00  0.00    -0.030 A 
HETATM   22  C   UNL     1     -39.571  50.908 -54.113  1.00  0.00     0.050 C 
HETATM   23  C   UNL     1     -40.633  53.167 -53.299  1.00  0.00     0.080 A 
BRANCH  23  24
HETATM   24  C   UNL     1     -40.861  53.835 -54.588  1.00  0.00     0.296 C 
HETATM   25  O   UNL     1     -39.961  54.433 -55.177  1.00  0.00    -0.259 OA
BRANCH  24  26
HETATM   26  O   UNL     1     -42.133  53.719 -55.053  1.00  0.00    -0.322 OA
HETATM   27  C   UNL     1     -42.595  54.830 -55.822  1.00  0.00     0.213 C 
ENDBRANCH  24  26
ENDBRANCH  23  24
ENDBRANCH  14  17
ENDBRANCH  12  13
ENDBRANCH   2  12
BRANCH   1  28
HETATM   28  C   UNL     1     -43.498  59.969 -51.287  1.00  0.00    -0.027 A 
HETATM   29  C   UNL     1     -43.012  60.965 -50.429  1.00  0.00     0.011 A 
HETATM   30  C   UNL     1     -43.783  61.435 -49.359  1.00  0.00     0.030 A 
HETATM   31  C   UNL     1     -45.057  60.925 -49.088  1.00  0.00     0.030 A 
HETATM   32  C   UNL     1     -45.514  59.899 -49.929  1.00  0.00     0.030 A 
HETATM   33  C   UNL     1     -44.757  59.426 -51.010  1.00  0.00     0.011 A 
BRANCH  31  34
HETATM   34  N   UNL     1     -45.873  61.429 -48.079  1.00  0.00    -0.382 N 
BRANCH  34  35
HETATM   35  C   UNL     1     -46.139  62.873 -47.967  1.00  0.00     0.118 C 
HETATM   36  C   UNL     1     -47.520  63.141 -47.384  1.00  0.00     0.026 C 
ENDBRANCH  34  35
BRANCH  34  37
HETATM   37  C   UNL     1     -45.982  60.655 -46.831  1.00  0.00     0.118 C 
HETATM   38  C   UNL     1     -44.860  61.003 -45.862  1.00  0.00     0.026 C 
ENDBRANCH  34  37
ENDBRANCH  31  34
ENDBRANCH   1  28
BRANCH   6  39
HETATM   39  O   UNL     1     -41.559  60.107 -55.091  1.00  0.00    -0.389 OA
HETATM   40  H   UNL     1     -41.390  60.232 -56.045  1.00  0.00     0.210 HD
ENDBRANCH   6  39
TORSDOF 10
ENDMDL
MODEL 8
REMARK VINA RESULT:      -7.2      3.254      6.761
REMARK  10 active torsions:
REMARK  status: ('A' for Active; 'I' for Inactive)
REMARK    1  A    between atoms: C_2  and  N_3 
REMARK    2  A    between atoms: N_3  and  C_4 
REMARK    3  A    between atoms: N_3  and  C_37 
REMARK    4  A    between atoms: C_7  and  C_8 
REMARK    5  A    between atoms: N_9  and  C_11 
REMARK    6  A    between atoms: C_11  and  C_12 
REMARK       I    between atoms: C_12  and  N_13 
REMARK    7  A    between atoms: N_13  and  C_14 
REMARK    8  A    between atoms: C_20  and  C_21 
REMARK    9  A    between atoms: C_21  and  O_22 
REMARK   10  A    between atoms: C_28  and  O_29 
ROOT
HETATM    1  C   UNL     1     -42.578  56.084 -52.854  1.00  0.00     0.228 C 
HETATM    2  N   UNL     1     -42.654  55.690 -54.330  1.00  0.00    -0.054 N 
HETATM    3  H   UNL     1     -43.623  55.938 -54.558  1.00  0.00     0.281 HD
HETATM    4  C   UNL     1     -42.618  54.201 -54.558  1.00  0.00     0.239 C 
HETATM    5  C   UNL     1     -41.523  53.472 -53.795  1.00  0.00     0.066 C 
HETATM    6  C   UNL     1     -41.462  53.872 -52.323  1.00  0.00     0.065 C 
HETATM    7  C   UNL     1     -41.389  55.406 -52.138  1.00  0.00     0.055 C 
HETATM    8  C   UNL     1     -40.272  53.188 -51.623  1.00  0.00     0.038 C 
HETATM    9  C   UNL     1     -40.184  53.553 -50.142  1.00  0.00     0.003 C 
HETATM   10  C   UNL     1     -40.175  55.061 -49.933  1.00  0.00     0.001 C 
HETATM   11  C   UNL     1     -41.354  55.742 -50.627  1.00  0.00     0.010 C 
ENDROOT
BRANCH   2  12
HETATM   12  C   UNL     1     -41.878  56.535 -55.358  1.00  0.00     0.338 C 
BRANCH  12  13
HETATM   13  C   UNL     1     -42.670  57.449 -56.292  1.00  0.00     0.248 C 
HETATM   14  N   UNL     1     -43.902  56.927 -56.648  1.00  0.00    -0.319 N 
HETATM   15  H   UNL     1     -44.128  55.960 -56.405  1.00  0.00     0.169 HD
HETATM   16  O   UNL     1     -42.187  58.503 -56.688  1.00  0.00    -0.271 OA
BRANCH  14  17
HETATM   17  C   UNL     1     -44.847  57.526 -57.478  1.00  0.00     0.094 A 
HETATM   18  S   UNL     1     -45.940  58.669 -56.880  1.00  0.00    -0.076 SA
HETATM   19  C   UNL     1     -46.676  58.887 -58.398  1.00  0.00    -0.012 A 
HETATM   20  C   UNL     1     -47.796  59.872 -58.530  1.00  0.00     0.057 C 
HETATM   21  C   UNL     1     -46.102  58.090 -59.379  1.00  0.00    -0.030 A 
HETATM   22  C   UNL     1     -46.530  58.102 -60.817  1.00  0.00     0.050 C 
HETATM   23  C   UNL     1     -45.041  57.254 -58.827  1.00  0.00     0.080 A 
BRANCH  23  24
HETATM   24  C   UNL     1     -44.213  56.256 -59.520  1.00  0.00     0.296 C 
HETATM   25  O   UNL     1     -44.220  55.069 -59.196  1.00  0.00    -0.259 OA
BRANCH  24  26
HETATM   26  O   UNL     1     -43.466  56.767 -60.534  1.00  0.00    -0.322 OA
HETATM   27  C   UNL     1     -42.241  57.379 -60.127  1.00  0.00     0.213 C 
ENDBRANCH  24  26
ENDBRANCH  23  24
ENDBRANCH  14  17
ENDBRANCH  12  13
ENDBRANCH   2  12
BRANCH   1  28
HETATM   28  C   UNL     1     -42.744  57.583 -52.662  1.00  0.00    -0.027 A 
HETATM   29  C   UNL     1     -44.031  58.136 -52.695  1.00  0.00     0.011 A 
HETATM   30  C   UNL     1     -44.236  59.503 -52.473  1.00  0.00     0.030 A 
HETATM   31  C   UNL     1     -43.171  60.377 -52.227  1.00  0.00     0.030 A 
HETATM   32  C   UNL     1     -41.885  59.818 -52.238  1.00  0.00     0.030 A 
HETATM   33  C   UNL     1     -41.667  58.449 -52.449  1.00  0.00     0.011 A 
BRANCH  31  34
HETATM   34  N   UNL     1     -43.355  61.725 -51.927  1.00  0.00    -0.382 N 
BRANCH  34  35
HETATM   35  C   UNL     1     -43.343  62.747 -52.986  1.00  0.00     0.118 C 
HETATM   36  C   UNL     1     -44.757  63.160 -53.375  1.00  0.00     0.026 C 
ENDBRANCH  34  35
BRANCH  34  37
HETATM   37  C   UNL     1     -42.979  62.187 -50.580  1.00  0.00     0.118 C 
HETATM   38  C   UNL     1     -44.010  61.768 -49.541  1.00  0.00     0.026 C 
ENDBRANCH  34  37
ENDBRANCH  31  34
ENDBRANCH   1  28
BRANCH   6  39
HETATM   39  O   UNL     1     -42.690  53.413 -51.737  1.00  0.00    -0.389 OA
HETATM   40  H   UNL     1     -43.431  53.929 -52.109  1.00  0.00     0.210 HD
ENDBRANCH   6  39
TORSDOF 10
ENDMDL
MODEL 9
REMARK VINA RESULT:      -7.2      2.810      6.694
REMARK  10 active torsions:
REMARK  status: ('A' for Active; 'I' for Inactive)
REMARK    1  A    between atoms: C_2  and  N_3 
REMARK    2  A    between atoms: N_3  and  C_4 
REMARK    3  A    between atoms: N_3  and  C_37 
REMARK    4  A    between atoms: C_7  and  C_8 
REMARK    5  A    between atoms: N_9  and  C_11 
REMARK    6  A    between atoms: C_11  and  C_12 
REMARK       I    between atoms: C_12  and  N_13 
REMARK    7  A    between atoms: N_13  and  C_14 
REMARK    8  A    between atoms: C_20  and  C_21 
REMARK    9  A    between atoms: C_21  and  O_22 
REMARK   10  A    between atoms: C_28  and  O_29 
ROOT
HETATM    1  C   UNL     1     -43.674  56.517 -55.742  1.00  0.00     0.228 C 
HETATM    2  N   UNL     1     -43.897  57.762 -54.882  1.00  0.00    -0.054 N 
HETATM    3  H   UNL     1     -44.464  57.384 -54.116  1.00  0.00     0.281 HD
HETATM    4  C   UNL     1     -44.811  58.777 -55.518  1.00  0.00     0.239 C 
HETATM    5  C   UNL     1     -44.487  59.097 -56.969  1.00  0.00     0.066 C 
HETATM    6  C   UNL     1     -44.272  57.845 -57.816  1.00  0.00     0.065 C 
HETATM    7  C   UNL     1     -43.243  56.880 -57.180  1.00  0.00     0.055 C 
HETATM    8  C   UNL     1     -43.843  58.223 -59.246  1.00  0.00     0.038 C 
HETATM    9  C   UNL     1     -43.631  56.995 -60.131  1.00  0.00     0.003 C 
HETATM   10  C   UNL     1     -42.669  56.001 -59.494  1.00  0.00     0.001 C 
HETATM   11  C   UNL     1     -43.092  55.625 -58.075  1.00  0.00     0.010 C 
ENDROOT
BRANCH   2  12
HETATM   12  C   UNL     1     -42.700  58.345 -54.108  1.00  0.00     0.338 C 
BRANCH  12  13
HETATM   13  C   UNL     1     -42.802  59.778 -53.584  1.00  0.00     0.248 C 
HETATM   14  N   UNL     1     -43.610  59.890 -52.466  1.00  0.00    -0.319 N 
HETATM   15  H   UNL     1     -44.174  59.091 -52.169  1.00  0.00     0.169 HD
HETATM   16  O   UNL     1     -42.239  60.695 -54.169  1.00  0.00    -0.271 OA
BRANCH  14  17
HETATM   17  C   UNL     1     -43.891  61.059 -51.762  1.00  0.00     0.094 A 
HETATM   18  S   UNL     1     -42.762  61.738 -50.702  1.00  0.00    -0.076 SA
HETATM   19  C   UNL     1     -43.793  63.028 -50.292  1.00  0.00    -0.012 A 
HETATM   20  C   UNL     1     -43.311  64.065 -49.326  1.00  0.00     0.057 C 
HETATM   21  C   UNL     1     -45.012  62.956 -50.952  1.00  0.00    -0.030 A 
HETATM   22  C   UNL     1     -46.099  63.979 -50.805  1.00  0.00     0.050 C 
HETATM   23  C   UNL     1     -45.086  61.769 -51.796  1.00  0.00     0.080 A 
BRANCH  23  24
HETATM   24  C   UNL     1     -46.208  61.312 -52.630  1.00  0.00     0.296 C 
HETATM   25  O   UNL     1     -47.191  60.752 -52.145  1.00  0.00    -0.259 OA
BRANCH  24  26
HETATM   26  O   UNL     1     -46.053  61.572 -53.955  1.00  0.00    -0.322 OA
HETATM   27  C   UNL     1     -46.848  62.649 -54.452  1.00  0.00     0.213 C 
ENDBRANCH  24  26
ENDBRANCH  23  24
ENDBRANCH  14  17
ENDBRANCH  12  13
ENDBRANCH   2  12
BRANCH   1  28
HETATM   28  C   UNL     1     -42.851  55.469 -55.012  1.00  0.00    -0.027 A 
HETATM   29  C   UNL     1     -41.517  55.264 -55.392  1.00  0.00     0.011 A 
HETATM   30  C   UNL     1     -40.706  54.346 -54.714  1.00  0.00     0.030 A 
HETATM   31  C   UNL     1     -41.190  53.583 -53.645  1.00  0.00     0.030 A 
HETATM   32  C   UNL     1     -42.538  53.768 -53.302  1.00  0.00     0.030 A 
HETATM   33  C   UNL     1     -43.358  54.692 -53.965  1.00  0.00     0.011 A 
BRANCH  31  34
HETATM   34  N   UNL     1     -40.383  52.722 -52.906  1.00  0.00    -0.382 N 
BRANCH  34  35
HETATM   35  C   UNL     1     -39.938  53.076 -51.548  1.00  0.00     0.118 C 
HETATM   36  C   UNL     1     -40.282  51.980 -50.547  1.00  0.00     0.026 C 
ENDBRANCH  34  35
BRANCH  34  37
HETATM   37  C   UNL     1     -39.519  51.787 -53.645  1.00  0.00     0.118 C 
HETATM   38  C   UNL     1     -40.326  50.648 -54.255  1.00  0.00     0.026 C 
ENDBRANCH  34  37
ENDBRANCH  31  34
ENDBRANCH   1  28
BRANCH   6  39
HETATM   39  O   UNL     1     -45.541  57.173 -57.858  1.00  0.00    -0.389 OA
HETATM   40  H   UNL     1     -45.725  56.789 -56.979  1.00  0.00     0.210 HD
ENDBRANCH   6  39
TORSDOF 10
ENDMDL
MODEL 10
REMARK VINA RESULT:      -7.2      2.476      7.523
REMARK  10 active torsions:
REMARK  status: ('A' for Active; 'I' for Inactive)
REMARK    1  A    between atoms: C_2  and  N_3 
REMARK    2  A    between atoms: N_3  and  C_4 
REMARK    3  A    between atoms: N_3  and  C_37 
REMARK    4  A    between atoms: C_7  and  C_8 
REMARK    5  A    between atoms: N_9  and  C_11 
REMARK    6  A    between atoms: C_11  and  C_12 
REMARK       I    between atoms: C_12  and  N_13 
REMARK    7  A    between atoms: N_13  and  C_14 
REMARK    8  A    between atoms: C_20  and  C_21 
REMARK    9  A    between atoms: C_21  and  O_22 
REMARK   10  A    between atoms: C_28  and  O_29 
ROOT
HETATM    1  C   UNL     1     -44.940  58.996 -53.495  1.00  0.00     0.228 C 
HETATM    2  N   UNL     1     -44.531  57.884 -52.527  1.00  0.00    -0.054 N 
HETATM    3  H   UNL     1     -45.051  57.084 -52.903  1.00  0.00     0.281 HD
HETATM    4  C   UNL     1     -45.106  58.048 -51.144  1.00  0.00     0.239 C 
HETATM    5  C   UNL     1     -44.954  59.443 -50.558  1.00  0.00     0.066 C 
HETATM    6  C   UNL     1     -45.369  60.542 -51.533  1.00  0.00     0.065 C 
HETATM    7  C   UNL     1     -44.671  60.399 -52.906  1.00  0.00     0.055 C 
HETATM    8  C   UNL     1     -45.096  61.934 -50.932  1.00  0.00     0.038 C 
HETATM    9  C   UNL     1     -45.512  63.063 -51.875  1.00  0.00     0.003 C 
HETATM   10  C   UNL     1     -44.885  62.907 -53.253  1.00  0.00     0.001 C 
HETATM   11  C   UNL     1     -45.154  61.526 -53.851  1.00  0.00     0.010 C 
ENDROOT
BRANCH   2  12
HETATM   12  C   UNL     1     -43.086  57.355 -52.582  1.00  0.00     0.338 C 
BRANCH  12  13
HETATM   13  C   UNL     1     -42.862  55.844 -52.518  1.00  0.00     0.248 C 
HETATM   14  N   UNL     1     -41.525  55.497 -52.438  1.00  0.00    -0.319 N 
HETATM   15  H   UNL     1     -40.809  56.214 -52.572  1.00  0.00     0.169 HD
HETATM   16  O   UNL     1     -43.811  55.072 -52.583  1.00  0.00    -0.271 OA
BRANCH  14  17
HETATM   17  C   UNL     1     -41.008  54.205 -52.360  1.00  0.00     0.094 A 
HETATM   18  S   UNL     1     -40.748  53.453 -50.868  1.00  0.00    -0.076 SA
HETATM   19  C   UNL     1     -40.159  52.029 -51.591  1.00  0.00    -0.012 A 
HETATM   20  C   UNL     1     -39.747  50.886 -50.717  1.00  0.00     0.057 C 
HETATM   21  C   UNL     1     -40.148  52.110 -52.977  1.00  0.00    -0.030 A 
HETATM   22  C   UNL     1     -39.710  50.989 -53.872  1.00  0.00     0.050 C 
HETATM   23  C   UNL     1     -40.617  53.414 -53.434  1.00  0.00     0.080 A 
BRANCH  23  24
HETATM   24  C   UNL     1     -40.727  53.911 -54.813  1.00  0.00     0.296 C 
HETATM   25  O   UNL     1     -39.742  54.279 -55.452  1.00  0.00    -0.259 OA
BRANCH  24  26
HETATM   26  O   UNL     1     -41.997  53.912 -55.300  1.00  0.00    -0.322 OA
HETATM   27  C   UNL     1     -42.338  55.058 -56.081  1.00  0.00     0.213 C 
ENDBRANCH  24  26
ENDBRANCH  23  24
ENDBRANCH  14  17
ENDBRANCH  12  13
ENDBRANCH   2  12
BRANCH   1  28
HETATM   28  C   UNL     1     -44.442  58.725 -54.905  1.00  0.00    -0.027 A 
HETATM   29  C   UNL     1     -43.138  59.104 -55.251  1.00  0.00     0.011 A 
HETATM   30  C   UNL     1     -42.620  58.829 -56.523  1.00  0.00     0.030 A 
HETATM   31  C   UNL     1     -43.380  58.183 -57.505  1.00  0.00     0.030 A 
HETATM   32  C   UNL     1     -44.697  57.847 -57.158  1.00  0.00     0.030 A 
HETATM   33  C   UNL     1     -45.225  58.107 -55.885  1.00  0.00     0.011 A 
BRANCH  31  34
HETATM   34  N   UNL     1     -42.863  57.829 -58.748  1.00  0.00    -0.382 N 
BRANCH  34  35
HETATM   35  C   UNL     1     -41.800  58.626 -59.384  1.00  0.00     0.118 C 
HETATM   36  C   UNL     1     -42.300  59.310 -60.649  1.00  0.00     0.026 C 
ENDBRANCH  34  35
BRANCH  34  37
HETATM   37  C   UNL     1     -43.729  57.065 -59.661  1.00  0.00     0.118 C 
HETATM   38  C   UNL     1     -43.303  55.605 -59.740  1.00  0.00     0.026 C 
ENDBRANCH  34  37
ENDBRANCH  31  34
ENDBRANCH   1  28
BRANCH   6  39
HETATM   39  O   UNL     1     -46.782  60.377 -51.736  1.00  0.00    -0.389 OA
HETATM   40  H   UNL     1     -46.970  60.406 -52.694  1.00  0.00     0.210 HD
ENDBRANCH   6  39
TORSDOF 10
ENDMDL
