MODEL 1
REMARK VINA RESULT:      -8.7      0.000      0.000
REMARK  7 active torsions:
REMARK  status: ('A' for Active; 'I' for Inactive)
REMARK    1  A    between atoms: C_4  and  N_5 
REMARK    2  A    between atoms: C_6  and  S_7 
REMARK    3  A    between atoms: S_7  and  C_8 
REMARK    4  A    between atoms: C_8  and  C_9 
REMARK       I    between atoms: C_9  and  N_10 
REMARK    5  A    between atoms: N_10  and  C_11 
REMARK    6  A    between atoms: C_24  and  C_25 
REMARK    7  A    between atoms: C_26  and  O_27 
ROOT
HETATM    1  N   UNL     1     -41.087  54.490 -51.860  1.00  0.00    -0.271 N 
HETATM    2  C   UNL     1     -40.966  55.492 -50.905  1.00  0.00     0.197 A 
HETATM    3  N   UNL     1     -40.375  55.025 -49.829  1.00  0.00    -0.122 NA
HETATM    4  N   UNL     1     -40.058  53.722 -50.052  1.00  0.00    -0.128 NA
HETATM    5  C   UNL     1     -40.412  53.408 -51.287  1.00  0.00     0.172 A 
ENDROOT
BRANCH   2   6
HETATM    6  S   UNL     1     -41.639  57.096 -50.985  1.00  0.00    -0.080 SA
BRANCH   6   7
HETATM    7  C   UNL     1     -40.516  57.834 -52.217  1.00  0.00     0.185 C 
BRANCH   7   8
HETATM    8  C   UNL     1     -41.257  58.532 -53.346  1.00  0.00     0.231 C 
HETATM    9  N   UNL     1     -42.412  57.882 -53.749  1.00  0.00    -0.326 N 
HETATM   10  H   UNL     1     -42.776  57.190 -53.106  1.00  0.00     0.169 HD
HETATM   11  O   UNL     1     -40.776  59.532 -53.873  1.00  0.00    -0.272 OA
BRANCH   9  12
HETATM   12  C   UNL     1     -43.175  58.134 -54.908  1.00  0.00     0.037 A 
HETATM   13  C   UNL     1     -42.624  58.268 -56.186  1.00  0.00     0.069 A 
HETATM   14  C   UNL     1     -43.454  58.459 -57.293  1.00  0.00     0.104 A 
HETATM   15  C   UNL     1     -44.837  58.560 -57.130  1.00  0.00     0.102 A 
HETATM   16  O   UNL     1     -42.838  58.534 -58.518  1.00  0.00    -0.346 OA
HETATM   17  O   UNL     1     -45.706  58.778 -58.168  1.00  0.00    -0.346 OA
HETATM   18  C   UNL     1     -45.396  58.420 -55.864  1.00  0.00     0.042 A 
HETATM   19  C   UNL     1     -45.014  59.209 -59.347  1.00  0.00     0.202 C 
HETATM   20  C   UNL     1     -43.776  58.359 -59.585  1.00  0.00     0.202 C 
HETATM   21  C   UNL     1     -44.568  58.201 -54.757  1.00  0.00     0.032 A 
ENDBRANCH   9  12
ENDBRANCH   7   8
ENDBRANCH   6   7
ENDBRANCH   2   6
BRANCH   1  22
HETATM   22  C   UNL     1     -41.778  54.514 -53.105  1.00  0.00     0.043 A 
HETATM   23  C   UNL     1     -43.172  54.385 -53.158  1.00  0.00     0.030 A 
HETATM   24  C   UNL     1     -43.832  54.432 -54.389  1.00  0.00     0.002 A 
HETATM   25  C   UNL     1     -43.110  54.606 -55.569  1.00  0.00     0.000 A 
HETATM   26  C   UNL     1     -41.724  54.731 -55.523  1.00  0.00     0.002 A 
HETATM   27  C   UNL     1     -41.057  54.685 -54.296  1.00  0.00     0.030 A 
ENDBRANCH   1  22
BRANCH   5  28
HETATM   28  C   UNL     1     -40.065  52.119 -51.896  1.00  0.00     0.045 A 
HETATM   29  C   UNL     1     -40.024  50.954 -51.113  1.00  0.00     0.079 A 
HETATM   30  C   UNL     1     -39.696  49.719 -51.672  1.00  0.00     0.037 A 
HETATM   31  C   UNL     1     -39.368  49.636 -53.023  1.00  0.00     0.003 A 
HETATM   32  C   UNL     1     -39.365  50.786 -53.810  1.00  0.00     0.001 A 
HETATM   33  C   UNL     1     -39.705  52.021 -53.250  1.00  0.00     0.018 A 
BRANCH  29  34
HETATM   34  O   UNL     1     -40.294  50.959 -49.769  1.00  0.00    -0.360 OA
HETATM   35  H   UNL     1     -40.767  50.129 -49.552  1.00  0.00     0.217 HD
ENDBRANCH  29  34
ENDBRANCH   5  28
TORSDOF 7
ENDMDL
MODEL 2
REMARK VINA RESULT:      -8.6      2.036      7.917
REMARK  7 active torsions:
REMARK  status: ('A' for Active; 'I' for Inactive)
REMARK    1  A    between atoms: C_4  and  N_5 
REMARK    2  A    between atoms: C_6  and  S_7 
REMARK    3  A    between atoms: S_7  and  C_8 
REMARK    4  A    between atoms: C_8  and  C_9 
REMARK       I    between atoms: C_9  and  N_10 
REMARK    5  A    between atoms: N_10  and  C_11 
REMARK    6  A    between atoms: C_24  and  C_25 
REMARK    7  A    between atoms: C_26  and  O_27 
ROOT
HETATM    1  N   UNL     1     -42.242  57.867 -55.544  1.00  0.00    -0.271 N 
HETATM    2  C   UNL     1     -41.727  58.913 -54.789  1.00  0.00     0.197 A 
HETATM    3  N   UNL     1     -41.723  60.022 -55.493  1.00  0.00    -0.122 NA
HETATM    4  N   UNL     1     -42.265  59.753 -56.710  1.00  0.00    -0.128 NA
HETATM    5  C   UNL     1     -42.646  58.487 -56.731  1.00  0.00     0.172 A 
ENDROOT
BRANCH   2   6
HETATM    6  S   UNL     1     -41.006  58.802 -53.209  1.00  0.00    -0.080 SA
BRANCH   6   7
HETATM    7  C   UNL     1     -42.512  58.601 -52.202  1.00  0.00     0.185 C 
BRANCH   7   8
HETATM    8  C   UNL     1     -42.614  57.227 -51.562  1.00  0.00     0.231 C 
HETATM    9  N   UNL     1     -41.400  56.708 -51.141  1.00  0.00    -0.326 N 
HETATM   10  H   UNL     1     -40.642  57.375 -51.059  1.00  0.00     0.169 HD
HETATM   11  O   UNL     1     -43.693  56.640 -51.530  1.00  0.00    -0.272 OA
BRANCH   9  12
HETATM   12  C   UNL     1     -41.128  55.385 -50.741  1.00  0.00     0.037 A 
HETATM   13  C   UNL     1     -40.813  54.353 -51.631  1.00  0.00     0.069 A 
HETATM   14  C   UNL     1     -40.498  53.080 -51.151  1.00  0.00     0.104 A 
HETATM   15  C   UNL     1     -40.536  52.814 -49.781  1.00  0.00     0.102 A 
HETATM   16  O   UNL     1     -40.154  52.137 -52.087  1.00  0.00    -0.346 OA
HETATM   17  O   UNL     1     -40.269  51.580 -49.244  1.00  0.00    -0.346 OA
HETATM   18  C   UNL     1     -40.841  53.834 -48.886  1.00  0.00     0.042 A 
HETATM   19  C   UNL     1     -40.277  50.560 -50.250  1.00  0.00     0.202 C 
HETATM   20  C   UNL     1     -39.509  51.012 -51.481  1.00  0.00     0.202 C 
HETATM   21  C   UNL     1     -41.129  55.117 -49.364  1.00  0.00     0.032 A 
ENDBRANCH   9  12
ENDBRANCH   7   8
ENDBRANCH   6   7
ENDBRANCH   2   6
BRANCH   1  22
HETATM   22  C   UNL     1     -42.302  56.478 -55.233  1.00  0.00     0.043 A 
HETATM   23  C   UNL     1     -43.504  55.880 -54.834  1.00  0.00     0.030 A 
HETATM   24  C   UNL     1     -43.545  54.511 -54.555  1.00  0.00     0.002 A 
HETATM   25  C   UNL     1     -42.393  53.735 -54.671  1.00  0.00     0.000 A 
HETATM   26  C   UNL     1     -41.194  54.324 -55.065  1.00  0.00     0.002 A 
HETATM   27  C   UNL     1     -41.146  55.691 -55.345  1.00  0.00     0.030 A 
ENDBRANCH   1  22
BRANCH   5  28
HETATM   28  C   UNL     1     -43.412  57.919 -57.846  1.00  0.00     0.045 A 
HETATM   29  C   UNL     1     -42.755  57.487 -59.009  1.00  0.00     0.079 A 
HETATM   30  C   UNL     1     -43.464  56.945 -60.080  1.00  0.00     0.037 A 
HETATM   31  C   UNL     1     -44.852  56.857 -60.018  1.00  0.00     0.003 A 
HETATM   32  C   UNL     1     -45.528  57.314 -58.889  1.00  0.00     0.001 A 
HETATM   33  C   UNL     1     -44.814  57.848 -57.811  1.00  0.00     0.018 A 
BRANCH  29  34
HETATM   34  O   UNL     1     -41.396  57.576 -59.165  1.00  0.00    -0.360 OA
HETATM   35  H   UNL     1     -41.191  58.453 -59.548  1.00  0.00     0.217 HD
ENDBRANCH  29  34
ENDBRANCH   5  28
TORSDOF 7
ENDMDL
MODEL 3
REMARK VINA RESULT:      -8.3      2.736      4.444
REMARK  7 active torsions:
REMARK  status: ('A' for Active; 'I' for Inactive)
REMARK    1  A    between atoms: C_4  and  N_5 
REMARK    2  A    between atoms: C_6  and  S_7 
REMARK    3  A    between atoms: S_7  and  C_8 
REMARK    4  A    between atoms: C_8  and  C_9 
REMARK       I    between atoms: C_9  and  N_10 
REMARK    5  A    between atoms: N_10  and  C_11 
REMARK    6  A    between atoms: C_24  and  C_25 
REMARK    7  A    between atoms: C_26  and  O_27 
ROOT
HETATM    1  N   UNL     1     -42.936  57.203 -53.242  1.00  0.00    -0.271 N 
HETATM    2  C   UNL     1     -44.190  57.707 -53.563  1.00  0.00     0.197 A 
HETATM    3  N   UNL     1     -44.843  56.853 -54.317  1.00  0.00    -0.122 NA
HETATM    4  N   UNL     1     -44.062  55.753 -54.485  1.00  0.00    -0.128 NA
HETATM    5  C   UNL     1     -42.949  55.916 -53.789  1.00  0.00     0.172 A 
ENDROOT
BRANCH   2   6
HETATM    6  S   UNL     1     -44.795  59.300 -53.209  1.00  0.00    -0.080 SA
BRANCH   6   7
HETATM    7  C   UNL     1     -43.832  60.266 -54.417  1.00  0.00     0.185 C 
BRANCH   7   8
HETATM    8  C   UNL     1     -43.747  59.592 -55.777  1.00  0.00     0.231 C 
HETATM    9  N   UNL     1     -44.976  59.238 -56.309  1.00  0.00    -0.326 N 
HETATM   10  H   UNL     1     -45.783  59.683 -55.889  1.00  0.00     0.169 HD
HETATM   11  O   UNL     1     -42.651  59.330 -56.268  1.00  0.00    -0.272 OA
BRANCH   9  12
HETATM   12  C   UNL     1     -45.219  58.398 -57.415  1.00  0.00     0.037 A 
HETATM   13  C   UNL     1     -44.334  57.405 -57.845  1.00  0.00     0.069 A 
HETATM   14  C   UNL     1     -44.675  56.573 -58.914  1.00  0.00     0.104 A 
HETATM   15  C   UNL     1     -45.883  56.753 -59.591  1.00  0.00     0.102 A 
HETATM   16  O   UNL     1     -43.771  55.593 -59.244  1.00  0.00    -0.346 OA
HETATM   17  O   UNL     1     -46.266  55.994 -60.667  1.00  0.00    -0.346 OA
HETATM   18  C   UNL     1     -46.774  57.733 -59.166  1.00  0.00     0.042 A 
HETATM   19  C   UNL     1     -45.163  55.247 -61.198  1.00  0.00     0.202 C 
HETATM   20  C   UNL     1     -44.366  54.596 -60.080  1.00  0.00     0.202 C 
HETATM   21  C   UNL     1     -46.446  58.548 -58.077  1.00  0.00     0.032 A 
ENDBRANCH   9  12
ENDBRANCH   7   8
ENDBRANCH   6   7
ENDBRANCH   2   6
BRANCH   1  22
HETATM   22  C   UNL     1     -41.855  57.842 -52.569  1.00  0.00     0.043 A 
HETATM   23  C   UNL     1     -41.851  57.977 -51.175  1.00  0.00     0.030 A 
HETATM   24  C   UNL     1     -40.770  58.588 -50.534  1.00  0.00     0.002 A 
HETATM   25  C   UNL     1     -39.692  59.067 -51.276  1.00  0.00     0.000 A 
HETATM   26  C   UNL     1     -39.690  58.938 -52.663  1.00  0.00     0.002 A 
HETATM   27  C   UNL     1     -40.767  58.328 -53.310  1.00  0.00     0.030 A 
ENDBRANCH   1  22
BRANCH   5  28
HETATM   28  C   UNL     1     -41.962  54.843 -53.630  1.00  0.00     0.045 A 
HETATM   29  C   UNL     1     -41.259  54.356 -54.745  1.00  0.00     0.079 A 
HETATM   30  C   UNL     1     -40.317  53.336 -54.616  1.00  0.00     0.037 A 
HETATM   31  C   UNL     1     -40.086  52.760 -53.369  1.00  0.00     0.003 A 
HETATM   32  C   UNL     1     -40.799  53.202 -52.256  1.00  0.00     0.001 A 
HETATM   33  C   UNL     1     -41.736  54.233 -52.386  1.00  0.00     0.018 A 
BRANCH  29  34
HETATM   34  O   UNL     1     -41.457  54.842 -56.011  1.00  0.00    -0.360 OA
HETATM   35  H   UNL     1     -41.378  55.817 -55.978  1.00  0.00     0.217 HD
ENDBRANCH  29  34
ENDBRANCH   5  28
TORSDOF 7
ENDMDL
MODEL 4
REMARK VINA RESULT:      -8.2      5.689      8.200
REMARK  7 active torsions:
REMARK  status: ('A' for Active; 'I' for Inactive)
REMARK    1  A    between atoms: C_4  and  N_5 
REMARK    2  A    between atoms: C_6  and  S_7 
REMARK    3  A    between atoms: S_7  and  C_8 
REMARK    4  A    between atoms: C_8  and  C_9 
REMARK       I    between atoms: C_9  and  N_10 
REMARK    5  A    between atoms: N_10  and  C_11 
REMARK    6  A    between atoms: C_24  and  C_25 
REMARK    7  A    between atoms: C_26  and  O_27 
ROOT
HETATM    1  N   UNL     1     -42.952  57.458 -53.121  1.00  0.00    -0.271 N 
HETATM    2  C   UNL     1     -44.201  58.027 -53.339  1.00  0.00     0.197 A 
HETATM    3  N   UNL     1     -44.912  57.267 -54.140  1.00  0.00    -0.122 NA
HETATM    4  N   UNL     1     -44.177  56.165 -54.443  1.00  0.00    -0.128 NA
HETATM    5  C   UNL     1     -43.031  56.229 -53.784  1.00  0.00     0.172 A 
ENDROOT
BRANCH   2   6
HETATM    6  S   UNL     1     -44.737  59.597 -52.813  1.00  0.00    -0.080 SA
BRANCH   6   7
HETATM    7  C   UNL     1     -45.297  59.177 -51.130  1.00  0.00     0.185 C 
BRANCH   7   8
HETATM    8  C   UNL     1     -44.754  60.126 -50.074  1.00  0.00     0.231 C 
HETATM    9  N   UNL     1     -45.526  60.196 -48.927  1.00  0.00    -0.326 N 
HETATM   10  H   UNL     1     -46.194  59.445 -48.799  1.00  0.00     0.169 HD
HETATM   11  O   UNL     1     -43.762  60.811 -50.313  1.00  0.00    -0.272 OA
BRANCH   9  12
HETATM   12  C   UNL     1     -45.430  61.143 -47.887  1.00  0.00     0.037 A 
HETATM   13  C   UNL     1     -45.028  60.829 -46.586  1.00  0.00     0.069 A 
HETATM   14  C   UNL     1     -44.901  61.836 -45.626  1.00  0.00     0.104 A 
HETATM   15  C   UNL     1     -45.216  63.158 -45.945  1.00  0.00     0.102 A 
HETATM   16  O   UNL     1     -44.455  61.451 -44.385  1.00  0.00    -0.346 OA
HETATM   17  O   UNL     1     -45.144  64.190 -45.044  1.00  0.00    -0.346 OA
HETATM   18  C   UNL     1     -45.609  63.483 -47.238  1.00  0.00     0.042 A 
HETATM   19  C   UNL     1     -45.035  63.703 -43.700  1.00  0.00     0.202 C 
HETATM   20  C   UNL     1     -44.018  62.576 -43.617  1.00  0.00     0.202 C 
HETATM   21  C   UNL     1     -45.710  62.479 -48.208  1.00  0.00     0.032 A 
ENDBRANCH   9  12
ENDBRANCH   7   8
ENDBRANCH   6   7
ENDBRANCH   2   6
BRANCH   1  22
HETATM   22  C   UNL     1     -41.824  57.999 -52.440  1.00  0.00     0.043 A 
HETATM   23  C   UNL     1     -40.749  58.550 -53.150  1.00  0.00     0.030 A 
HETATM   24  C   UNL     1     -39.662  59.094 -52.462  1.00  0.00     0.002 A 
HETATM   25  C   UNL     1     -39.639  59.092 -51.068  1.00  0.00     0.000 A 
HETATM   26  C   UNL     1     -40.703  58.543 -50.356  1.00  0.00     0.002 A 
HETATM   27  C   UNL     1     -41.793  57.997 -51.038  1.00  0.00     0.030 A 
ENDBRANCH   1  22
BRANCH   5  28
HETATM   28  C   UNL     1     -42.075  55.117 -53.768  1.00  0.00     0.045 A 
HETATM   29  C   UNL     1     -41.350  54.790 -54.925  1.00  0.00     0.079 A 
HETATM   30  C   UNL     1     -40.436  53.737 -54.932  1.00  0.00     0.037 A 
HETATM   31  C   UNL     1     -40.258  52.967 -53.785  1.00  0.00     0.003 A 
HETATM   32  C   UNL     1     -40.995  53.250 -52.637  1.00  0.00     0.001 A 
HETATM   33  C   UNL     1     -41.903  54.314 -52.629  1.00  0.00     0.018 A 
BRANCH  29  34
HETATM   34  O   UNL     1     -41.496  55.473 -56.105  1.00  0.00    -0.360 OA
HETATM   35  H   UNL     1     -42.426  55.773 -56.169  1.00  0.00     0.217 HD
ENDBRANCH  29  34
ENDBRANCH   5  28
TORSDOF 7
ENDMDL
MODEL 5
REMARK VINA RESULT:      -8.1      2.360      7.822
REMARK  7 active torsions:
REMARK  status: ('A' for Active; 'I' for Inactive)
REMARK    1  A    between atoms: C_4  and  N_5 
REMARK    2  A    between atoms: C_6  and  S_7 
REMARK    3  A    between atoms: S_7  and  C_8 
REMARK    4  A    between atoms: C_8  and  C_9 
REMARK       I    between atoms: C_9  and  N_10 
REMARK    5  A    between atoms: N_10  and  C_11 
REMARK    6  A    between atoms: C_24  and  C_25 
REMARK    7  A    between atoms: C_26  and  O_27 
ROOT
HETATM    1  N   UNL     1     -43.886  57.810 -55.290  1.00  0.00    -0.271 N 
HETATM    2  C   UNL     1     -43.922  57.133 -54.077  1.00  0.00     0.197 A 
HETATM    3  N   UNL     1     -43.576  55.877 -54.248  1.00  0.00    -0.122 NA
HETATM    4  N   UNL     1     -43.268  55.697 -55.560  1.00  0.00    -0.128 NA
HETATM    5  C   UNL     1     -43.379  56.860 -56.182  1.00  0.00     0.172 A 
ENDROOT
BRANCH   2   6
HETATM    6  S   UNL     1     -44.507  57.745 -52.557  1.00  0.00    -0.080 SA
BRANCH   6   7
HETATM    7  C   UNL     1     -42.977  57.626 -51.574  1.00  0.00     0.185 C 
BRANCH   7   8
HETATM    8  C   UNL     1     -42.610  56.193 -51.225  1.00  0.00     0.231 C 
HETATM    9  N   UNL     1     -41.424  55.759 -51.794  1.00  0.00    -0.326 N 
HETATM   10  H   UNL     1     -40.813  56.487 -52.146  1.00  0.00     0.169 HD
HETATM   11  O   UNL     1     -43.384  55.501 -50.567  1.00  0.00    -0.272 OA
BRANCH   9  12
HETATM   12  C   UNL     1     -40.942  54.437 -51.864  1.00  0.00     0.037 A 
HETATM   13  C   UNL     1     -40.986  53.654 -53.022  1.00  0.00     0.069 A 
HETATM   14  C   UNL     1     -40.433  52.371 -53.025  1.00  0.00     0.104 A 
HETATM   15  C   UNL     1     -39.870  51.842 -51.862  1.00  0.00     0.102 A 
HETATM   16  O   UNL     1     -40.475  51.687 -54.215  1.00  0.00    -0.346 OA
HETATM   17  O   UNL     1     -39.339  50.580 -51.788  1.00  0.00    -0.346 OA
HETATM   18  C   UNL     1     -39.815  52.615 -50.708  1.00  0.00     0.042 A 
HETATM   19  C   UNL     1     -39.725  49.783 -52.915  1.00  0.00     0.202 C 
HETATM   20  C   UNL     1     -39.578  50.572 -54.206  1.00  0.00     0.202 C 
HETATM   21  C   UNL     1     -40.343  53.910 -50.710  1.00  0.00     0.032 A 
ENDBRANCH   9  12
ENDBRANCH   7   8
ENDBRANCH   6   7
ENDBRANCH   2   6
BRANCH   1  22
HETATM   22  C   UNL     1     -44.313  59.135 -55.593  1.00  0.00     0.043 A 
HETATM   23  C   UNL     1     -45.549  59.371 -56.208  1.00  0.00     0.030 A 
HETATM   24  C   UNL     1     -45.957  60.680 -56.477  1.00  0.00     0.002 A 
HETATM   25  C   UNL     1     -45.139  61.756 -56.136  1.00  0.00     0.000 A 
HETATM   26  C   UNL     1     -43.908  61.528 -55.527  1.00  0.00     0.002 A 
HETATM   27  C   UNL     1     -43.493  60.222 -55.255  1.00  0.00     0.030 A 
ENDBRANCH   1  22
BRANCH   5  28
HETATM   28  C   UNL     1     -42.963  57.044 -57.577  1.00  0.00     0.045 A 
HETATM   29  C   UNL     1     -43.287  56.080 -58.545  1.00  0.00     0.079 A 
HETATM   30  C   UNL     1     -42.902  56.234 -59.876  1.00  0.00     0.037 A 
HETATM   31  C   UNL     1     -42.151  57.345 -60.255  1.00  0.00     0.003 A 
HETATM   32  C   UNL     1     -41.786  58.294 -59.303  1.00  0.00     0.001 A 
HETATM   33  C   UNL     1     -42.183  58.143 -57.970  1.00  0.00     0.018 A 
BRANCH  29  34
HETATM   34  O   UNL     1     -43.988  54.940 -58.245  1.00  0.00    -0.360 OA
HETATM   35  H   UNL     1     -44.865  55.001 -58.677  1.00  0.00     0.217 HD
ENDBRANCH  29  34
ENDBRANCH   5  28
TORSDOF 7
ENDMDL
MODEL 6
REMARK VINA RESULT:      -8.1      3.429      8.305
REMARK  7 active torsions:
REMARK  status: ('A' for Active; 'I' for Inactive)
REMARK    1  A    between atoms: C_4  and  N_5 
REMARK    2  A    between atoms: C_6  and  S_7 
REMARK    3  A    between atoms: S_7  and  C_8 
REMARK    4  A    between atoms: C_8  and  C_9 
REMARK       I    between atoms: C_9  and  N_10 
REMARK    5  A    between atoms: N_10  and  C_11 
REMARK    6  A    between atoms: C_24  and  C_25 
REMARK    7  A    between atoms: C_26  and  O_27 
ROOT
HETATM    1  N   UNL     1     -44.082  58.627 -52.515  1.00  0.00    -0.271 N 
HETATM    2  C   UNL     1     -44.500  58.350 -53.810  1.00  0.00     0.197 A 
HETATM    3  N   UNL     1     -45.430  59.202 -54.179  1.00  0.00    -0.122 NA
HETATM    4  N   UNL     1     -45.626  60.081 -53.162  1.00  0.00    -0.128 NA
HETATM    5  C   UNL     1     -44.778  59.796 -52.188  1.00  0.00     0.172 A 
ENDROOT
BRANCH   2   6
HETATM    6  S   UNL     1     -44.039  56.985 -54.786  1.00  0.00    -0.080 SA
BRANCH   6   7
HETATM    7  C   UNL     1     -42.297  57.417 -55.106  1.00  0.00     0.185 C 
BRANCH   7   8
HETATM    8  C   UNL     1     -41.322  56.412 -54.514  1.00  0.00     0.231 C 
HETATM    9  N   UNL     1     -41.734  55.094 -54.624  1.00  0.00    -0.326 N 
HETATM   10  H   UNL     1     -42.473  54.918 -55.293  1.00  0.00     0.169 HD
HETATM   11  O   UNL     1     -40.318  56.802 -53.923  1.00  0.00    -0.272 OA
BRANCH   9  12
HETATM   12  C   UNL     1     -41.186  53.970 -53.974  1.00  0.00     0.037 A 
HETATM   13  C   UNL     1     -41.012  52.726 -54.587  1.00  0.00     0.069 A 
HETATM   14  C   UNL     1     -40.406  51.676 -53.892  1.00  0.00     0.104 A 
HETATM   15  C   UNL     1     -40.008  51.846 -52.565  1.00  0.00     0.102 A 
HETATM   16  O   UNL     1     -40.230  50.502 -54.582  1.00  0.00    -0.346 OA
HETATM   17  O   UNL     1     -39.437  50.850 -51.815  1.00  0.00    -0.346 OA
HETATM   18  C   UNL     1     -40.169  53.082 -51.947  1.00  0.00     0.042 A 
HETATM   19  C   UNL     1     -39.605  49.568 -52.434  1.00  0.00     0.202 C 
HETATM   20  C   UNL     1     -39.295  49.645 -53.920  1.00  0.00     0.202 C 
HETATM   21  C   UNL     1     -40.750  54.142 -52.652  1.00  0.00     0.032 A 
ENDBRANCH   9  12
ENDBRANCH   7   8
ENDBRANCH   6   7
ENDBRANCH   2   6
BRANCH   1  22
HETATM   22  C   UNL     1     -43.204  57.884 -51.675  1.00  0.00     0.043 A 
HETATM   23  C   UNL     1     -43.560  56.614 -51.203  1.00  0.00     0.030 A 
HETATM   24  C   UNL     1     -42.674  55.894 -50.398  1.00  0.00     0.002 A 
HETATM   25  C   UNL     1     -41.433  56.433 -50.059  1.00  0.00     0.000 A 
HETATM   26  C   UNL     1     -41.075  57.696 -50.524  1.00  0.00     0.002 A 
HETATM   27  C   UNL     1     -41.955  58.422 -51.328  1.00  0.00     0.030 A 
ENDBRANCH   1  22
BRANCH   5  28
HETATM   28  C   UNL     1     -44.622  60.655 -51.009  1.00  0.00     0.045 A 
HETATM   29  C   UNL     1     -45.197  60.284 -49.782  1.00  0.00     0.079 A 
HETATM   30  C   UNL     1     -45.062  61.086 -48.650  1.00  0.00     0.037 A 
HETATM   31  C   UNL     1     -44.375  62.294 -48.735  1.00  0.00     0.003 A 
HETATM   32  C   UNL     1     -43.829  62.699 -49.951  1.00  0.00     0.001 A 
HETATM   33  C   UNL     1     -43.957  61.888 -51.083  1.00  0.00     0.018 A 
BRANCH  29  34
HETATM   34  O   UNL     1     -45.921  59.131 -49.626  1.00  0.00    -0.360 OA
HETATM   35  H   UNL     1     -46.865  59.375 -49.533  1.00  0.00     0.217 HD
ENDBRANCH  29  34
ENDBRANCH   5  28
TORSDOF 7
ENDMDL
MODEL 7
REMARK VINA RESULT:      -7.9      2.572      9.207
REMARK  7 active torsions:
REMARK  status: ('A' for Active; 'I' for Inactive)
REMARK    1  A    between atoms: C_4  and  N_5 
REMARK    2  A    between atoms: C_6  and  S_7 
REMARK    3  A    between atoms: S_7  and  C_8 
REMARK    4  A    between atoms: C_8  and  C_9 
REMARK       I    between atoms: C_9  and  N_10 
REMARK    5  A    between atoms: N_10  and  C_11 
REMARK    6  A    between atoms: C_24  and  C_25 
REMARK    7  A    between atoms: C_26  and  O_27 
ROOT
HETATM    1  N   UNL     1     -43.092  58.368 -57.488  1.00  0.00    -0.271 N 
HETATM    2  C   UNL     1     -42.934  58.349 -56.108  1.00  0.00     0.197 A 
HETATM    3  N   UNL     1     -42.104  59.296 -55.733  1.00  0.00    -0.122 NA
HETATM    4  N   UNL     1     -41.721  59.986 -56.839  1.00  0.00    -0.128 NA
HETATM    5  C   UNL     1     -42.358  59.489 -57.887  1.00  0.00     0.172 A 
ENDROOT
BRANCH   2   6
HETATM    6  S   UNL     1     -43.564  57.162 -55.002  1.00  0.00    -0.080 SA
BRANCH   6   7
HETATM    7  C   UNL     1     -42.423  57.416 -53.603  1.00  0.00     0.185 C 
BRANCH   7   8
HETATM    8  C   UNL     1     -42.098  56.128 -52.866  1.00  0.00     0.231 C 
HETATM    9  N   UNL     1     -41.030  55.426 -53.398  1.00  0.00    -0.326 N 
HETATM   10  H   UNL     1     -40.430  55.948 -54.026  1.00  0.00     0.169 HD
HETATM   11  O   UNL     1     -42.814  55.749 -51.941  1.00  0.00    -0.272 OA
BRANCH   9  12
HETATM   12  C   UNL     1     -40.642  54.104 -53.102  1.00  0.00     0.037 A 
HETATM   13  C   UNL     1     -40.545  53.595 -51.804  1.00  0.00     0.069 A 
HETATM   14  C   UNL     1     -40.210  52.255 -51.596  1.00  0.00     0.104 A 
HETATM   15  C   UNL     1     -39.928  51.421 -52.680  1.00  0.00     0.102 A 
HETATM   16  O   UNL     1     -40.182  51.823 -50.292  1.00  0.00    -0.346 OA
HETATM   17  O   UNL     1     -39.563  50.106 -52.546  1.00  0.00    -0.346 OA
HETATM   18  C   UNL     1     -40.030  51.915 -53.976  1.00  0.00     0.042 A 
HETATM   19  C   UNL     1     -39.194  49.801 -51.195  1.00  0.00     0.202 C 
HETATM   20  C   UNL     1     -40.196  50.394 -50.217  1.00  0.00     0.202 C 
HETATM   21  C   UNL     1     -40.392  53.250 -54.187  1.00  0.00     0.032 A 
ENDBRANCH   9  12
ENDBRANCH   7   8
ENDBRANCH   6   7
ENDBRANCH   2   6
BRANCH   1  22
HETATM   22  C   UNL     1     -43.780  57.445 -58.327  1.00  0.00     0.043 A 
HETATM   23  C   UNL     1     -45.085  57.704 -58.765  1.00  0.00     0.030 A 
HETATM   24  C   UNL     1     -45.734  56.795 -59.605  1.00  0.00     0.002 A 
HETATM   25  C   UNL     1     -45.088  55.628 -60.011  1.00  0.00     0.000 A 
HETATM   26  C   UNL     1     -43.792  55.364 -59.577  1.00  0.00     0.002 A 
HETATM   27  C   UNL     1     -43.137  56.267 -58.737  1.00  0.00     0.030 A 
ENDBRANCH   1  22
BRANCH   5  28
HETATM   28  C   UNL     1     -42.287  60.113 -59.213  1.00  0.00     0.045 A 
HETATM   29  C   UNL     1     -42.623  61.467 -59.377  1.00  0.00     0.079 A 
HETATM   30  C   UNL     1     -42.563  62.079 -60.628  1.00  0.00     0.037 A 
HETATM   31  C   UNL     1     -42.198  61.335 -61.747  1.00  0.00     0.003 A 
HETATM   32  C   UNL     1     -41.898  59.981 -61.613  1.00  0.00     0.001 A 
HETATM   33  C   UNL     1     -41.948  59.371 -60.355  1.00  0.00     0.018 A 
BRANCH  29  34
HETATM   34  O   UNL     1     -43.029  62.258 -58.334  1.00  0.00    -0.360 OA
HETATM   35  H   UNL     1     -43.956  62.025 -58.119  1.00  0.00     0.217 HD
ENDBRANCH  29  34
ENDBRANCH   5  28
TORSDOF 7
ENDMDL
MODEL 8
REMARK VINA RESULT:      -7.7      3.988      8.578
REMARK  7 active torsions:
REMARK  status: ('A' for Active; 'I' for Inactive)
REMARK    1  A    between atoms: C_4  and  N_5 
REMARK    2  A    between atoms: C_6  and  S_7 
REMARK    3  A    between atoms: S_7  and  C_8 
REMARK    4  A    between atoms: C_8  and  C_9 
REMARK       I    between atoms: C_9  and  N_10 
REMARK    5  A    between atoms: N_10  and  C_11 
REMARK    6  A    between atoms: C_24  and  C_25 
REMARK    7  A    between atoms: C_26  and  O_27 
ROOT
HETATM    1  N   UNL     1     -44.046  60.005 -52.120  1.00  0.00    -0.271 N 
HETATM    2  C   UNL     1     -44.552  59.887 -53.409  1.00  0.00     0.197 A 
HETATM    3  N   UNL     1     -45.768  60.380 -53.466  1.00  0.00    -0.122 NA
HETATM    4  N   UNL     1     -46.086  60.868 -52.238  1.00  0.00    -0.128 NA
HETATM    5  C   UNL     1     -45.040  60.716 -51.441  1.00  0.00     0.172 A 
ENDROOT
BRANCH   2   6
HETATM    6  S   UNL     1     -43.814  59.055 -54.747  1.00  0.00    -0.080 SA
BRANCH   6   7
HETATM    7  C   UNL     1     -44.529  57.396 -54.504  1.00  0.00     0.185 C 
BRANCH   7   8
HETATM    8  C   UNL     1     -43.480  56.296 -54.506  1.00  0.00     0.231 C 
HETATM    9  N   UNL     1     -43.587  55.412 -53.445  1.00  0.00    -0.326 N 
HETATM   10  H   UNL     1     -44.471  55.423 -52.950  1.00  0.00     0.169 HD
HETATM   11  O   UNL     1     -42.587  56.297 -55.350  1.00  0.00    -0.272 OA
BRANCH   9  12
HETATM   12  C   UNL     1     -42.642  54.450 -53.035  1.00  0.00     0.037 A 
HETATM   13  C   UNL     1     -42.019  53.552 -53.907  1.00  0.00     0.069 A 
HETATM   14  C   UNL     1     -41.048  52.667 -53.431  1.00  0.00     0.104 A 
HETATM   15  C   UNL     1     -40.722  52.641 -52.074  1.00  0.00     0.102 A 
HETATM   16  O   UNL     1     -40.451  51.851 -54.360  1.00  0.00    -0.346 OA
HETATM   17  O   UNL     1     -39.802  51.778 -51.535  1.00  0.00    -0.346 OA
HETATM   18  C   UNL     1     -41.329  53.536 -51.199  1.00  0.00     0.042 A 
HETATM   19  C   UNL     1     -39.481  50.721 -52.448  1.00  0.00     0.202 C 
HETATM   20  C   UNL     1     -39.249  51.269 -53.846  1.00  0.00     0.202 C 
HETATM   21  C   UNL     1     -42.282  54.441 -51.679  1.00  0.00     0.032 A 
ENDBRANCH   9  12
ENDBRANCH   7   8
ENDBRANCH   6   7
ENDBRANCH   2   6
BRANCH   1  22
HETATM   22  C   UNL     1     -42.837  59.484 -51.578  1.00  0.00     0.043 A 
HETATM   23  C   UNL     1     -41.765  60.330 -51.262  1.00  0.00     0.030 A 
HETATM   24  C   UNL     1     -40.595  59.800 -50.711  1.00  0.00     0.002 A 
HETATM   25  C   UNL     1     -40.487  58.431 -50.473  1.00  0.00     0.000 A 
HETATM   26  C   UNL     1     -41.548  57.584 -50.787  1.00  0.00     0.002 A 
HETATM   27  C   UNL     1     -42.719  58.107 -51.339  1.00  0.00     0.030 A 
ENDBRANCH   1  22
BRANCH   5  28
HETATM   28  C   UNL     1     -44.999  61.283 -50.088  1.00  0.00     0.045 A 
HETATM   29  C   UNL     1     -45.454  60.532 -48.992  1.00  0.00     0.079 A 
HETATM   30  C   UNL     1     -45.424  61.051 -47.699  1.00  0.00     0.037 A 
HETATM   31  C   UNL     1     -44.968  62.350 -47.484  1.00  0.00     0.003 A 
HETATM   32  C   UNL     1     -44.547  63.125 -48.562  1.00  0.00     0.001 A 
HETATM   33  C   UNL     1     -44.568  62.599 -49.857  1.00  0.00     0.018 A 
BRANCH  29  34
HETATM   34  O   UNL     1     -45.955  59.263 -49.124  1.00  0.00    -0.360 OA
HETATM   35  H   UNL     1     -45.858  58.994 -50.061  1.00  0.00     0.217 HD
ENDBRANCH  29  34
ENDBRANCH   5  28
TORSDOF 7
ENDMDL
MODEL 9
REMARK VINA RESULT:      -7.6      3.348      8.620
REMARK  7 active torsions:
REMARK  status: ('A' for Active; 'I' for Inactive)
REMARK    1  A    between atoms: C_4  and  N_5 
REMARK    2  A    between atoms: C_6  and  S_7 
REMARK    3  A    between atoms: S_7  and  C_8 
REMARK    4  A    between atoms: C_8  and  C_9 
REMARK       I    between atoms: C_9  and  N_10 
REMARK    5  A    between atoms: N_10  and  C_11 
REMARK    6  A    between atoms: C_24  and  C_25 
REMARK    7  A    between atoms: C_26  and  O_27 
ROOT
HETATM    1  N   UNL     1     -43.451  59.281 -53.200  1.00  0.00    -0.271 N 
HETATM    2  C   UNL     1     -43.534  59.081 -54.573  1.00  0.00     0.197 A 
HETATM    3  N   UNL     1     -44.669  59.555 -55.033  1.00  0.00    -0.122 NA
HETATM    4  N   UNL     1     -45.349  60.109 -53.995  1.00  0.00    -0.128 NA
HETATM    5  C   UNL     1     -44.603  60.018 -52.906  1.00  0.00     0.172 A 
ENDROOT
BRANCH   2   6
HETATM    6  S   UNL     1     -42.422  58.182 -55.564  1.00  0.00    -0.080 SA
BRANCH   6   7
HETATM    7  C   UNL     1     -43.390  56.655 -55.795  1.00  0.00     0.185 C 
BRANCH   7   8
HETATM    8  C   UNL     1     -43.082  55.598 -54.748  1.00  0.00     0.231 C 
HETATM    9  N   UNL     1     -41.752  55.214 -54.705  1.00  0.00    -0.326 N 
HETATM   10  H   UNL     1     -41.099  55.838 -55.165  1.00  0.00     0.169 HD
HETATM   11  O   UNL     1     -43.992  55.100 -54.089  1.00  0.00    -0.272 OA
BRANCH   9  12
HETATM   12  C   UNL     1     -41.202  54.106 -54.030  1.00  0.00     0.037 A 
HETATM   13  C   UNL     1     -41.047  52.843 -54.608  1.00  0.00     0.069 A 
HETATM   14  C   UNL     1     -40.438  51.810 -53.892  1.00  0.00     0.104 A 
HETATM   15  C   UNL     1     -40.017  52.017 -52.576  1.00  0.00     0.102 A 
HETATM   16  O   UNL     1     -40.282  50.614 -54.548  1.00  0.00    -0.346 OA
HETATM   17  O   UNL     1     -39.441  51.040 -51.806  1.00  0.00    -0.346 OA
HETATM   18  C   UNL     1     -40.159  53.272 -51.995  1.00  0.00     0.042 A 
HETATM   19  C   UNL     1     -39.628  49.741 -52.383  1.00  0.00     0.202 C 
HETATM   20  C   UNL     1     -39.342  49.770 -53.876  1.00  0.00     0.202 C 
HETATM   21  C   UNL     1     -40.744  54.315 -52.721  1.00  0.00     0.032 A 
ENDBRANCH   9  12
ENDBRANCH   7   8
ENDBRANCH   6   7
ENDBRANCH   2   6
BRANCH   1  22
HETATM   22  C   UNL     1     -42.472  58.809 -52.280  1.00  0.00     0.043 A 
HETATM   23  C   UNL     1     -42.609  57.561 -51.659  1.00  0.00     0.030 A 
HETATM   24  C   UNL     1     -41.626  57.107 -50.776  1.00  0.00     0.002 A 
HETATM   25  C   UNL     1     -40.506  57.893 -50.507  1.00  0.00     0.000 A 
HETATM   26  C   UNL     1     -40.365  59.136 -51.119  1.00  0.00     0.002 A 
HETATM   27  C   UNL     1     -41.344  59.595 -52.002  1.00  0.00     0.030 A 
ENDBRANCH   1  22
BRANCH   5  28
HETATM   28  C   UNL     1     -44.980  60.663 -51.644  1.00  0.00     0.045 A 
HETATM   29  C   UNL     1     -45.040  62.064 -51.555  1.00  0.00     0.079 A 
HETATM   30  C   UNL     1     -45.396  62.697 -50.365  1.00  0.00     0.037 A 
HETATM   31  C   UNL     1     -45.663  61.938 -49.229  1.00  0.00     0.003 A 
HETATM   32  C   UNL     1     -45.572  60.548 -49.285  1.00  0.00     0.001 A 
HETATM   33  C   UNL     1     -45.226  59.914 -50.482  1.00  0.00     0.018 A 
BRANCH  29  34
HETATM   34  O   UNL     1     -44.753  62.883 -52.616  1.00  0.00    -0.360 OA
HETATM   35  H   UNL     1     -44.708  62.331 -53.423  1.00  0.00     0.217 HD
ENDBRANCH  29  34
ENDBRANCH   5  28
TORSDOF 7
ENDMDL
MODEL 10
REMARK VINA RESULT:      -7.6      3.521      8.537
REMARK  7 active torsions:
REMARK  status: ('A' for Active; 'I' for Inactive)
REMARK    1  A    between atoms: C_4  and  N_5 
REMARK    2  A    between atoms: C_6  and  S_7 
REMARK    3  A    between atoms: S_7  and  C_8 
REMARK    4  A    between atoms: C_8  and  C_9 
REMARK       I    between atoms: C_9  and  N_10 
REMARK    5  A    between atoms: N_10  and  C_11 
REMARK    6  A    between atoms: C_24  and  C_25 
REMARK    7  A    between atoms: C_26  and  O_27 
ROOT
HETATM    1  N   UNL     1     -43.094  59.948 -52.740  1.00  0.00    -0.271 N 
HETATM    2  C   UNL     1     -43.092  60.104 -54.120  1.00  0.00     0.197 A 
HETATM    3  N   UNL     1     -44.025  60.954 -54.482  1.00  0.00    -0.122 NA
HETATM    4  N   UNL     1     -44.642  61.409 -53.360  1.00  0.00    -0.128 NA
HETATM    5  C   UNL     1     -44.050  60.872 -52.306  1.00  0.00     0.172 A 
ENDROOT
BRANCH   2   6
HETATM    6  S   UNL     1     -42.148  59.201 -55.270  1.00  0.00    -0.080 SA
BRANCH   6   7
HETATM    7  C   UNL     1     -43.333  57.872 -55.658  1.00  0.00     0.185 C 
BRANCH   7   8
HETATM    8  C   UNL     1     -43.081  56.605 -54.857  1.00  0.00     0.231 C 
HETATM    9  N   UNL     1     -41.740  56.289 -54.707  1.00  0.00    -0.326 N 
HETATM   10  H   UNL     1     -41.087  57.039 -54.902  1.00  0.00     0.169 HD
HETATM   11  O   UNL     1     -44.025  55.915 -54.481  1.00  0.00    -0.272 OA
BRANCH   9  12
HETATM   12  C   UNL     1     -41.194  55.077 -54.240  1.00  0.00     0.037 A 
HETATM   13  C   UNL     1     -41.033  54.769 -52.886  1.00  0.00     0.069 A 
HETATM   14  C   UNL     1     -40.537  53.521 -52.502  1.00  0.00     0.104 A 
HETATM   15  C   UNL     1     -40.159  52.585 -53.467  1.00  0.00     0.102 A 
HETATM   16  O   UNL     1     -40.454  53.280 -51.153  1.00  0.00    -0.346 OA
HETATM   17  O   UNL     1     -39.636  51.354 -53.160  1.00  0.00    -0.346 OA
HETATM   18  C   UNL     1     -40.323  52.878 -54.816  1.00  0.00     0.042 A 
HETATM   19  C   UNL     1     -39.230  51.286 -51.787  1.00  0.00     0.202 C 
HETATM   20  C   UNL     1     -40.293  51.884 -50.881  1.00  0.00     0.202 C 
HETATM   21  C   UNL     1     -40.844  54.118 -55.201  1.00  0.00     0.032 A 
ENDBRANCH   9  12
ENDBRANCH   7   8
ENDBRANCH   6   7
ENDBRANCH   2   6
BRANCH   1  22
HETATM   22  C   UNL     1     -42.355  59.032 -51.937  1.00  0.00     0.043 A 
HETATM   23  C   UNL     1     -41.047  59.324 -51.528  1.00  0.00     0.030 A 
HETATM   24  C   UNL     1     -40.348  58.421 -50.723  1.00  0.00     0.002 A 
HETATM   25  C   UNL     1     -40.945  57.227 -50.323  1.00  0.00     0.000 A 
HETATM   26  C   UNL     1     -42.244  56.929 -50.728  1.00  0.00     0.002 A 
HETATM   27  C   UNL     1     -42.949  57.827 -51.533  1.00  0.00     0.030 A 
ENDBRANCH   1  22
BRANCH   5  28
HETATM   28  C   UNL     1     -44.373  61.280 -50.934  1.00  0.00     0.045 A 
HETATM   29  C   UNL     1     -43.892  62.497 -50.426  1.00  0.00     0.079 A 
HETATM   30  C   UNL     1     -44.188  62.904 -49.125  1.00  0.00     0.037 A 
HETATM   31  C   UNL     1     -44.944  62.078 -48.296  1.00  0.00     0.003 A 
HETATM   32  C   UNL     1     -45.399  60.849 -48.768  1.00  0.00     0.001 A 
HETATM   33  C   UNL     1     -45.111  60.448 -50.077  1.00  0.00     0.018 A 
BRANCH  29  34
HETATM   34  O   UNL     1     -43.110  63.347 -51.163  1.00  0.00    -0.360 OA
HETATM   35  H   UNL     1     -43.550  64.221 -51.188  1.00  0.00     0.217 HD
ENDBRANCH  29  34
ENDBRANCH   5  28
TORSDOF 7
ENDMDL
