MODEL 1
REMARK VINA RESULT:      -7.7      0.000      0.000
REMARK  9 active torsions:
REMARK  status: ('A' for Active; 'I' for Inactive)
REMARK    1  A    between atoms: C_3  and  O_4 
REMARK    2  A    between atoms: O_4  and  C_5 
REMARK    3  A    between atoms: C_5  and  C_6 
REMARK    4  A    between atoms: N_7  and  C_8 
REMARK    5  A    between atoms: C_14  and  S_15 
REMARK    6  A    between atoms: S_15  and  C_16 
REMARK    7  A    between atoms: C_16  and  C_17 
REMARK       I    between atoms: C_17  and  N_18 
REMARK    8  A    between atoms: N_18  and  C_19 
REMARK    9  A    between atoms: C_19  and  C_20 
ROOT
HETATM    1  C   UNL     1     -41.184  54.073 -50.206  1.00  0.00     0.160 A 
HETATM    2  N   UNL     1     -41.488  55.091 -51.110  1.00  0.00    -0.274 N 
HETATM    3  C   UNL     1     -41.494  56.229 -50.316  1.00  0.00     0.196 A 
HETATM    4  N   UNL     1     -41.195  55.932 -49.074  1.00  0.00    -0.122 NA
HETATM    5  N   UNL     1     -41.015  54.586 -48.999  1.00  0.00    -0.131 NA
ENDROOT
BRANCH   3   6
HETATM    6  S   UNL     1     -42.135  57.785 -50.747  1.00  0.00    -0.081 SA
BRANCH   6   7
HETATM    7  C   UNL     1     -40.600  58.650 -51.186  1.00  0.00     0.185 C 
BRANCH   7   8
HETATM    8  C   UNL     1     -40.516  59.107 -52.636  1.00  0.00     0.227 C 
HETATM    9  N   UNL     1     -41.683  59.538 -53.217  1.00  0.00    -0.360 N 
HETATM   10  H   UNL     1     -42.539  59.545 -52.665  1.00  0.00     0.162 HD
HETATM   11  O   UNL     1     -39.468  58.989 -53.272  1.00  0.00    -0.273 OA
BRANCH   9  12
HETATM   12  C   UNL     1     -41.820  59.796 -54.633  1.00  0.00     0.126 C 
BRANCH  12  13
HETATM   13  C   UNL     1     -43.030  59.067 -55.240  1.00  0.00    -0.005 C 
HETATM   14  C   UNL     1     -42.656  58.292 -56.506  1.00  0.00     0.011 C 
HETATM   15  C   UNL     1     -43.637  58.115 -54.208  1.00  0.00     0.011 C 
ENDBRANCH  12  13
ENDBRANCH   9  12
ENDBRANCH   7   8
ENDBRANCH   6   7
ENDBRANCH   3   6
BRANCH   2  16
HETATM   16  C   UNL     1     -41.756  54.996 -52.504  1.00  0.00     0.043 A 
HETATM   17  C   UNL     1     -40.838  55.478 -53.446  1.00  0.00     0.030 A 
HETATM   18  C   UNL     1     -41.114  55.371 -54.813  1.00  0.00     0.002 A 
HETATM   19  C   UNL     1     -42.300  54.783 -55.247  1.00  0.00     0.000 A 
HETATM   20  C   UNL     1     -43.215  54.301 -54.315  1.00  0.00     0.002 A 
HETATM   21  C   UNL     1     -42.947  54.405 -52.949  1.00  0.00     0.030 A 
ENDBRANCH   2  16
BRANCH   1  22
HETATM   22  C   UNL     1     -40.979  52.630 -50.513  1.00  0.00     0.256 C 
BRANCH  22  23
HETATM   23  O   UNL     1     -39.749  52.508 -51.218  1.00  0.00    -0.343 OA
BRANCH  23  24
HETATM   24  C   UNL     1     -39.754  51.693 -52.321  1.00  0.00     0.075 A 
HETATM   25  C   UNL     1     -39.551  50.323 -52.078  1.00  0.00    -0.029 A 
HETATM   26  C   UNL     1     -39.410  49.781 -50.683  1.00  0.00     0.051 C 
HETATM   27  C   UNL     1     -39.559  49.426 -53.158  1.00  0.00     0.009 A 
HETATM   28  C   UNL     1     -39.730  49.885 -54.463  1.00  0.00     0.001 A 
HETATM   29  C   UNL     1     -39.904  51.244 -54.701  1.00  0.00     0.003 A 
HETATM   30  C   UNL     1     -39.916  52.146 -53.635  1.00  0.00     0.037 A 
ENDBRANCH  23  24
ENDBRANCH  22  23
ENDBRANCH   1  22
TORSDOF 9
ENDMDL
MODEL 2
REMARK VINA RESULT:      -7.7      2.701      4.293
REMARK  9 active torsions:
REMARK  status: ('A' for Active; 'I' for Inactive)
REMARK    1  A    between atoms: C_3  and  O_4 
REMARK    2  A    between atoms: O_4  and  C_5 
REMARK    3  A    between atoms: C_5  and  C_6 
REMARK    4  A    between atoms: N_7  and  C_8 
REMARK    5  A    between atoms: C_14  and  S_15 
REMARK    6  A    between atoms: S_15  and  C_16 
REMARK    7  A    between atoms: C_16  and  C_17 
REMARK       I    between atoms: C_17  and  N_18 
REMARK    8  A    between atoms: N_18  and  C_19 
REMARK    9  A    between atoms: C_19  and  C_20 
ROOT
HETATM    1  C   UNL     1     -41.929  54.926 -54.273  1.00  0.00     0.160 A 
HETATM    2  N   UNL     1     -42.335  56.122 -53.680  1.00  0.00    -0.274 N 
HETATM    3  C   UNL     1     -43.679  56.201 -54.014  1.00  0.00     0.196 A 
HETATM    4  N   UNL     1     -44.050  55.151 -54.706  1.00  0.00    -0.122 NA
HETATM    5  N   UNL     1     -42.958  54.360 -54.881  1.00  0.00    -0.131 NA
ENDROOT
BRANCH   3   6
HETATM    6  S   UNL     1     -44.695  57.605 -53.883  1.00  0.00    -0.081 SA
BRANCH   6   7
HETATM    7  C   UNL     1     -45.097  57.869 -55.634  1.00  0.00     0.185 C 
BRANCH   7   8
HETATM    8  C   UNL     1     -43.937  57.654 -56.596  1.00  0.00     0.227 C 
HETATM    9  N   UNL     1     -43.991  56.535 -57.389  1.00  0.00    -0.360 N 
HETATM   10  H   UNL     1     -44.791  55.909 -57.312  1.00  0.00     0.162 HD
HETATM   11  O   UNL     1     -42.958  58.400 -56.577  1.00  0.00    -0.273 OA
BRANCH   9  12
HETATM   12  C   UNL     1     -42.879  56.072 -58.191  1.00  0.00     0.126 C 
BRANCH  12  13
HETATM   13  C   UNL     1     -43.302  55.744 -59.633  1.00  0.00    -0.005 C 
HETATM   14  C   UNL     1     -44.391  54.669 -59.679  1.00  0.00     0.011 C 
HETATM   15  C   UNL     1     -43.792  57.012 -60.333  1.00  0.00     0.011 C 
ENDBRANCH  12  13
ENDBRANCH   9  12
ENDBRANCH   7   8
ENDBRANCH   6   7
ENDBRANCH   3   6
BRANCH   2  16
HETATM   16  C   UNL     1     -41.563  57.056 -52.935  1.00  0.00     0.043 A 
HETATM   17  C   UNL     1     -40.850  58.075 -53.580  1.00  0.00     0.030 A 
HETATM   18  C   UNL     1     -40.100  58.988 -52.834  1.00  0.00     0.002 A 
HETATM   19  C   UNL     1     -40.057  58.894 -51.445  1.00  0.00     0.000 A 
HETATM   20  C   UNL     1     -40.765  57.884 -50.797  1.00  0.00     0.002 A 
HETATM   21  C   UNL     1     -41.515  56.968 -51.537  1.00  0.00     0.030 A 
ENDBRANCH   2  16
BRANCH   1  22
HETATM   22  C   UNL     1     -40.584  54.292 -54.186  1.00  0.00     0.256 C 
BRANCH  22  23
HETATM   23  O   UNL     1     -40.509  53.601 -52.944  1.00  0.00    -0.343 OA
BRANCH  23  24
HETATM   24  C   UNL     1     -40.200  52.267 -53.004  1.00  0.00     0.075 A 
HETATM   25  C   UNL     1     -39.916  51.643 -51.776  1.00  0.00    -0.029 A 
HETATM   26  C   UNL     1     -40.021  52.383 -50.472  1.00  0.00     0.051 C 
HETATM   27  C   UNL     1     -39.606  50.273 -51.758  1.00  0.00     0.009 A 
HETATM   28  C   UNL     1     -39.543  49.542 -52.943  1.00  0.00     0.001 A 
HETATM   29  C   UNL     1     -39.797  50.170 -54.157  1.00  0.00     0.003 A 
HETATM   30  C   UNL     1     -40.124  51.527 -54.189  1.00  0.00     0.037 A 
ENDBRANCH  23  24
ENDBRANCH  22  23
ENDBRANCH   1  22
TORSDOF 9
ENDMDL
MODEL 3
REMARK VINA RESULT:      -7.6      3.228      4.923
REMARK  9 active torsions:
REMARK  status: ('A' for Active; 'I' for Inactive)
REMARK    1  A    between atoms: C_3  and  O_4 
REMARK    2  A    between atoms: O_4  and  C_5 
REMARK    3  A    between atoms: C_5  and  C_6 
REMARK    4  A    between atoms: N_7  and  C_8 
REMARK    5  A    between atoms: C_14  and  S_15 
REMARK    6  A    between atoms: S_15  and  C_16 
REMARK    7  A    between atoms: C_16  and  C_17 
REMARK       I    between atoms: C_17  and  N_18 
REMARK    8  A    between atoms: N_18  and  C_19 
REMARK    9  A    between atoms: C_19  and  C_20 
ROOT
HETATM    1  C   UNL     1     -41.372  55.392 -55.066  1.00  0.00     0.160 A 
HETATM    2  N   UNL     1     -41.853  56.549 -54.453  1.00  0.00    -0.274 N 
HETATM    3  C   UNL     1     -42.878  56.951 -55.297  1.00  0.00     0.196 A 
HETATM    4  N   UNL     1     -43.019  56.110 -56.293  1.00  0.00    -0.122 NA
HETATM    5  N   UNL     1     -42.072  55.143 -56.159  1.00  0.00    -0.131 NA
ENDROOT
BRANCH   3   6
HETATM    6  S   UNL     1     -43.662  58.502 -55.303  1.00  0.00    -0.081 SA
BRANCH   6   7
HETATM    7  C   UNL     1     -45.284  58.034 -55.971  1.00  0.00     0.185 C 
BRANCH   7   8
HETATM    8  C   UNL     1     -45.423  58.186 -57.480  1.00  0.00     0.227 C 
HETATM    9  N   UNL     1     -45.140  57.079 -58.240  1.00  0.00    -0.360 N 
HETATM   10  H   UNL     1     -44.862  56.216 -57.777  1.00  0.00     0.162 HD
HETATM   11  O   UNL     1     -45.676  59.282 -57.980  1.00  0.00    -0.273 OA
BRANCH   9  12
HETATM   12  C   UNL     1     -45.011  57.115 -59.681  1.00  0.00     0.126 C 
BRANCH  12  13
HETATM   13  C   UNL     1     -44.001  56.076 -60.198  1.00  0.00    -0.005 C 
HETATM   14  C   UNL     1     -42.560  56.455 -59.844  1.00  0.00     0.011 C 
HETATM   15  C   UNL     1     -44.332  54.698 -59.626  1.00  0.00     0.011 C 
ENDBRANCH  12  13
ENDBRANCH   9  12
ENDBRANCH   7   8
ENDBRANCH   6   7
ENDBRANCH   3   6
BRANCH   2  16
HETATM   16  C   UNL     1     -41.395  57.188 -53.268  1.00  0.00     0.043 A 
HETATM   17  C   UNL     1     -41.777  56.717 -52.005  1.00  0.00     0.030 A 
HETATM   18  C   UNL     1     -41.314  57.352 -50.849  1.00  0.00     0.002 A 
HETATM   19  C   UNL     1     -40.468  58.454 -50.944  1.00  0.00     0.000 A 
HETATM   20  C   UNL     1     -40.082  58.927 -52.196  1.00  0.00     0.002 A 
HETATM   21  C   UNL     1     -40.543  58.298 -53.355  1.00  0.00     0.030 A 
ENDBRANCH   2  16
BRANCH   1  22
HETATM   22  C   UNL     1     -40.301  54.487 -54.561  1.00  0.00     0.256 C 
BRANCH  22  23
HETATM   23  O   UNL     1     -40.839  53.746 -53.471  1.00  0.00    -0.343 OA
BRANCH  23  24
HETATM   24  C   UNL     1     -40.438  52.439 -53.364  1.00  0.00     0.075 A 
HETATM   25  C   UNL     1     -39.918  52.052 -52.116  1.00  0.00    -0.029 A 
HETATM   26  C   UNL     1     -39.876  53.001 -50.950  1.00  0.00     0.051 C 
HETATM   27  C   UNL     1     -39.501  50.724 -51.927  1.00  0.00     0.009 A 
HETATM   28  C   UNL     1     -39.566  49.804 -52.971  1.00  0.00     0.001 A 
HETATM   29  C   UNL     1     -40.055  50.197 -54.212  1.00  0.00     0.003 A 
HETATM   30  C   UNL     1     -40.489  51.510 -54.409  1.00  0.00     0.037 A 
ENDBRANCH  23  24
ENDBRANCH  22  23
ENDBRANCH   1  22
TORSDOF 9
ENDMDL
MODEL 4
REMARK VINA RESULT:      -7.5      3.402      4.919
REMARK  9 active torsions:
REMARK  status: ('A' for Active; 'I' for Inactive)
REMARK    1  A    between atoms: C_3  and  O_4 
REMARK    2  A    between atoms: O_4  and  C_5 
REMARK    3  A    between atoms: C_5  and  C_6 
REMARK    4  A    between atoms: N_7  and  C_8 
REMARK    5  A    between atoms: C_14  and  S_15 
REMARK    6  A    between atoms: S_15  and  C_16 
REMARK    7  A    between atoms: C_16  and  C_17 
REMARK       I    between atoms: C_17  and  N_18 
REMARK    8  A    between atoms: N_18  and  C_19 
REMARK    9  A    between atoms: C_19  and  C_20 
ROOT
HETATM    1  C   UNL     1     -41.355  54.714 -55.021  1.00  0.00     0.160 A 
HETATM    2  N   UNL     1     -42.300  55.267 -54.157  1.00  0.00    -0.274 N 
HETATM    3  C   UNL     1     -43.232  55.822 -55.020  1.00  0.00     0.196 A 
HETATM    4  N   UNL     1     -42.901  55.601 -56.269  1.00  0.00    -0.122 NA
HETATM    5  N   UNL     1     -41.723  54.921 -56.273  1.00  0.00    -0.131 NA
ENDROOT
BRANCH   3   6
HETATM    6  S   UNL     1     -44.480  56.957 -54.601  1.00  0.00    -0.081 SA
BRANCH   6   7
HETATM    7  C   UNL     1     -44.220  58.206 -55.894  1.00  0.00     0.185 C 
BRANCH   7   8
HETATM    8  C   UNL     1     -45.067  58.016 -57.145  1.00  0.00     0.227 C 
HETATM    9  N   UNL     1     -44.426  57.529 -58.257  1.00  0.00    -0.360 N 
HETATM   10  H   UNL     1     -43.433  57.310 -58.201  1.00  0.00     0.162 HD
HETATM   11  O   UNL     1     -46.242  58.385 -57.170  1.00  0.00    -0.273 OA
BRANCH   9  12
HETATM   12  C   UNL     1     -45.027  57.497 -59.572  1.00  0.00     0.126 C 
BRANCH  12  13
HETATM   13  C   UNL     1     -45.726  56.156 -59.857  1.00  0.00    -0.005 C 
HETATM   14  C   UNL     1     -47.156  56.353 -60.366  1.00  0.00     0.011 C 
HETATM   15  C   UNL     1     -44.917  55.353 -60.876  1.00  0.00     0.011 C 
ENDBRANCH  12  13
ENDBRANCH   9  12
ENDBRANCH   7   8
ENDBRANCH   6   7
ENDBRANCH   3   6
BRANCH   2  16
HETATM   16  C   UNL     1     -42.304  55.286 -52.734  1.00  0.00     0.043 A 
HETATM   17  C   UNL     1     -43.180  54.471 -52.007  1.00  0.00     0.030 A 
HETATM   18  C   UNL     1     -43.168  54.498 -50.609  1.00  0.00     0.002 A 
HETATM   19  C   UNL     1     -42.283  55.333 -49.930  1.00  0.00     0.000 A 
HETATM   20  C   UNL     1     -41.408  56.145 -50.647  1.00  0.00     0.002 A 
HETATM   21  C   UNL     1     -41.417  56.124 -52.043  1.00  0.00     0.030 A 
ENDBRANCH   2  16
BRANCH   1  22
HETATM   22  C   UNL     1     -40.150  53.922 -54.647  1.00  0.00     0.256 C 
BRANCH  22  23
HETATM   23  O   UNL     1     -40.543  52.558 -54.543  1.00  0.00    -0.343 OA
BRANCH  23  24
HETATM   24  C   UNL     1     -40.216  51.915 -53.377  1.00  0.00     0.075 A 
HETATM   25  C   UNL     1     -39.917  50.545 -53.490  1.00  0.00    -0.029 A 
HETATM   26  C   UNL     1     -39.888  49.851 -54.823  1.00  0.00     0.051 C 
HETATM   27  C   UNL     1     -39.558  49.824 -52.339  1.00  0.00     0.009 A 
HETATM   28  C   UNL     1     -39.531  50.444 -51.091  1.00  0.00     0.001 A 
HETATM   29  C   UNL     1     -39.853  51.792 -50.980  1.00  0.00     0.003 A 
HETATM   30  C   UNL     1     -40.195  52.525 -52.118  1.00  0.00     0.037 A 
ENDBRANCH  23  24
ENDBRANCH  22  23
ENDBRANCH   1  22
TORSDOF 9
ENDMDL
MODEL 5
REMARK VINA RESULT:      -7.4      2.922      3.837
REMARK  9 active torsions:
REMARK  status: ('A' for Active; 'I' for Inactive)
REMARK    1  A    between atoms: C_3  and  O_4 
REMARK    2  A    between atoms: O_4  and  C_5 
REMARK    3  A    between atoms: C_5  and  C_6 
REMARK    4  A    between atoms: N_7  and  C_8 
REMARK    5  A    between atoms: C_14  and  S_15 
REMARK    6  A    between atoms: S_15  and  C_16 
REMARK    7  A    between atoms: C_16  and  C_17 
REMARK       I    between atoms: C_17  and  N_18 
REMARK    8  A    between atoms: N_18  and  C_19 
REMARK    9  A    between atoms: C_19  and  C_20 
ROOT
HETATM    1  C   UNL     1     -41.440  55.037 -50.811  1.00  0.00     0.160 A 
HETATM    2  N   UNL     1     -41.813  55.919 -51.826  1.00  0.00    -0.274 N 
HETATM    3  C   UNL     1     -41.762  57.158 -51.204  1.00  0.00     0.196 A 
HETATM    4  N   UNL     1     -41.370  57.038 -49.958  1.00  0.00    -0.122 NA
HETATM    5  N   UNL     1     -41.182  55.715 -49.706  1.00  0.00    -0.131 NA
ENDROOT
BRANCH   3   6
HETATM    6  S   UNL     1     -42.438  58.642 -51.802  1.00  0.00    -0.081 SA
BRANCH   6   7
HETATM    7  C   UNL     1     -44.207  58.298 -51.578  1.00  0.00     0.185 C 
BRANCH   7   8
HETATM    8  C   UNL     1     -44.927  59.241 -50.623  1.00  0.00     0.227 C 
HETATM    9  N   UNL     1     -44.218  60.331 -50.182  1.00  0.00    -0.360 N 
HETATM   10  H   UNL     1     -43.264  60.468 -50.509  1.00  0.00     0.162 HD
HETATM   11  O   UNL     1     -46.049  58.969 -50.198  1.00  0.00    -0.273 OA
BRANCH   9  12
HETATM   12  C   UNL     1     -44.671  61.196 -49.114  1.00  0.00     0.126 C 
BRANCH  12  13
HETATM   13  C   UNL     1     -44.487  62.683 -49.457  1.00  0.00    -0.005 C 
HETATM   14  C   UNL     1     -44.521  63.567 -48.208  1.00  0.00     0.011 C 
HETATM   15  C   UNL     1     -43.168  62.887 -50.203  1.00  0.00     0.011 C 
ENDBRANCH  12  13
ENDBRANCH   9  12
ENDBRANCH   7   8
ENDBRANCH   6   7
ENDBRANCH   3   6
BRANCH   2  16
HETATM   16  C   UNL     1     -42.185  55.629 -53.168  1.00  0.00     0.043 A 
HETATM   17  C   UNL     1     -43.269  54.787 -53.446  1.00  0.00     0.030 A 
HETATM   18  C   UNL     1     -43.626  54.516 -54.771  1.00  0.00     0.002 A 
HETATM   19  C   UNL     1     -42.908  55.083 -55.822  1.00  0.00     0.000 A 
HETATM   20  C   UNL     1     -41.830  55.922 -55.552  1.00  0.00     0.002 A 
HETATM   21  C   UNL     1     -41.468  56.195 -54.231  1.00  0.00     0.030 A 
ENDBRANCH   2  16
BRANCH   1  22
HETATM   22  C   UNL     1     -41.255  53.564 -50.925  1.00  0.00     0.256 C 
BRANCH  22  23
HETATM   23  O   UNL     1     -40.143  53.331 -51.782  1.00  0.00    -0.343 OA
BRANCH  23  24
HETATM   24  C   UNL     1     -39.924  52.032 -52.160  1.00  0.00     0.075 A 
HETATM   25  C   UNL     1     -39.957  51.776 -53.542  1.00  0.00    -0.029 A 
HETATM   26  C   UNL     1     -40.149  52.879 -54.545  1.00  0.00     0.051 C 
HETATM   27  C   UNL     1     -39.724  50.470 -54.005  1.00  0.00     0.009 A 
HETATM   28  C   UNL     1     -39.499  49.428 -53.107  1.00  0.00     0.001 A 
HETATM   29  C   UNL     1     -39.493  49.680 -51.740  1.00  0.00     0.003 A 
HETATM   30  C   UNL     1     -39.706  50.977 -51.267  1.00  0.00     0.037 A 
ENDBRANCH  23  24
ENDBRANCH  22  23
ENDBRANCH   1  22
TORSDOF 9
ENDMDL
MODEL 6
REMARK VINA RESULT:      -7.4      1.553      2.090
REMARK  9 active torsions:
REMARK  status: ('A' for Active; 'I' for Inactive)
REMARK    1  A    between atoms: C_3  and  O_4 
REMARK    2  A    between atoms: O_4  and  C_5 
REMARK    3  A    between atoms: C_5  and  C_6 
REMARK    4  A    between atoms: N_7  and  C_8 
REMARK    5  A    between atoms: C_14  and  S_15 
REMARK    6  A    between atoms: S_15  and  C_16 
REMARK    7  A    between atoms: C_16  and  C_17 
REMARK       I    between atoms: C_17  and  N_18 
REMARK    8  A    between atoms: N_18  and  C_19 
REMARK    9  A    between atoms: C_19  and  C_20 
ROOT
HETATM    1  C   UNL     1     -41.288  54.659 -50.760  1.00  0.00     0.160 A 
HETATM    2  N   UNL     1     -41.488  55.544 -51.820  1.00  0.00    -0.274 N 
HETATM    3  C   UNL     1     -41.289  56.787 -51.238  1.00  0.00     0.196 A 
HETATM    4  N   UNL     1     -40.972  56.663 -49.972  1.00  0.00    -0.122 NA
HETATM    5  N   UNL     1     -40.984  55.338 -49.667  1.00  0.00    -0.131 NA
ENDROOT
BRANCH   3   6
HETATM    6  S   UNL     1     -41.722  58.326 -51.918  1.00  0.00    -0.081 SA
BRANCH   6   7
HETATM    7  C   UNL     1     -43.527  58.142 -51.994  1.00  0.00     0.185 C 
BRANCH   7   8
HETATM    8  C   UNL     1     -44.155  58.543 -53.322  1.00  0.00     0.227 C 
HETATM    9  N   UNL     1     -43.378  58.392 -54.443  1.00  0.00    -0.360 N 
HETATM   10  H   UNL     1     -42.435  58.018 -54.347  1.00  0.00     0.162 HD
HETATM   11  O   UNL     1     -45.267  59.071 -53.358  1.00  0.00    -0.273 OA
BRANCH   9  12
HETATM   12  C   UNL     1     -43.738  58.923 -55.740  1.00  0.00     0.126 C 
BRANCH  12  13
HETATM   13  C   UNL     1     -43.587  57.876 -56.856  1.00  0.00    -0.005 C 
HETATM   14  C   UNL     1     -44.807  57.844 -57.780  1.00  0.00     0.011 C 
HETATM   15  C   UNL     1     -42.325  58.162 -57.671  1.00  0.00     0.011 C 
ENDBRANCH  12  13
ENDBRANCH   9  12
ENDBRANCH   7   8
ENDBRANCH   6   7
ENDBRANCH   3   6
BRANCH   2  16
HETATM   16  C   UNL     1     -41.839  55.255 -53.168  1.00  0.00     0.043 A 
HETATM   17  C   UNL     1     -43.103  54.745 -53.488  1.00  0.00     0.030 A 
HETATM   18  C   UNL     1     -43.435  54.472 -54.818  1.00  0.00     0.002 A 
HETATM   19  C   UNL     1     -42.512  54.707 -55.835  1.00  0.00     0.000 A 
HETATM   20  C   UNL     1     -41.254  55.216 -55.524  1.00  0.00     0.002 A 
HETATM   21  C   UNL     1     -40.916  55.489 -54.197  1.00  0.00     0.030 A 
ENDBRANCH   2  16
BRANCH   1  22
HETATM   22  C   UNL     1     -41.308  53.171 -50.815  1.00  0.00     0.256 C 
BRANCH  22  23
HETATM   23  O   UNL     1     -40.005  52.733 -51.184  1.00  0.00    -0.343 OA
BRANCH  23  24
HETATM   24  C   UNL     1     -39.929  51.863 -52.241  1.00  0.00     0.075 A 
HETATM   25  C   UNL     1     -39.715  50.512 -51.915  1.00  0.00    -0.029 A 
HETATM   26  C   UNL     1     -39.650  50.045 -50.488  1.00  0.00     0.051 C 
HETATM   27  C   UNL     1     -39.642  49.560 -52.946  1.00  0.00     0.009 A 
HETATM   28  C   UNL     1     -39.742  49.949 -54.281  1.00  0.00     0.001 A 
HETATM   29  C   UNL     1     -39.926  51.290 -54.600  1.00  0.00     0.003 A 
HETATM   30  C   UNL     1     -40.019  52.244 -53.585  1.00  0.00     0.037 A 
ENDBRANCH  23  24
ENDBRANCH  22  23
ENDBRANCH   1  22
TORSDOF 9
ENDMDL
MODEL 7
REMARK VINA RESULT:      -7.3      2.431      4.200
REMARK  9 active torsions:
REMARK  status: ('A' for Active; 'I' for Inactive)
REMARK    1  A    between atoms: C_3  and  O_4 
REMARK    2  A    between atoms: O_4  and  C_5 
REMARK    3  A    between atoms: C_5  and  C_6 
REMARK    4  A    between atoms: N_7  and  C_8 
REMARK    5  A    between atoms: C_14  and  S_15 
REMARK    6  A    between atoms: S_15  and  C_16 
REMARK    7  A    between atoms: C_16  and  C_17 
REMARK       I    between atoms: C_17  and  N_18 
REMARK    8  A    between atoms: N_18  and  C_19 
REMARK    9  A    between atoms: C_19  and  C_20 
ROOT
HETATM    1  C   UNL     1     -41.429  54.729 -54.959  1.00  0.00     0.160 A 
HETATM    2  N   UNL     1     -42.328  55.260 -54.033  1.00  0.00    -0.274 N 
HETATM    3  C   UNL     1     -43.339  55.774 -54.832  1.00  0.00     0.196 A 
HETATM    4  N   UNL     1     -43.091  55.549 -56.100  1.00  0.00    -0.122 NA
HETATM    5  N   UNL     1     -41.894  54.909 -56.183  1.00  0.00    -0.131 NA
ENDROOT
BRANCH   3   6
HETATM    6  S   UNL     1     -44.591  56.871 -54.334  1.00  0.00    -0.081 SA
BRANCH   6   7
HETATM    7  C   UNL     1     -44.031  58.388 -55.162  1.00  0.00     0.185 C 
BRANCH   7   8
HETATM    8  C   UNL     1     -43.781  59.568 -54.232  1.00  0.00     0.227 C 
HETATM    9  N   UNL     1     -42.554  59.621 -53.617  1.00  0.00    -0.360 N 
HETATM   10  H   UNL     1     -41.871  58.890 -53.808  1.00  0.00     0.162 HD
HETATM   11  O   UNL     1     -44.681  60.368 -53.976  1.00  0.00    -0.273 OA
BRANCH   9  12
HETATM   12  C   UNL     1     -42.238  60.544 -52.550  1.00  0.00     0.126 C 
BRANCH  12  13
HETATM   13  C   UNL     1     -42.434  59.912 -51.161  1.00  0.00    -0.005 C 
HETATM   14  C   UNL     1     -41.133  59.889 -50.355  1.00  0.00     0.011 C 
HETATM   15  C   UNL     1     -43.511  60.674 -50.389  1.00  0.00     0.011 C 
ENDBRANCH  12  13
ENDBRANCH   9  12
ENDBRANCH   7   8
ENDBRANCH   6   7
ENDBRANCH   3   6
BRANCH   2  16
HETATM   16  C   UNL     1     -42.230  55.297 -52.615  1.00  0.00     0.043 A 
HETATM   17  C   UNL     1     -43.018  54.456 -51.818  1.00  0.00     0.030 A 
HETATM   18  C   UNL     1     -42.906  54.500 -50.425  1.00  0.00     0.002 A 
HETATM   19  C   UNL     1     -42.009  55.377 -49.820  1.00  0.00     0.000 A 
HETATM   20  C   UNL     1     -41.222  56.215 -50.606  1.00  0.00     0.002 A 
HETATM   21  C   UNL     1     -41.330  56.177 -51.998  1.00  0.00     0.030 A 
ENDBRANCH   2  16
BRANCH   1  22
HETATM   22  C   UNL     1     -40.174  53.982 -54.666  1.00  0.00     0.256 C 
BRANCH  22  23
HETATM   23  O   UNL     1     -40.499  52.598 -54.599  1.00  0.00    -0.343 OA
BRANCH  23  24
HETATM   24  C   UNL     1     -40.186  51.952 -53.431  1.00  0.00     0.075 A 
HETATM   25  C   UNL     1     -39.917  50.576 -53.538  1.00  0.00    -0.029 A 
HETATM   26  C   UNL     1     -39.902  49.877 -54.869  1.00  0.00     0.051 C 
HETATM   27  C   UNL     1     -39.574  49.852 -52.385  1.00  0.00     0.009 A 
HETATM   28  C   UNL     1     -39.534  50.475 -51.139  1.00  0.00     0.001 A 
HETATM   29  C   UNL     1     -39.828  51.830 -51.033  1.00  0.00     0.003 A 
HETATM   30  C   UNL     1     -40.153  52.567 -52.174  1.00  0.00     0.037 A 
ENDBRANCH  23  24
ENDBRANCH  22  23
ENDBRANCH   1  22
TORSDOF 9
ENDMDL
MODEL 8
REMARK VINA RESULT:      -7.2      3.013      7.120
REMARK  9 active torsions:
REMARK  status: ('A' for Active; 'I' for Inactive)
REMARK    1  A    between atoms: C_3  and  O_4 
REMARK    2  A    between atoms: O_4  and  C_5 
REMARK    3  A    between atoms: C_5  and  C_6 
REMARK    4  A    between atoms: N_7  and  C_8 
REMARK    5  A    between atoms: C_14  and  S_15 
REMARK    6  A    between atoms: S_15  and  C_16 
REMARK    7  A    between atoms: C_16  and  C_17 
REMARK       I    between atoms: C_17  and  N_18 
REMARK    8  A    between atoms: N_18  and  C_19 
REMARK    9  A    between atoms: C_19  and  C_20 
ROOT
HETATM    1  C   UNL     1     -41.993  58.350 -56.274  1.00  0.00     0.160 A 
HETATM    2  N   UNL     1     -41.819  57.669 -55.069  1.00  0.00    -0.274 N 
HETATM    3  C   UNL     1     -41.556  58.688 -54.165  1.00  0.00     0.196 A 
HETATM    4  N   UNL     1     -41.598  59.858 -54.756  1.00  0.00    -0.122 NA
HETATM    5  N   UNL     1     -41.857  59.649 -56.075  1.00  0.00    -0.131 NA
ENDROOT
BRANCH   3   6
HETATM    6  S   UNL     1     -40.910  58.505 -52.563  1.00  0.00    -0.081 SA
BRANCH   6   7
HETATM    7  C   UNL     1     -42.442  58.208 -51.635  1.00  0.00     0.185 C 
BRANCH   7   8
HETATM    8  C   UNL     1     -42.648  56.768 -51.185  1.00  0.00     0.227 C 
HETATM    9  N   UNL     1     -41.528  55.978 -51.112  1.00  0.00    -0.360 N 
HETATM   10  H   UNL     1     -40.622  56.378 -51.348  1.00  0.00     0.162 HD
HETATM   11  O   UNL     1     -43.781  56.323 -51.001  1.00  0.00    -0.273 OA
BRANCH   9  12
HETATM   12  C   UNL     1     -41.575  54.545 -50.916  1.00  0.00     0.126 C 
BRANCH  12  13
HETATM   13  C   UNL     1     -40.173  53.937 -50.746  1.00  0.00    -0.005 C 
HETATM   14  C   UNL     1     -39.615  54.172 -49.340  1.00  0.00     0.011 C 
HETATM   15  C   UNL     1     -40.214  52.439 -51.046  1.00  0.00     0.011 C 
ENDBRANCH  12  13
ENDBRANCH   9  12
ENDBRANCH   7   8
ENDBRANCH   6   7
ENDBRANCH   3   6
BRANCH   2  16
HETATM   16  C   UNL     1     -41.870  56.270 -54.819  1.00  0.00     0.043 A 
HETATM   17  C   UNL     1     -43.095  55.615 -54.642  1.00  0.00     0.030 A 
HETATM   18  C   UNL     1     -43.128  54.238 -54.403  1.00  0.00     0.002 A 
HETATM   19  C   UNL     1     -41.944  53.507 -54.342  1.00  0.00     0.000 A 
HETATM   20  C   UNL     1     -40.722  54.152 -54.519  1.00  0.00     0.002 A 
HETATM   21  C   UNL     1     -40.682  55.527 -54.756  1.00  0.00     0.030 A 
ENDBRANCH   2  16
BRANCH   1  22
HETATM   22  C   UNL     1     -42.368  57.763 -57.591  1.00  0.00     0.256 C 
BRANCH  22  23
HETATM   23  O   UNL     1     -43.755  57.450 -57.548  1.00  0.00    -0.343 OA
BRANCH  23  24
HETATM   24  C   UNL     1     -44.238  56.666 -58.564  1.00  0.00     0.075 A 
HETATM   25  C   UNL     1     -45.353  57.170 -59.256  1.00  0.00    -0.029 A 
HETATM   26  C   UNL     1     -45.932  58.521 -58.944  1.00  0.00     0.051 C 
HETATM   27  C   UNL     1     -45.893  56.428 -60.321  1.00  0.00     0.009 A 
HETATM   28  C   UNL     1     -45.356  55.190 -60.669  1.00  0.00     0.001 A 
HETATM   29  C   UNL     1     -44.270  54.684 -59.964  1.00  0.00     0.003 A 
HETATM   30  C   UNL     1     -43.712  55.418 -58.915  1.00  0.00     0.037 A 
ENDBRANCH  23  24
ENDBRANCH  22  23
ENDBRANCH   1  22
TORSDOF 9
ENDMDL
MODEL 9
REMARK VINA RESULT:      -7.1      2.504      4.548
REMARK  9 active torsions:
REMARK  status: ('A' for Active; 'I' for Inactive)
REMARK    1  A    between atoms: C_3  and  O_4 
REMARK    2  A    between atoms: O_4  and  C_5 
REMARK    3  A    between atoms: C_5  and  C_6 
REMARK    4  A    between atoms: N_7  and  C_8 
REMARK    5  A    between atoms: C_14  and  S_15 
REMARK    6  A    between atoms: S_15  and  C_16 
REMARK    7  A    between atoms: C_16  and  C_17 
REMARK       I    between atoms: C_17  and  N_18 
REMARK    8  A    between atoms: N_18  and  C_19 
REMARK    9  A    between atoms: C_19  and  C_20 
ROOT
HETATM    1  C   UNL     1     -42.935  56.168 -53.011  1.00  0.00     0.160 A 
HETATM    2  N   UNL     1     -42.735  57.547 -52.954  1.00  0.00    -0.274 N 
HETATM    3  C   UNL     1     -43.596  58.033 -53.927  1.00  0.00     0.196 A 
HETATM    4  N   UNL     1     -44.265  57.055 -54.488  1.00  0.00    -0.122 NA
HETATM    5  N   UNL     1     -43.846  55.889 -53.928  1.00  0.00    -0.131 NA
ENDROOT
BRANCH   3   6
HETATM    6  S   UNL     1     -43.589  59.632 -54.607  1.00  0.00    -0.081 SA
BRANCH   6   7
HETATM    7  C   UNL     1     -42.090  59.536 -55.627  1.00  0.00     0.185 C 
BRANCH   7   8
HETATM    8  C   UNL     1     -42.336  59.216 -57.096  1.00  0.00     0.227 C 
HETATM    9  N   UNL     1     -43.313  58.292 -57.371  1.00  0.00    -0.360 N 
HETATM   10  H   UNL     1     -43.831  57.872 -56.601  1.00  0.00     0.162 HD
HETATM   11  O   UNL     1     -41.614  59.692 -57.972  1.00  0.00    -0.273 OA
BRANCH   9  12
HETATM   12  C   UNL     1     -43.521  57.720 -58.683  1.00  0.00     0.126 C 
BRANCH  12  13
HETATM   13  C   UNL     1     -42.957  56.293 -58.788  1.00  0.00    -0.005 C 
HETATM   14  C   UNL     1     -42.991  55.564 -57.442  1.00  0.00     0.011 C 
HETATM   15  C   UNL     1     -43.742  55.497 -59.831  1.00  0.00     0.011 C 
ENDBRANCH  12  13
ENDBRANCH   9  12
ENDBRANCH   7   8
ENDBRANCH   6   7
ENDBRANCH   3   6
BRANCH   2  16
HETATM   16  C   UNL     1     -41.846  58.286 -52.124  1.00  0.00     0.043 A 
HETATM   17  C   UNL     1     -40.480  58.362 -52.423  1.00  0.00     0.030 A 
HETATM   18  C   UNL     1     -39.621  59.097 -51.601  1.00  0.00     0.002 A 
HETATM   19  C   UNL     1     -40.117  59.760 -50.481  1.00  0.00     0.000 A 
HETATM   20  C   UNL     1     -41.475  59.690 -50.179  1.00  0.00     0.002 A 
HETATM   21  C   UNL     1     -42.338  58.957 -50.995  1.00  0.00     0.030 A 
ENDBRANCH   2  16
BRANCH   1  22
HETATM   22  C   UNL     1     -42.317  55.133 -52.136  1.00  0.00     0.256 C 
BRANCH  22  23
HETATM   23  O   UNL     1     -40.969  54.957 -52.558  1.00  0.00    -0.343 OA
BRANCH  23  24
HETATM   24  C   UNL     1     -40.507  53.667 -52.606  1.00  0.00     0.075 A 
HETATM   25  C   UNL     1     -40.356  53.112 -53.889  1.00  0.00    -0.029 A 
HETATM   26  C   UNL     1     -40.616  53.915 -55.132  1.00  0.00     0.051 C 
HETATM   27  C   UNL     1     -39.871  51.800 -54.016  1.00  0.00     0.009 A 
HETATM   28  C   UNL     1     -39.577  51.037 -52.887  1.00  0.00     0.001 A 
HETATM   29  C   UNL     1     -39.754  51.581 -51.620  1.00  0.00     0.003 A 
HETATM   30  C   UNL     1     -40.218  52.891 -51.478  1.00  0.00     0.037 A 
ENDBRANCH  23  24
ENDBRANCH  22  23
ENDBRANCH   1  22
TORSDOF 9
ENDMDL
MODEL 10
REMARK VINA RESULT:      -7.0      1.566      2.284
REMARK  9 active torsions:
REMARK  status: ('A' for Active; 'I' for Inactive)
REMARK    1  A    between atoms: C_3  and  O_4 
REMARK    2  A    between atoms: O_4  and  C_5 
REMARK    3  A    between atoms: C_5  and  C_6 
REMARK    4  A    between atoms: N_7  and  C_8 
REMARK    5  A    between atoms: C_14  and  S_15 
REMARK    6  A    between atoms: S_15  and  C_16 
REMARK    7  A    between atoms: C_16  and  C_17 
REMARK       I    between atoms: C_17  and  N_18 
REMARK    8  A    between atoms: N_18  and  C_19 
REMARK    9  A    between atoms: C_19  and  C_20 
ROOT
HETATM    1  C   UNL     1     -41.404  55.163 -50.871  1.00  0.00     0.160 A 
HETATM    2  N   UNL     1     -41.738  56.246 -51.685  1.00  0.00    -0.274 N 
HETATM    3  C   UNL     1     -41.467  57.343 -50.881  1.00  0.00     0.196 A 
HETATM    4  N   UNL     1     -40.992  56.962 -49.719  1.00  0.00    -0.122 NA
HETATM    5  N   UNL     1     -40.965  55.603 -49.705  1.00  0.00    -0.131 NA
ENDROOT
BRANCH   3   6
HETATM    6  S   UNL     1     -41.984  58.979 -51.157  1.00  0.00    -0.081 SA
BRANCH   6   7
HETATM    7  C   UNL     1     -41.086  59.339 -52.694  1.00  0.00     0.185 C 
BRANCH   7   8
HETATM    8  C   UNL     1     -41.900  60.067 -53.755  1.00  0.00     0.227 C 
HETATM    9  N   UNL     1     -41.866  59.547 -55.025  1.00  0.00    -0.360 N 
HETATM   10  H   UNL     1     -41.317  58.708 -55.203  1.00  0.00     0.162 HD
HETATM   11  O   UNL     1     -42.470  61.126 -53.492  1.00  0.00    -0.273 OA
BRANCH   9  12
HETATM   12  C   UNL     1     -42.400  60.233 -56.181  1.00  0.00     0.126 C 
BRANCH  12  13
HETATM   13  C   UNL     1     -41.727  59.777 -57.486  1.00  0.00    -0.005 C 
HETATM   14  C   UNL     1     -42.593  58.776 -58.256  1.00  0.00     0.011 C 
HETATM   15  C   UNL     1     -41.425  60.989 -58.368  1.00  0.00     0.011 C 
ENDBRANCH  12  13
ENDBRANCH   9  12
ENDBRANCH   7   8
ENDBRANCH   6   7
ENDBRANCH   3   6
BRANCH   2  16
HETATM   16  C   UNL     1     -42.256  56.240 -53.010  1.00  0.00     0.043 A 
HETATM   17  C   UNL     1     -41.408  56.081 -54.113  1.00  0.00     0.030 A 
HETATM   18  C   UNL     1     -41.933  56.071 -55.408  1.00  0.00     0.002 A 
HETATM   19  C   UNL     1     -43.304  56.216 -55.611  1.00  0.00     0.000 A 
HETATM   20  C   UNL     1     -44.153  56.373 -54.519  1.00  0.00     0.002 A 
HETATM   21  C   UNL     1     -43.634  56.386 -53.223  1.00  0.00     0.030 A 
ENDBRANCH   2  16
BRANCH   1  22
HETATM   22  C   UNL     1     -41.430  53.720 -51.240  1.00  0.00     0.256 C 
BRANCH  22  23
HETATM   23  O   UNL     1     -40.215  53.424 -51.919  1.00  0.00    -0.343 OA
BRANCH  23  24
HETATM   24  C   UNL     1     -39.986  52.105 -52.216  1.00  0.00     0.075 A 
HETATM   25  C   UNL     1     -40.006  51.766 -53.580  1.00  0.00    -0.029 A 
HETATM   26  C   UNL     1     -40.193  52.807 -54.649  1.00  0.00     0.051 C 
HETATM   27  C   UNL     1     -39.764  50.436 -53.961  1.00  0.00     0.009 A 
HETATM   28  C   UNL     1     -39.542  49.451 -53.001  1.00  0.00     0.001 A 
HETATM   29  C   UNL     1     -39.550  49.785 -51.651  1.00  0.00     0.003 A 
HETATM   30  C   UNL     1     -39.772  51.107 -51.259  1.00  0.00     0.037 A 
ENDBRANCH  23  24
ENDBRANCH  22  23
ENDBRANCH   1  22
TORSDOF 9
ENDMDL
