MODEL 1
REMARK VINA RESULT:      -8.1      0.000      0.000
REMARK  6 active torsions:
REMARK  status: ('A' for Active; 'I' for Inactive)
REMARK    1  A    between atoms: O_2  and  C_3 
REMARK    2  A    between atoms: C_3  and  C_4 
REMARK    3  A    between atoms: C_4  and  N_5 
REMARK       I    between atoms: N_5  and  C_6 
REMARK    4  A    between atoms: C_6  and  C_7 
REMARK    5  A    between atoms: C_12  and  C_13 
REMARK    6  A    between atoms: C_20  and  C_21 
ROOT
HETATM    1  C   UNL     1     -42.026  57.639 -52.516  1.00  0.00     0.165 A 
HETATM    2  N   UNL     1     -42.147  57.272 -53.817  1.00  0.00    -0.163 NA
HETATM    3  N   UNL     1     -41.774  55.981 -53.830  1.00  0.00    -0.238 N 
HETATM    4  C   UNL     1     -41.294  55.536 -52.626  1.00  0.00     0.141 A 
HETATM    5  N   UNL     1     -40.767  54.292 -52.499  1.00  0.00    -0.365 N 
HETATM    6  C   UNL     1     -40.348  53.574 -53.700  1.00  0.00     0.118 C 
HETATM    7  C   UNL     1     -41.432  53.727 -54.773  1.00  0.00     0.066 C 
HETATM    8  C   UNL     1     -41.699  55.218 -55.065  1.00  0.00     0.221 C 
HETATM    9  C   UNL     1     -41.493  56.572 -51.750  1.00  0.00     0.092 A 
HETATM   10 BR   UNL     1     -41.084  56.574 -49.923  1.00  0.00    -0.044 Br
HETATM   11  H   UNL     1     -40.231  54.067 -51.660  1.00  0.00     0.162 HD
ENDROOT
BRANCH   1  12
HETATM   12  C   UNL     1     -42.411  58.993 -52.080  1.00  0.00     0.273 C 
HETATM   13  N   UNL     1     -43.698  59.061 -51.592  1.00  0.00    -0.353 N 
HETATM   14  H   UNL     1     -44.165  58.166 -51.452  1.00  0.00     0.162 HD
HETATM   15  O   UNL     1     -41.667  59.967 -52.136  1.00  0.00    -0.266 OA
BRANCH  13  16
HETATM   16  C   UNL     1     -44.221  60.227 -50.913  1.00  0.00     0.149 C 
BRANCH  16  17
HETATM   17  C   UNL     1     -45.718  60.093 -50.640  1.00  0.00     0.186 C 
BRANCH  17  18
HETATM   18  O   UNL     1     -45.924  59.873 -49.240  1.00  0.00    -0.394 OA
HETATM   19  C   UNL     1     -45.541  61.006 -48.473  1.00  0.00     0.201 C 
ENDBRANCH  17  18
ENDBRANCH  16  17
ENDBRANCH  13  16
ENDBRANCH   1  12
BRANCH   8  20
HETATM   20  C   UNL     1     -42.957  55.355 -55.894  1.00  0.00     0.409 C 
HETATM   21  F   UNL     1     -42.914  56.418 -56.728  1.00  0.00    -0.169 F 
HETATM   22  F   UNL     1     -43.241  54.255 -56.622  1.00  0.00    -0.169 F 
HETATM   23  F   UNL     1     -44.025  55.548 -55.073  1.00  0.00    -0.169 F 
ENDBRANCH   8  20
BRANCH   6  24
HETATM   24  C   UNL     1     -40.093  52.113 -53.386  1.00  0.00    -0.035 A 
HETATM   25  C   UNL     1     -40.118  51.128 -54.389  1.00  0.00     0.009 A 
HETATM   26  C   UNL     1     -39.859  49.791 -54.083  1.00  0.00     0.001 A 
HETATM   27  C   UNL     1     -39.560  49.420 -52.774  1.00  0.00     0.000 A 
HETATM   28  C   UNL     1     -39.519  50.385 -51.771  1.00  0.00     0.001 A 
HETATM   29  C   UNL     1     -39.783  51.723 -52.074  1.00  0.00     0.009 A 
ENDBRANCH   6  24
TORSDOF 6
ENDMDL
MODEL 2
REMARK VINA RESULT:      -7.6      1.651      2.516
REMARK  6 active torsions:
REMARK  status: ('A' for Active; 'I' for Inactive)
REMARK    1  A    between atoms: O_2  and  C_3 
REMARK    2  A    between atoms: C_3  and  C_4 
REMARK    3  A    between atoms: C_4  and  N_5 
REMARK       I    between atoms: N_5  and  C_6 
REMARK    4  A    between atoms: C_6  and  C_7 
REMARK    5  A    between atoms: C_12  and  C_13 
REMARK    6  A    between atoms: C_20  and  C_21 
ROOT
HETATM    1  C   UNL     1     -42.189  57.559 -52.749  1.00  0.00     0.165 A 
HETATM    2  N   UNL     1     -42.242  57.122 -54.033  1.00  0.00    -0.163 NA
HETATM    3  N   UNL     1     -41.819  55.849 -53.965  1.00  0.00    -0.238 N 
HETATM    4  C   UNL     1     -41.373  55.485 -52.721  1.00  0.00     0.141 A 
HETATM    5  N   UNL     1     -40.803  54.272 -52.508  1.00  0.00    -0.365 N 
HETATM    6  C   UNL     1     -40.308  53.511 -53.653  1.00  0.00     0.118 C 
HETATM    7  C   UNL     1     -41.352  53.566 -54.774  1.00  0.00     0.066 C 
HETATM    8  C   UNL     1     -41.664  55.027 -55.154  1.00  0.00     0.221 C 
HETATM    9  C   UNL     1     -41.647  56.555 -51.909  1.00  0.00     0.092 A 
HETATM   10 BR   UNL     1     -41.314  56.666 -50.069  1.00  0.00    -0.044 Br
HETATM   11  H   UNL     1     -40.294  54.111 -51.638  1.00  0.00     0.162 HD
ENDROOT
BRANCH   1  12
HETATM   12  C   UNL     1     -42.644  58.917 -52.400  1.00  0.00     0.273 C 
HETATM   13  N   UNL     1     -42.255  59.872 -53.313  1.00  0.00    -0.353 N 
HETATM   14  H   UNL     1     -41.842  59.517 -54.175  1.00  0.00     0.162 HD
HETATM   15  O   UNL     1     -43.307  59.180 -51.401  1.00  0.00    -0.266 OA
BRANCH  13  16
HETATM   16  C   UNL     1     -42.760  61.228 -53.297  1.00  0.00     0.149 C 
BRANCH  16  17
HETATM   17  C   UNL     1     -44.055  61.353 -54.098  1.00  0.00     0.186 C 
BRANCH  17  18
HETATM   18  O   UNL     1     -43.948  60.568 -55.291  1.00  0.00    -0.394 OA
HETATM   19  C   UNL     1     -45.186  59.950 -55.620  1.00  0.00     0.201 C 
ENDBRANCH  17  18
ENDBRANCH  16  17
ENDBRANCH  13  16
ENDBRANCH   1  12
BRANCH   8  20
HETATM   20  C   UNL     1     -42.892  55.072 -56.037  1.00  0.00     0.409 C 
HETATM   21  F   UNL     1     -43.521  53.878 -56.109  1.00  0.00    -0.169 F 
HETATM   22  F   UNL     1     -43.790  56.003 -55.656  1.00  0.00    -0.169 F 
HETATM   23  F   UNL     1     -42.528  55.397 -57.307  1.00  0.00    -0.169 F 
ENDBRANCH   8  20
BRANCH   6  24
HETATM   24  C   UNL     1     -40.010  52.079 -53.253  1.00  0.00    -0.035 A 
HETATM   25  C   UNL     1     -39.726  51.730 -51.922  1.00  0.00     0.009 A 
HETATM   26  C   UNL     1     -39.475  50.402 -51.570  1.00  0.00     0.001 A 
HETATM   27  C   UNL     1     -39.516  49.404 -52.541  1.00  0.00     0.000 A 
HETATM   28  C   UNL     1     -39.807  49.732 -53.863  1.00  0.00     0.001 A 
HETATM   29  C   UNL     1     -40.052  51.060 -54.218  1.00  0.00     0.009 A 
ENDBRANCH   6  24
TORSDOF 6
ENDMDL
MODEL 3
REMARK VINA RESULT:      -7.3      4.028      5.413
REMARK  6 active torsions:
REMARK  status: ('A' for Active; 'I' for Inactive)
REMARK    1  A    between atoms: O_2  and  C_3 
REMARK    2  A    between atoms: C_3  and  C_4 
REMARK    3  A    between atoms: C_4  and  N_5 
REMARK       I    between atoms: N_5  and  C_6 
REMARK    4  A    between atoms: C_6  and  C_7 
REMARK    5  A    between atoms: C_12  and  C_13 
REMARK    6  A    between atoms: C_20  and  C_21 
ROOT
HETATM    1  C   UNL     1     -43.369  57.810 -56.338  1.00  0.00     0.165 A 
HETATM    2  N   UNL     1     -43.095  58.125 -55.047  1.00  0.00    -0.163 NA
HETATM    3  N   UNL     1     -42.495  57.026 -54.560  1.00  0.00    -0.238 N 
HETATM    4  C   UNL     1     -42.486  55.972 -55.436  1.00  0.00     0.141 A 
HETATM    5  N   UNL     1     -42.023  54.753 -55.060  1.00  0.00    -0.365 N 
HETATM    6  C   UNL     1     -41.902  54.449 -53.637  1.00  0.00     0.118 C 
HETATM    7  C   UNL     1     -41.263  55.648 -52.926  1.00  0.00     0.066 C 
HETATM    8  C   UNL     1     -42.093  56.926 -53.167  1.00  0.00     0.221 C 
HETATM    9  C   UNL     1     -43.000  56.468 -56.607  1.00  0.00     0.092 A 
HETATM   10 BR   UNL     1     -43.211  55.527 -58.212  1.00  0.00    -0.044 Br
HETATM   11  H   UNL     1     -42.222  53.946 -55.653  1.00  0.00     0.162 HD
ENDROOT
BRANCH   1  12
HETATM   12  C   UNL     1     -43.984  58.802 -57.238  1.00  0.00     0.273 C 
HETATM   13  N   UNL     1     -45.244  58.443 -57.663  1.00  0.00    -0.353 N 
HETATM   14  H   UNL     1     -45.653  57.633 -57.198  1.00  0.00     0.162 HD
HETATM   15  O   UNL     1     -43.438  59.847 -57.578  1.00  0.00    -0.266 OA
BRANCH  13  16
HETATM   16  C   UNL     1     -46.123  59.348 -58.372  1.00  0.00     0.149 C 
BRANCH  16  17
HETATM   17  C   UNL     1     -46.949  58.615 -59.427  1.00  0.00     0.186 C 
BRANCH  17  18
HETATM   18  O   UNL     1     -47.027  57.227 -59.084  1.00  0.00    -0.394 OA
HETATM   19  C   UNL     1     -46.846  56.397 -60.225  1.00  0.00     0.201 C 
ENDBRANCH  17  18
ENDBRANCH  16  17
ENDBRANCH  13  16
ENDBRANCH   1  12
BRANCH   8  20
HETATM   20  C   UNL     1     -41.304  58.136 -52.716  1.00  0.00     0.409 C 
HETATM   21  F   UNL     1     -40.386  58.525 -53.629  1.00  0.00    -0.169 F 
HETATM   22  F   UNL     1     -42.080  59.197 -52.415  1.00  0.00    -0.169 F 
HETATM   23  F   UNL     1     -40.618  57.836 -51.580  1.00  0.00    -0.169 F 
ENDBRANCH   8  20
BRANCH   6  24
HETATM   24  C   UNL     1     -41.082  53.190 -53.428  1.00  0.00    -0.035 A 
HETATM   25  C   UNL     1     -40.934  52.231 -54.444  1.00  0.00     0.009 A 
HETATM   26  C   UNL     1     -40.157  51.089 -54.240  1.00  0.00     0.001 A 
HETATM   27  C   UNL     1     -39.510  50.895 -53.022  1.00  0.00     0.000 A 
HETATM   28  C   UNL     1     -39.637  51.842 -52.008  1.00  0.00     0.001 A 
HETATM   29  C   UNL     1     -40.418  52.982 -52.209  1.00  0.00     0.009 A 
ENDBRANCH   6  24
TORSDOF 6
ENDMDL
MODEL 4
REMARK VINA RESULT:      -7.3      4.391      7.433
REMARK  6 active torsions:
REMARK  status: ('A' for Active; 'I' for Inactive)
REMARK    1  A    between atoms: O_2  and  C_3 
REMARK    2  A    between atoms: C_3  and  C_4 
REMARK    3  A    between atoms: C_4  and  N_5 
REMARK       I    between atoms: N_5  and  C_6 
REMARK    4  A    between atoms: C_6  and  C_7 
REMARK    5  A    between atoms: C_12  and  C_13 
REMARK    6  A    between atoms: C_20  and  C_21 
ROOT
HETATM    1  C   UNL     1     -42.864  56.227 -57.685  1.00  0.00     0.165 A 
HETATM    2  N   UNL     1     -42.499  55.281 -56.782  1.00  0.00    -0.163 NA
HETATM    3  N   UNL     1     -42.305  55.971 -55.644  1.00  0.00    -0.238 N 
HETATM    4  C   UNL     1     -42.401  57.328 -55.803  1.00  0.00     0.141 A 
HETATM    5  N   UNL     1     -42.118  58.174 -54.780  1.00  0.00    -0.365 N 
HETATM    6  C   UNL     1     -41.343  57.679 -53.644  1.00  0.00     0.118 C 
HETATM    7  C   UNL     1     -41.884  56.304 -53.237  1.00  0.00     0.066 C 
HETATM    8  C   UNL     1     -41.835  55.327 -54.429  1.00  0.00     0.221 C 
HETATM    9  C   UNL     1     -42.808  57.516 -57.098  1.00  0.00     0.092 A 
HETATM   10 BR   UNL     1     -43.164  59.159 -57.923  1.00  0.00    -0.044 Br
HETATM   11  H   UNL     1     -41.991  59.166 -54.981  1.00  0.00     0.162 HD
ENDROOT
BRANCH   1  12
HETATM   12  C   UNL     1     -43.229  55.848 -59.062  1.00  0.00     0.273 C 
HETATM   13  N   UNL     1     -44.464  55.245 -59.150  1.00  0.00    -0.353 N 
HETATM   14  H   UNL     1     -45.029  55.270 -58.301  1.00  0.00     0.162 HD
HETATM   15  O   UNL     1     -42.513  56.049 -60.038  1.00  0.00    -0.266 OA
BRANCH  13  16
HETATM   16  C   UNL     1     -45.123  54.983 -60.411  1.00  0.00     0.149 C 
BRANCH  16  17
HETATM   17  C   UNL     1     -46.364  55.857 -60.587  1.00  0.00     0.186 C 
BRANCH  17  18
HETATM   18  O   UNL     1     -45.991  57.235 -60.464  1.00  0.00    -0.394 OA
HETATM   19  C   UNL     1     -46.823  57.918 -59.536  1.00  0.00     0.201 C 
ENDBRANCH  17  18
ENDBRANCH  16  17
ENDBRANCH  13  16
ENDBRANCH   1  12
BRANCH   8  20
HETATM   20  C   UNL     1     -42.634  54.084 -54.100  1.00  0.00     0.409 C 
HETATM   21  F   UNL     1     -42.572  53.760 -52.789  1.00  0.00    -0.169 F 
HETATM   22  F   UNL     1     -43.933  54.176 -54.453  1.00  0.00    -0.169 F 
HETATM   23  F   UNL     1     -42.131  53.024 -54.787  1.00  0.00    -0.169 F 
ENDBRANCH   8  20
BRANCH   6  24
HETATM   24  C   UNL     1     -41.408  58.657 -52.487  1.00  0.00    -0.035 A 
HETATM   25  C   UNL     1     -42.401  59.649 -52.415  1.00  0.00     0.009 A 
HETATM   26  C   UNL     1     -42.457  60.525 -51.331  1.00  0.00     0.001 A 
HETATM   27  C   UNL     1     -41.529  60.416 -50.298  1.00  0.00     0.000 A 
HETATM   28  C   UNL     1     -40.545  59.432 -50.348  1.00  0.00     0.001 A 
HETATM   29  C   UNL     1     -40.485  58.557 -51.435  1.00  0.00     0.009 A 
ENDBRANCH   6  24
TORSDOF 6
ENDMDL
MODEL 5
REMARK VINA RESULT:      -7.1      4.000      5.350
REMARK  6 active torsions:
REMARK  status: ('A' for Active; 'I' for Inactive)
REMARK    1  A    between atoms: O_2  and  C_3 
REMARK    2  A    between atoms: C_3  and  C_4 
REMARK    3  A    between atoms: C_4  and  N_5 
REMARK       I    between atoms: N_5  and  C_6 
REMARK    4  A    between atoms: C_6  and  C_7 
REMARK    5  A    between atoms: C_12  and  C_13 
REMARK    6  A    between atoms: C_20  and  C_21 
ROOT
HETATM    1  C   UNL     1     -43.017  58.246 -55.460  1.00  0.00     0.165 A 
HETATM    2  N   UNL     1     -42.765  58.361 -54.131  1.00  0.00    -0.163 NA
HETATM    3  N   UNL     1     -42.213  57.182 -53.797  1.00  0.00    -0.238 N 
HETATM    4  C   UNL     1     -42.217  56.267 -54.816  1.00  0.00     0.141 A 
HETATM    5  N   UNL     1     -41.803  54.990 -54.612  1.00  0.00    -0.365 N 
HETATM    6  C   UNL     1     -41.727  54.480 -53.246  1.00  0.00     0.118 C 
HETATM    7  C   UNL     1     -41.068  55.540 -52.356  1.00  0.00     0.066 C 
HETATM    8  C   UNL     1     -41.849  56.868 -52.425  1.00  0.00     0.221 C 
HETATM    9  C   UNL     1     -42.685  56.944 -55.912  1.00  0.00     0.092 A 
HETATM   10 BR   UNL     1     -42.887  56.253 -57.641  1.00  0.00    -0.044 Br
HETATM   11  H   UNL     1     -42.014  54.285 -55.319  1.00  0.00     0.162 HD
ENDROOT
BRANCH   1  12
HETATM   12  C   UNL     1     -43.576  59.378 -56.219  1.00  0.00     0.273 C 
HETATM   13  N   UNL     1     -42.627  60.074 -56.935  1.00  0.00    -0.353 N 
HETATM   14  H   UNL     1     -41.703  59.645 -56.976  1.00  0.00     0.162 HD
HETATM   15  O   UNL     1     -44.767  59.677 -56.223  1.00  0.00    -0.266 OA
BRANCH  13  16
HETATM   16  C   UNL     1     -42.965  61.083 -57.916  1.00  0.00     0.149 C 
BRANCH  16  17
HETATM   17  C   UNL     1     -41.846  61.265 -58.940  1.00  0.00     0.186 C 
BRANCH  17  18
HETATM   18  O   UNL     1     -40.606  61.467 -58.252  1.00  0.00    -0.394 OA
HETATM   19  C   UNL     1     -39.907  62.596 -58.760  1.00  0.00     0.201 C 
ENDBRANCH  17  18
ENDBRANCH  16  17
ENDBRANCH  13  16
ENDBRANCH   1  12
BRANCH   8  20
HETATM   20  C   UNL     1     -41.033  57.971 -51.788  1.00  0.00     0.409 C 
HETATM   21  F   UNL     1     -40.343  57.546 -50.706  1.00  0.00    -0.169 F 
HETATM   22  F   UNL     1     -40.166  58.555 -52.642  1.00  0.00    -0.169 F 
HETATM   23  F   UNL     1     -41.861  58.961 -51.357  1.00  0.00    -0.169 F 
ENDBRANCH   8  20
BRANCH   6  24
HETATM   24  C   UNL     1     -40.955  53.176 -53.205  1.00  0.00    -0.035 A 
HETATM   25  C   UNL     1     -40.244  52.776 -52.060  1.00  0.00     0.009 A 
HETATM   26  C   UNL     1     -39.557  51.561 -52.035  1.00  0.00     0.001 A 
HETATM   27  C   UNL     1     -39.581  50.723 -53.148  1.00  0.00     0.000 A 
HETATM   28  C   UNL     1     -40.289  51.100 -54.287  1.00  0.00     0.001 A 
HETATM   29  C   UNL     1     -40.973  52.317 -54.315  1.00  0.00     0.009 A 
ENDBRANCH   6  24
TORSDOF 6
ENDMDL
MODEL 6
REMARK VINA RESULT:      -7.1      3.004      7.811
REMARK  6 active torsions:
REMARK  status: ('A' for Active; 'I' for Inactive)
REMARK    1  A    between atoms: O_2  and  C_3 
REMARK    2  A    between atoms: C_3  and  C_4 
REMARK    3  A    between atoms: C_4  and  N_5 
REMARK       I    between atoms: N_5  and  C_6 
REMARK    4  A    between atoms: C_6  and  C_7 
REMARK    5  A    between atoms: C_12  and  C_13 
REMARK    6  A    between atoms: C_20  and  C_21 
ROOT
HETATM    1  C   UNL     1     -41.467  54.307 -52.466  1.00  0.00     0.165 A 
HETATM    2  N   UNL     1     -42.166  54.429 -53.624  1.00  0.00    -0.163 NA
HETATM    3  N   UNL     1     -42.866  55.565 -53.467  1.00  0.00    -0.238 N 
HETATM    4  C   UNL     1     -42.752  56.111 -52.215  1.00  0.00     0.141 A 
HETATM    5  N   UNL     1     -43.487  57.194 -51.855  1.00  0.00    -0.365 N 
HETATM    6  C   UNL     1     -44.670  57.541 -52.639  1.00  0.00     0.118 C 
HETATM    7  C   UNL     1     -44.323  57.441 -54.129  1.00  0.00     0.066 C 
HETATM    8  C   UNL     1     -43.807  56.030 -54.473  1.00  0.00     0.221 C 
HETATM    9  C   UNL     1     -41.818  55.345 -51.568  1.00  0.00     0.092 A 
HETATM   10 BR   UNL     1     -41.184  55.606 -49.825  1.00  0.00    -0.044 Br
HETATM   11  H   UNL     1     -43.542  57.446 -50.868  1.00  0.00     0.162 HD
ENDROOT
BRANCH   1  12
HETATM   12  C   UNL     1     -40.517  53.196 -52.277  1.00  0.00     0.273 C 
HETATM   13  N   UNL     1     -40.357  52.420 -53.403  1.00  0.00    -0.353 N 
HETATM   14  H   UNL     1     -40.785  52.783 -54.254  1.00  0.00     0.162 HD
HETATM   15  O   UNL     1     -39.919  52.980 -51.227  1.00  0.00    -0.266 OA
BRANCH  13  16
HETATM   16  C   UNL     1     -39.325  51.412 -53.524  1.00  0.00     0.149 C 
BRANCH  16  17
HETATM   17  C   UNL     1     -39.898  50.079 -54.003  1.00  0.00     0.186 C 
BRANCH  17  18
HETATM   18  O   UNL     1     -39.519  49.047 -53.085  1.00  0.00    -0.394 OA
HETATM   19  C   UNL     1     -39.601  49.493 -51.737  1.00  0.00     0.201 C 
ENDBRANCH  17  18
ENDBRANCH  16  17
ENDBRANCH  13  16
ENDBRANCH   1  12
BRANCH   8  20
HETATM   20  C   UNL     1     -43.199  56.035 -55.858  1.00  0.00     0.409 C 
HETATM   21  F   UNL     1     -43.168  54.803 -56.415  1.00  0.00    -0.169 F 
HETATM   22  F   UNL     1     -43.824  56.871 -56.713  1.00  0.00    -0.169 F 
HETATM   23  F   UNL     1     -41.909  56.463 -55.789  1.00  0.00    -0.169 F 
ENDBRANCH   8  20
BRANCH   6  24
HETATM   24  C   UNL     1     -45.157  58.932 -52.283  1.00  0.00    -0.035 A 
HETATM   25  C   UNL     1     -45.435  59.891 -53.272  1.00  0.00     0.009 A 
HETATM   26  C   UNL     1     -45.904  61.159 -52.925  1.00  0.00     0.001 A 
HETATM   27  C   UNL     1     -46.112  61.483 -51.586  1.00  0.00     0.000 A 
HETATM   28  C   UNL     1     -45.851  60.541 -50.594  1.00  0.00     0.001 A 
HETATM   29  C   UNL     1     -45.378  59.273 -50.939  1.00  0.00     0.009 A 
ENDBRANCH   6  24
TORSDOF 6
ENDMDL
MODEL 7
REMARK VINA RESULT:      -6.9      3.125      4.054
REMARK  6 active torsions:
REMARK  status: ('A' for Active; 'I' for Inactive)
REMARK    1  A    between atoms: O_2  and  C_3 
REMARK    2  A    between atoms: C_3  and  C_4 
REMARK    3  A    between atoms: C_4  and  N_5 
REMARK       I    between atoms: N_5  and  C_6 
REMARK    4  A    between atoms: C_6  and  C_7 
REMARK    5  A    between atoms: C_12  and  C_13 
REMARK    6  A    between atoms: C_20  and  C_21 
ROOT
HETATM    1  C   UNL     1     -44.355  58.984 -52.715  1.00  0.00     0.165 A 
HETATM    2  N   UNL     1     -43.466  58.996 -51.690  1.00  0.00    -0.163 NA
HETATM    3  N   UNL     1     -42.766  57.860 -51.848  1.00  0.00    -0.238 N 
HETATM    4  C   UNL     1     -43.246  57.054 -52.847  1.00  0.00     0.141 A 
HETATM    5  N   UNL     1     -42.727  55.819 -53.061  1.00  0.00    -0.365 N 
HETATM    6  C   UNL     1     -41.940  55.188 -52.005  1.00  0.00     0.118 C 
HETATM    7  C   UNL     1     -40.970  56.223 -51.424  1.00  0.00     0.066 C 
HETATM    8  C   UNL     1     -41.738  57.455 -50.903  1.00  0.00     0.221 C 
HETATM    9  C   UNL     1     -44.240  57.779 -53.453  1.00  0.00     0.092 A 
HETATM   10 BR   UNL     1     -45.264  57.243 -54.927  1.00  0.00    -0.044 Br
HETATM   11  H   UNL     1     -43.235  55.167 -53.660  1.00  0.00     0.162 HD
ENDROOT
BRANCH   1  12
HETATM   12  C   UNL     1     -45.276  60.116 -52.923  1.00  0.00     0.273 C 
HETATM   13  N   UNL     1     -46.030  60.414 -51.809  1.00  0.00    -0.353 N 
HETATM   14  H   UNL     1     -45.761  59.931 -50.952  1.00  0.00     0.162 HD
HETATM   15  O   UNL     1     -45.366  60.739 -53.976  1.00  0.00    -0.266 OA
BRANCH  13  16
HETATM   16  C   UNL     1     -46.840  61.609 -51.704  1.00  0.00     0.149 C 
BRANCH  16  17
HETATM   17  C   UNL     1     -46.317  62.546 -50.618  1.00  0.00     0.186 C 
BRANCH  17  18
HETATM   18  O   UNL     1     -46.875  62.162 -49.356  1.00  0.00    -0.394 OA
HETATM   19  C   UNL     1     -45.863  61.771 -48.436  1.00  0.00     0.201 C 
ENDBRANCH  17  18
ENDBRANCH  16  17
ENDBRANCH  13  16
ENDBRANCH   1  12
BRANCH   8  20
HETATM   20  C   UNL     1     -40.763  58.575 -50.611  1.00  0.00     0.409 C 
HETATM   21  F   UNL     1     -40.682  59.467 -51.623  1.00  0.00    -0.169 F 
HETATM   22  F   UNL     1     -41.046  59.246 -49.476  1.00  0.00    -0.169 F 
HETATM   23  F   UNL     1     -39.515  58.061 -50.444  1.00  0.00    -0.169 F 
ENDBRANCH   8  20
BRANCH   6  24
HETATM   24  C   UNL     1     -41.195  53.981 -52.541  1.00  0.00    -0.035 A 
HETATM   25  C   UNL     1     -41.202  53.660 -53.910  1.00  0.00     0.009 A 
HETATM   26  C   UNL     1     -40.492  52.558 -54.388  1.00  0.00     0.001 A 
HETATM   27  C   UNL     1     -39.756  51.768 -53.508  1.00  0.00     0.000 A 
HETATM   28  C   UNL     1     -39.730  52.078 -52.150  1.00  0.00     0.001 A 
HETATM   29  C   UNL     1     -40.444  53.178 -51.670  1.00  0.00     0.009 A 
ENDBRANCH   6  24
TORSDOF 6
ENDMDL
MODEL 8
REMARK VINA RESULT:      -6.8      3.621      4.385
REMARK  6 active torsions:
REMARK  status: ('A' for Active; 'I' for Inactive)
REMARK    1  A    between atoms: O_2  and  C_3 
REMARK    2  A    between atoms: C_3  and  C_4 
REMARK    3  A    between atoms: C_4  and  N_5 
REMARK       I    between atoms: N_5  and  C_6 
REMARK    4  A    between atoms: C_6  and  C_7 
REMARK    5  A    between atoms: C_12  and  C_13 
REMARK    6  A    between atoms: C_20  and  C_21 
ROOT
HETATM    1  C   UNL     1     -43.262  57.952 -55.910  1.00  0.00     0.165 A 
HETATM    2  N   UNL     1     -42.967  58.187 -54.606  1.00  0.00    -0.163 NA
HETATM    3  N   UNL     1     -42.370  57.055 -54.195  1.00  0.00    -0.238 N 
HETATM    4  C   UNL     1     -42.383  56.056 -55.133  1.00  0.00     0.141 A 
HETATM    5  N   UNL     1     -41.926  54.813 -54.837  1.00  0.00    -0.365 N 
HETATM    6  C   UNL     1     -41.788  54.423 -53.437  1.00  0.00     0.118 C 
HETATM    7  C   UNL     1     -41.129  55.572 -52.664  1.00  0.00     0.066 C 
HETATM    8  C   UNL     1     -41.950  56.868 -52.816  1.00  0.00     0.221 C 
HETATM    9  C   UNL     1     -42.908  56.626 -56.264  1.00  0.00     0.092 A 
HETATM   10 BR   UNL     1     -43.150  55.785 -57.920  1.00  0.00    -0.044 Br
HETATM   11  H   UNL     1     -42.140  54.045 -55.474  1.00  0.00     0.162 HD
ENDROOT
BRANCH   1  12
HETATM   12  C   UNL     1     -43.880  59.001 -56.740  1.00  0.00     0.273 C 
HETATM   13  N   UNL     1     -45.184  59.272 -56.391  1.00  0.00    -0.353 N 
HETATM   14  H   UNL     1     -45.510  58.838 -55.528  1.00  0.00     0.162 HD
HETATM   15  O   UNL     1     -43.298  59.584 -57.650  1.00  0.00    -0.266 OA
BRANCH  13  16
HETATM   16  C   UNL     1     -45.921  60.403 -56.916  1.00  0.00     0.149 C 
BRANCH  16  17
HETATM   17  C   UNL     1     -45.778  61.630 -56.018  1.00  0.00     0.186 C 
BRANCH  17  18
HETATM   18  O   UNL     1     -46.093  61.266 -54.669  1.00  0.00    -0.394 OA
HETATM   19  C   UNL     1     -46.674  62.352 -53.958  1.00  0.00     0.201 C 
ENDBRANCH  17  18
ENDBRANCH  16  17
ENDBRANCH  13  16
ENDBRANCH   1  12
BRANCH   8  20
HETATM   20  C   UNL     1     -41.144  58.042 -52.305  1.00  0.00     0.409 C 
HETATM   21  F   UNL     1     -40.463  57.750 -51.174  1.00  0.00    -0.169 F 
HETATM   22  F   UNL     1     -40.271  58.526 -53.213  1.00  0.00    -0.169 F 
HETATM   23  F   UNL     1     -41.980  59.072 -52.001  1.00  0.00    -0.169 F 
ENDBRANCH   8  20
BRANCH   6  24
HETATM   24  C   UNL     1     -40.977  53.147 -53.315  1.00  0.00    -0.035 A 
HETATM   25  C   UNL     1     -40.265  52.836 -52.144  1.00  0.00     0.009 A 
HETATM   26  C   UNL     1     -39.542  51.645 -52.044  1.00  0.00     0.001 A 
HETATM   27  C   UNL     1     -39.530  50.745 -53.107  1.00  0.00     0.000 A 
HETATM   28  C   UNL     1     -40.240  51.034 -54.270  1.00  0.00     0.001 A 
HETATM   29  C   UNL     1     -40.959  52.226 -54.374  1.00  0.00     0.009 A 
ENDBRANCH   6  24
TORSDOF 6
ENDMDL
MODEL 9
REMARK VINA RESULT:      -6.8     16.428     18.091
REMARK  6 active torsions:
REMARK  status: ('A' for Active; 'I' for Inactive)
REMARK    1  A    between atoms: O_2  and  C_3 
REMARK    2  A    between atoms: C_3  and  C_4 
REMARK    3  A    between atoms: C_4  and  N_5 
REMARK       I    between atoms: N_5  and  C_6 
REMARK    4  A    between atoms: C_6  and  C_7 
REMARK    5  A    between atoms: C_12  and  C_13 
REMARK    6  A    between atoms: C_20  and  C_21 
ROOT
HETATM    1  C   UNL     1     -35.938  41.065 -54.773  1.00  0.00     0.165 A 
HETATM    2  N   UNL     1     -34.609  40.924 -55.013  1.00  0.00    -0.163 NA
HETATM    3  N   UNL     1     -34.105  40.510 -53.838  1.00  0.00    -0.238 N 
HETATM    4  C   UNL     1     -35.022  40.502 -52.820  1.00  0.00     0.141 A 
HETATM    5  N   UNL     1     -34.650  40.221 -51.545  1.00  0.00    -0.365 N 
HETATM    6  C   UNL     1     -33.239  40.314 -51.182  1.00  0.00     0.118 C 
HETATM    7  C   UNL     1     -32.400  39.646 -52.278  1.00  0.00     0.066 C 
HETATM    8  C   UNL     1     -32.679  40.299 -53.647  1.00  0.00     0.221 C 
HETATM    9  C   UNL     1     -36.222  40.809 -53.408  1.00  0.00     0.092 A 
HETATM   10 BR   UNL     1     -37.884  40.915 -52.551  1.00  0.00    -0.044 Br
HETATM   11  H   UNL     1     -35.300  40.429 -50.785  1.00  0.00     0.162 HD
ENDROOT
BRANCH   1  12
HETATM   12  C   UNL     1     -36.859  41.453 -55.856  1.00  0.00     0.273 C 
HETATM   13  N   UNL     1     -37.317  40.380 -56.589  1.00  0.00    -0.353 N 
HETATM   14  H   UNL     1     -37.094  39.460 -56.212  1.00  0.00     0.162 HD
HETATM   15  O   UNL     1     -37.193  42.611 -56.088  1.00  0.00    -0.266 OA
BRANCH  13  16
HETATM   16  C   UNL     1     -38.388  40.489 -57.557  1.00  0.00     0.149 C 
BRANCH  16  17
HETATM   17  C   UNL     1     -37.934  40.047 -58.947  1.00  0.00     0.186 C 
BRANCH  17  18
HETATM   18  O   UNL     1     -36.845  40.874 -59.372  1.00  0.00    -0.394 OA
HETATM   19  C   UNL     1     -37.281  42.191 -59.683  1.00  0.00     0.201 C 
ENDBRANCH  17  18
ENDBRANCH  16  17
ENDBRANCH  13  16
ENDBRANCH   1  12
BRANCH   8  20
HETATM   20  C   UNL     1     -32.080  39.449 -54.747  1.00  0.00     0.409 C 
HETATM   21  F   UNL     1     -30.928  38.852 -54.369  1.00  0.00    -0.169 F 
HETATM   22  F   UNL     1     -32.920  38.499 -55.205  1.00  0.00    -0.169 F 
HETATM   23  F   UNL     1     -31.780  40.234 -55.817  1.00  0.00    -0.169 F 
ENDBRANCH   8  20
BRANCH   6  24
HETATM   24  C   UNL     1     -32.991  39.665 -49.834  1.00  0.00    -0.035 A 
HETATM   25  C   UNL     1     -33.906  38.757 -49.274  1.00  0.00     0.009 A 
HETATM   26  C   UNL     1     -33.649  38.154 -48.041  1.00  0.00     0.001 A 
HETATM   27  C   UNL     1     -32.470  38.440 -47.357  1.00  0.00     0.000 A 
HETATM   28  C   UNL     1     -31.548  39.330 -47.903  1.00  0.00     0.001 A 
HETATM   29  C   UNL     1     -31.805  39.938 -49.134  1.00  0.00     0.009 A 
ENDBRANCH   6  24
TORSDOF 6
ENDMDL
MODEL 10
REMARK VINA RESULT:      -6.8      3.667      5.479
REMARK  6 active torsions:
REMARK  status: ('A' for Active; 'I' for Inactive)
REMARK    1  A    between atoms: O_2  and  C_3 
REMARK    2  A    between atoms: C_3  and  C_4 
REMARK    3  A    between atoms: C_4  and  N_5 
REMARK       I    between atoms: N_5  and  C_6 
REMARK    4  A    between atoms: C_6  and  C_7 
REMARK    5  A    between atoms: C_12  and  C_13 
REMARK    6  A    between atoms: C_20  and  C_21 
ROOT
HETATM    1  C   UNL     1     -44.676  58.527 -51.974  1.00  0.00     0.165 A 
HETATM    2  N   UNL     1     -44.041  57.327 -51.957  1.00  0.00    -0.163 NA
HETATM    3  N   UNL     1     -43.639  57.149 -53.227  1.00  0.00    -0.238 N 
HETATM    4  C   UNL     1     -44.096  58.113 -54.087  1.00  0.00     0.141 A 
HETATM    5  N   UNL     1     -43.879  58.018 -55.423  1.00  0.00    -0.365 N 
HETATM    6  C   UNL     1     -43.512  56.724 -55.992  1.00  0.00     0.118 C 
HETATM    7  C   UNL     1     -42.448  56.074 -55.100  1.00  0.00     0.066 C 
HETATM    8  C   UNL     1     -42.964  55.934 -53.653  1.00  0.00     0.221 C 
HETATM    9  C   UNL     1     -44.726  59.038 -53.296  1.00  0.00     0.092 A 
HETATM   10 BR   UNL     1     -45.530  60.628 -53.872  1.00  0.00    -0.044 Br
HETATM   11  H   UNL     1     -44.404  58.626 -56.053  1.00  0.00     0.162 HD
ENDROOT
BRANCH   1  12
HETATM   12  C   UNL     1     -45.214  59.109 -50.732  1.00  0.00     0.273 C 
HETATM   13  N   UNL     1     -44.414  60.101 -50.207  1.00  0.00    -0.353 N 
HETATM   14  H   UNL     1     -43.647  60.411 -50.802  1.00  0.00     0.162 HD
HETATM   15  O   UNL     1     -46.268  58.758 -50.213  1.00  0.00    -0.266 OA
BRANCH  13  16
HETATM   16  C   UNL     1     -44.837  60.959 -49.121  1.00  0.00     0.149 C 
BRANCH  16  17
HETATM   17  C   UNL     1     -45.663  62.139 -49.628  1.00  0.00     0.186 C 
BRANCH  17  18
HETATM   18  O   UNL     1     -46.942  62.132 -48.983  1.00  0.00    -0.394 OA
HETATM   19  C   UNL     1     -46.867  62.678 -47.672  1.00  0.00     0.201 C 
ENDBRANCH  17  18
ENDBRANCH  16  17
ENDBRANCH  13  16
ENDBRANCH   1  12
BRANCH   8  20
HETATM   20  C   UNL     1     -41.816  55.572 -52.737  1.00  0.00     0.409 C 
HETATM   21  F   UNL     1     -41.145  56.659 -52.294  1.00  0.00    -0.169 F 
HETATM   22  F   UNL     1     -42.195  54.842 -51.668  1.00  0.00    -0.169 F 
HETATM   23  F   UNL     1     -40.916  54.809 -53.414  1.00  0.00    -0.169 F 
ENDBRANCH   8  20
BRANCH   6  24
HETATM   24  C   UNL     1     -43.008  56.888 -57.412  1.00  0.00    -0.035 A 
HETATM   25  C   UNL     1     -42.332  58.049 -57.825  1.00  0.00     0.009 A 
HETATM   26  C   UNL     1     -41.856  58.173 -59.131  1.00  0.00     0.001 A 
HETATM   27  C   UNL     1     -42.039  57.133 -60.041  1.00  0.00     0.000 A 
HETATM   28  C   UNL     1     -42.698  55.971 -59.645  1.00  0.00     0.001 A 
HETATM   29  C   UNL     1     -43.179  55.848 -58.340  1.00  0.00     0.009 A 
ENDBRANCH   6  24
TORSDOF 6
ENDMDL
