MODEL 1
REMARK VINA RESULT:      -9.4      0.000      0.000
REMARK  6 active torsions:
REMARK  status: ('A' for Active; 'I' for Inactive)
REMARK    1  A    between atoms: C_4  and  C_5 
REMARK    2  A    between atoms: C_5  and  O_6 
REMARK    3  A    between atoms: O_6  and  C_7 
REMARK    4  A    between atoms: C_10  and  C_11 
REMARK    5  A    between atoms: C_17  and  C_18 
REMARK    6  A    between atoms: C_27  and  N_28 
ROOT
HETATM    1  C   UNL     1     -44.596  57.736 -51.794  1.00  0.00     0.072 A 
HETATM    2  N   UNL     1     -45.605  57.497 -50.882  1.00  0.00    -0.274 N 
HETATM    3  H   UNL     1     -45.987  56.598 -50.607  1.00  0.00     0.189 HD
HETATM    4  N   UNL     1     -46.139  58.609 -50.339  1.00  0.00    -0.148 NA
HETATM    5  C   UNL     1     -45.449  59.571 -50.932  1.00  0.00     0.199 A 
HETATM    6  C   UNL     1     -44.465  59.117 -51.815  1.00  0.00     0.040 A 
HETATM    7  C   UNL     1     -43.595  60.087 -52.534  1.00  0.00     0.107 A 
HETATM    8  C   UNL     1     -44.042  61.521 -52.274  1.00  0.00     0.081 A 
HETATM    9  C   UNL     1     -43.397  62.538 -53.039  1.00  0.00     0.100 C 
HETATM   10  N   UNL     1     -42.863  63.354 -53.666  1.00  0.00    -0.191 NA
HETATM   11  C   UNL     1     -45.032  61.838 -51.400  1.00  0.00     0.140 A 
HETATM   12  O   UNL     1     -45.722  60.862 -50.668  1.00  0.00    -0.277 OA
ENDROOT
BRANCH   7  13
HETATM   13  C   UNL     1     -42.176  59.821 -52.070  1.00  0.00    -0.027 A 
HETATM   14  C   UNL     1     -41.173  59.362 -52.927  1.00  0.00     0.124 A 
HETATM   15  N   UNL     1     -39.913  59.064 -52.539  1.00  0.00    -0.273 NA
HETATM   16  C   UNL     1     -39.625  59.225 -51.231  1.00  0.00     0.116 A 
HETATM   17  C   UNL     1     -40.538  59.673 -50.294  1.00  0.00     0.020 A 
HETATM   18  C   UNL     1     -41.829  59.972 -50.720  1.00  0.00     0.011 A 
ENDBRANCH   7  13
BRANCH  11  19
HETATM   19  N   UNL     1     -45.475  63.115 -51.128  1.00  0.00    -0.282 NA
HETATM   20  H   UNL     1     -44.756  63.792 -50.884  1.00  0.00     0.126 HD
HETATM   21  H   UNL     1     -46.263  63.118 -50.483  1.00  0.00     0.126 HD
ENDBRANCH  11  19
BRANCH   1  22
HETATM   22  C   UNL     1     -43.913  56.665 -52.513  1.00  0.00    -0.007 A 
HETATM   23  C   UNL     1     -43.234  55.659 -51.819  1.00  0.00     0.016 A 
HETATM   24  C   UNL     1     -42.584  54.634 -52.512  1.00  0.00     0.037 A 
HETATM   25  C   UNL     1     -42.592  54.598 -53.906  1.00  0.00     0.069 A 
HETATM   26  C   UNL     1     -43.252  55.605 -54.607  1.00  0.00     0.037 A 
HETATM   27  C   UNL     1     -43.913  56.628 -53.914  1.00  0.00     0.016 A 
BRANCH  25  28
HETATM   28  O   UNL     1     -41.931  53.533 -54.452  1.00  0.00    -0.347 OA
BRANCH  28  29
HETATM   29  C   UNL     1     -40.516  53.471 -54.259  1.00  0.00     0.214 C 
BRANCH  29  30
HETATM   30  C   UNL     1     -40.144  52.144 -53.641  1.00  0.00    -0.034 A 
HETATM   31  C   UNL     1     -39.852  52.063 -52.270  1.00  0.00     0.009 A 
HETATM   32  C   UNL     1     -39.529  50.839 -51.683  1.00  0.00     0.001 A 
HETATM   33  C   UNL     1     -39.502  49.680 -52.455  1.00  0.00     0.000 A 
HETATM   34  C   UNL     1     -39.805  49.743 -53.814  1.00  0.00     0.001 A 
HETATM   35  C   UNL     1     -40.131  50.966 -54.402  1.00  0.00     0.009 A 
ENDBRANCH  29  30
ENDBRANCH  28  29
ENDBRANCH  25  28
ENDBRANCH   1  22
TORSDOF 6
ENDMDL
MODEL 2
REMARK VINA RESULT:      -9.2      3.886      5.352
REMARK  6 active torsions:
REMARK  status: ('A' for Active; 'I' for Inactive)
REMARK    1  A    between atoms: C_4  and  C_5 
REMARK    2  A    between atoms: C_5  and  O_6 
REMARK    3  A    between atoms: O_6  and  C_7 
REMARK    4  A    between atoms: C_10  and  C_11 
REMARK    5  A    between atoms: C_17  and  C_18 
REMARK    6  A    between atoms: C_27  and  N_28 
ROOT
HETATM    1  C   UNL     1     -42.927  55.823 -56.872  1.00  0.00     0.072 A 
HETATM    2  N   UNL     1     -43.611  55.037 -57.778  1.00  0.00    -0.274 N 
HETATM    3  H   UNL     1     -43.898  54.070 -57.662  1.00  0.00     0.189 HD
HETATM    4  N   UNL     1     -43.885  55.646 -58.949  1.00  0.00    -0.148 NA
HETATM    5  C   UNL     1     -43.351  56.846 -58.773  1.00  0.00     0.199 A 
HETATM    6  C   UNL     1     -42.772  57.042 -57.516  1.00  0.00     0.040 A 
HETATM    7  C   UNL     1     -42.157  58.351 -57.169  1.00  0.00     0.107 A 
HETATM    8  C   UNL     1     -42.137  59.284 -58.374  1.00  0.00     0.081 A 
HETATM    9  C   UNL     1     -41.421  60.509 -58.220  1.00  0.00     0.100 C 
HETATM   10  N   UNL     1     -40.837  61.501 -58.080  1.00  0.00    -0.191 NA
HETATM   11  C   UNL     1     -42.722  58.971 -59.559  1.00  0.00     0.140 A 
HETATM   12  O   UNL     1     -43.391  57.756 -59.762  1.00  0.00    -0.277 OA
ENDROOT
BRANCH   7  13
HETATM   13  C   UNL     1     -42.956  58.910 -56.007  1.00  0.00    -0.027 A 
HETATM   14  C   UNL     1     -44.263  59.382 -56.144  1.00  0.00     0.124 A 
HETATM   15  N   UNL     1     -44.986  59.935 -55.145  1.00  0.00    -0.273 NA
HETATM   16  C   UNL     1     -44.385  60.031 -53.941  1.00  0.00     0.116 A 
HETATM   17  C   UNL     1     -43.095  59.597 -53.690  1.00  0.00     0.020 A 
HETATM   18  C   UNL     1     -42.373  59.033 -54.738  1.00  0.00     0.011 A 
ENDBRANCH   7  13
BRANCH  11  19
HETATM   19  N   UNL     1     -42.733  59.775 -60.678  1.00  0.00    -0.282 NA
HETATM   20  H   UNL     1     -41.959  60.429 -60.763  1.00  0.00     0.126 HD
HETATM   21  H   UNL     1     -43.642  60.211 -60.828  1.00  0.00     0.126 HD
ENDBRANCH  11  19
BRANCH   1  22
HETATM   22  C   UNL     1     -42.513  55.335 -55.560  1.00  0.00    -0.007 A 
HETATM   23  C   UNL     1     -43.434  54.730 -54.700  1.00  0.00     0.016 A 
HETATM   24  C   UNL     1     -43.032  54.262 -53.446  1.00  0.00     0.037 A 
HETATM   25  C   UNL     1     -41.708  54.396 -53.025  1.00  0.00     0.069 A 
HETATM   26  C   UNL     1     -40.788  55.013 -53.868  1.00  0.00     0.037 A 
HETATM   27  C   UNL     1     -41.187  55.474 -55.130  1.00  0.00     0.016 A 
BRANCH  25  28
HETATM   28  O   UNL     1     -41.451  53.882 -51.785  1.00  0.00    -0.347 OA
BRANCH  28  29
HETATM   29  C   UNL     1     -40.104  53.492 -51.502  1.00  0.00     0.214 C 
BRANCH  29  30
HETATM   30  C   UNL     1     -39.905  52.043 -51.875  1.00  0.00    -0.034 A 
HETATM   31  C   UNL     1     -39.865  51.058 -50.876  1.00  0.00     0.009 A 
HETATM   32  C   UNL     1     -39.703  49.712 -51.211  1.00  0.00     0.001 A 
HETATM   33  C   UNL     1     -39.587  49.334 -52.546  1.00  0.00     0.000 A 
HETATM   34  C   UNL     1     -39.640  50.299 -53.549  1.00  0.00     0.001 A 
HETATM   35  C   UNL     1     -39.804  51.645 -53.217  1.00  0.00     0.009 A 
ENDBRANCH  29  30
ENDBRANCH  28  29
ENDBRANCH  25  28
ENDBRANCH   1  22
TORSDOF 6
ENDMDL
MODEL 3
REMARK VINA RESULT:      -8.9      2.190      4.064
REMARK  6 active torsions:
REMARK  status: ('A' for Active; 'I' for Inactive)
REMARK    1  A    between atoms: C_4  and  C_5 
REMARK    2  A    between atoms: C_5  and  O_6 
REMARK    3  A    between atoms: O_6  and  C_7 
REMARK    4  A    between atoms: C_10  and  C_11 
REMARK    5  A    between atoms: C_17  and  C_18 
REMARK    6  A    between atoms: C_27  and  N_28 
ROOT
HETATM    1  C   UNL     1     -42.043  56.531 -55.162  1.00  0.00     0.072 A 
HETATM    2  N   UNL     1     -42.590  57.002 -56.340  1.00  0.00    -0.274 N 
HETATM    3  H   UNL     1     -42.746  56.483 -57.198  1.00  0.00     0.189 HD
HETATM    4  N   UNL     1     -42.912  58.311 -56.319  1.00  0.00    -0.148 NA
HETATM    5  C   UNL     1     -42.552  58.670 -55.097  1.00  0.00     0.199 A 
HETATM    6  C   UNL     1     -42.038  57.630 -54.316  1.00  0.00     0.040 A 
HETATM    7  C   UNL     1     -41.616  57.883 -52.912  1.00  0.00     0.107 A 
HETATM    8  C   UNL     1     -41.691  59.368 -52.577  1.00  0.00     0.081 A 
HETATM    9  C   UNL     1     -41.152  59.764 -51.316  1.00  0.00     0.100 C 
HETATM   10  N   UNL     1     -40.712  60.071 -50.288  1.00  0.00    -0.191 NA
HETATM   11  C   UNL     1     -42.196  60.293 -53.432  1.00  0.00     0.140 A 
HETATM   12  O   UNL     1     -42.688  59.948 -54.698  1.00  0.00    -0.277 OA
ENDROOT
BRANCH   7  13
HETATM   13  C   UNL     1     -42.514  57.036 -52.031  1.00  0.00    -0.027 A 
HETATM   14  C   UNL     1     -43.813  57.415 -51.687  1.00  0.00     0.124 A 
HETATM   15  N   UNL     1     -44.622  56.713 -50.862  1.00  0.00    -0.273 NA
HETATM   16  C   UNL     1     -44.121  55.572 -50.346  1.00  0.00     0.116 A 
HETATM   17  C   UNL     1     -42.849  55.100 -50.617  1.00  0.00     0.020 A 
HETATM   18  C   UNL     1     -42.037  55.844 -51.468  1.00  0.00     0.011 A 
ENDBRANCH   7  13
BRANCH  11  19
HETATM   19  N   UNL     1     -42.286  61.645 -53.180  1.00  0.00    -0.282 NA
HETATM   20  H   UNL     1     -41.440  62.090 -52.833  1.00  0.00     0.126 HD
HETATM   21  H   UNL     1     -43.114  61.878 -52.633  1.00  0.00     0.126 HD
ENDBRANCH  11  19
BRANCH   1  22
HETATM   22  C   UNL     1     -41.602  55.149 -54.996  1.00  0.00    -0.007 A 
HETATM   23  C   UNL     1     -40.253  54.809 -55.140  1.00  0.00     0.016 A 
HETATM   24  C   UNL     1     -39.835  53.485 -54.978  1.00  0.00     0.037 A 
HETATM   25  C   UNL     1     -40.752  52.478 -54.677  1.00  0.00     0.069 A 
HETATM   26  C   UNL     1     -42.100  52.805 -54.549  1.00  0.00     0.037 A 
HETATM   27  C   UNL     1     -42.520  54.134 -54.702  1.00  0.00     0.016 A 
BRANCH  25  28
HETATM   28  O   UNL     1     -40.205  51.235 -54.532  1.00  0.00    -0.347 OA
BRANCH  28  29
HETATM   29  C   UNL     1     -39.074  51.113 -53.665  1.00  0.00     0.214 C 
BRANCH  29  30
HETATM   30  C   UNL     1     -39.534  51.085 -52.228  1.00  0.00    -0.034 A 
HETATM   31  C   UNL     1     -39.885  52.278 -51.577  1.00  0.00     0.009 A 
HETATM   32  C   UNL     1     -40.333  52.262 -50.255  1.00  0.00     0.001 A 
HETATM   33  C   UNL     1     -40.443  51.055 -49.570  1.00  0.00     0.000 A 
HETATM   34  C   UNL     1     -40.113  49.861 -50.208  1.00  0.00     0.001 A 
HETATM   35  C   UNL     1     -39.668  49.875 -51.530  1.00  0.00     0.009 A 
ENDBRANCH  29  30
ENDBRANCH  28  29
ENDBRANCH  25  28
ENDBRANCH   1  22
TORSDOF 6
ENDMDL
MODEL 4
REMARK VINA RESULT:      -8.4      4.860      6.174
REMARK  6 active torsions:
REMARK  status: ('A' for Active; 'I' for Inactive)
REMARK    1  A    between atoms: C_4  and  C_5 
REMARK    2  A    between atoms: C_5  and  O_6 
REMARK    3  A    between atoms: O_6  and  C_7 
REMARK    4  A    between atoms: C_10  and  C_11 
REMARK    5  A    between atoms: C_17  and  C_18 
REMARK    6  A    between atoms: C_27  and  N_28 
ROOT
HETATM    1  C   UNL     1     -44.759  58.350 -56.109  1.00  0.00     0.072 A 
HETATM    2  N   UNL     1     -45.026  59.550 -55.480  1.00  0.00    -0.274 N 
HETATM    3  H   UNL     1     -44.683  59.862 -54.576  1.00  0.00     0.189 HD
HETATM    4  N   UNL     1     -45.862  60.360 -56.158  1.00  0.00    -0.148 NA
HETATM    5  C   UNL     1     -46.133  59.645 -57.239  1.00  0.00     0.199 A 
HETATM    6  C   UNL     1     -45.472  58.414 -57.297  1.00  0.00     0.040 A 
HETATM    7  C   UNL     1     -45.662  57.515 -58.468  1.00  0.00     0.107 A 
HETATM    8  C   UNL     1     -46.725  58.063 -59.413  1.00  0.00     0.081 A 
HETATM    9  C   UNL     1     -47.122  57.211 -60.487  1.00  0.00     0.100 C 
HETATM   10  N   UNL     1     -47.433  56.509 -61.356  1.00  0.00    -0.191 NA
HETATM   11  C   UNL     1     -47.314  59.274 -59.238  1.00  0.00     0.140 A 
HETATM   12  O   UNL     1     -46.985  60.115 -58.167  1.00  0.00    -0.277 OA
ENDROOT
BRANCH   7  13
HETATM   13  C   UNL     1     -44.304  57.375 -59.130  1.00  0.00    -0.027 A 
HETATM   14  C   UNL     1     -43.708  56.137 -59.382  1.00  0.00     0.124 A 
HETATM   15  N   UNL     1     -42.479  55.975 -59.920  1.00  0.00    -0.273 NA
HETATM   16  C   UNL     1     -41.796  57.098 -60.225  1.00  0.00     0.116 A 
HETATM   17  C   UNL     1     -42.286  58.374 -60.019  1.00  0.00     0.020 A 
HETATM   18  C   UNL     1     -43.555  58.513 -59.462  1.00  0.00     0.011 A 
ENDBRANCH   7  13
BRANCH  11  19
HETATM   19  N   UNL     1     -48.279  59.815 -60.060  1.00  0.00    -0.282 NA
HETATM   20  H   UNL     1     -47.938  60.292 -60.891  1.00  0.00     0.126 HD
HETATM   21  H   UNL     1     -48.965  60.359 -59.540  1.00  0.00     0.126 HD
ENDBRANCH  11  19
BRANCH   1  22
HETATM   22  C   UNL     1     -43.900  57.326 -55.522  1.00  0.00    -0.007 A 
HETATM   23  C   UNL     1     -44.368  56.509 -54.488  1.00  0.00     0.016 A 
HETATM   24  C   UNL     1     -43.543  55.528 -53.931  1.00  0.00     0.037 A 
HETATM   25  C   UNL     1     -42.237  55.350 -54.388  1.00  0.00     0.069 A 
HETATM   26  C   UNL     1     -41.757  56.170 -55.406  1.00  0.00     0.037 A 
HETATM   27  C   UNL     1     -42.586  57.148 -55.973  1.00  0.00     0.016 A 
BRANCH  25  28
HETATM   28  O   UNL     1     -41.548  54.347 -53.765  1.00  0.00    -0.347 OA
BRANCH  28  29
HETATM   29  C   UNL     1     -40.769  53.476 -54.590  1.00  0.00     0.214 C 
BRANCH  29  30
HETATM   30  C   UNL     1     -40.316  52.282 -53.784  1.00  0.00    -0.034 A 
HETATM   31  C   UNL     1     -40.061  52.416 -52.410  1.00  0.00     0.009 A 
HETATM   32  C   UNL     1     -39.663  51.315 -51.650  1.00  0.00     0.001 A 
HETATM   33  C   UNL     1     -39.522  50.067 -52.250  1.00  0.00     0.000 A 
HETATM   34  C   UNL     1     -39.786  49.915 -53.610  1.00  0.00     0.001 A 
HETATM   35  C   UNL     1     -40.187  51.015 -54.371  1.00  0.00     0.009 A 
ENDBRANCH  29  30
ENDBRANCH  28  29
ENDBRANCH  25  28
ENDBRANCH   1  22
TORSDOF 6
ENDMDL
MODEL 5
REMARK VINA RESULT:      -8.3     17.126     20.485
REMARK  6 active torsions:
REMARK  status: ('A' for Active; 'I' for Inactive)
REMARK    1  A    between atoms: C_4  and  C_5 
REMARK    2  A    between atoms: C_5  and  O_6 
REMARK    3  A    between atoms: O_6  and  C_7 
REMARK    4  A    between atoms: C_10  and  C_11 
REMARK    5  A    between atoms: C_17  and  C_18 
REMARK    6  A    between atoms: C_27  and  N_28 
ROOT
HETATM    1  C   UNL     1     -34.581  41.188 -52.354  1.00  0.00     0.072 A 
HETATM    2  N   UNL     1     -34.997  42.485 -52.127  1.00  0.00    -0.274 N 
HETATM    3  H   UNL     1     -34.857  43.040 -51.289  1.00  0.00     0.189 HD
HETATM    4  N   UNL     1     -35.692  43.032 -53.144  1.00  0.00    -0.148 NA
HETATM    5  C   UNL     1     -35.716  42.048 -54.030  1.00  0.00     0.199 A 
HETATM    6  C   UNL     1     -35.033  40.895 -53.632  1.00  0.00     0.040 A 
HETATM    7  C   UNL     1     -34.957  39.718 -54.538  1.00  0.00     0.107 A 
HETATM    8  C   UNL     1     -35.811  39.928 -55.783  1.00  0.00     0.081 A 
HETATM    9  C   UNL     1     -35.958  38.804 -56.651  1.00  0.00     0.100 C 
HETATM   10  N   UNL     1     -36.068  37.884 -57.348  1.00  0.00    -0.191 NA
HETATM   11  C   UNL     1     -36.448  41.096 -56.052  1.00  0.00     0.140 A 
HETATM   12  O   UNL     1     -36.367  42.204 -55.197  1.00  0.00    -0.277 OA
ENDROOT
BRANCH   7  13
HETATM   13  C   UNL     1     -33.488  39.516 -54.862  1.00  0.00    -0.027 A 
HETATM   14  C   UNL     1     -32.760  40.401 -55.660  1.00  0.00     0.124 A 
HETATM   15  N   UNL     1     -31.467  40.226 -56.012  1.00  0.00    -0.273 NA
HETATM   16  C   UNL     1     -30.857  39.114 -55.554  1.00  0.00     0.116 A 
HETATM   17  C   UNL     1     -31.480  38.169 -54.758  1.00  0.00     0.020 A 
HETATM   18  C   UNL     1     -32.812  38.374 -54.411  1.00  0.00     0.011 A 
ENDBRANCH   7  13
BRANCH  11  19
HETATM   19  N   UNL     1     -37.232  41.338 -57.159  1.00  0.00    -0.282 NA
HETATM   20  H   UNL     1     -38.236  41.257 -57.020  1.00  0.00     0.126 HD
HETATM   21  H   UNL     1     -36.900  40.835 -57.981  1.00  0.00     0.126 HD
ENDBRANCH  11  19
BRANCH   1  22
HETATM   22  C   UNL     1     -33.843  40.412 -51.362  1.00  0.00    -0.007 A 
HETATM   23  C   UNL     1     -32.444  40.402 -51.360  1.00  0.00     0.016 A 
HETATM   24  C   UNL     1     -31.742  39.659 -50.407  1.00  0.00     0.037 A 
HETATM   25  C   UNL     1     -32.419  38.910 -49.445  1.00  0.00     0.069 A 
HETATM   26  C   UNL     1     -33.812  38.901 -49.449  1.00  0.00     0.037 A 
HETATM   27  C   UNL     1     -34.518  39.652 -50.398  1.00  0.00     0.016 A 
BRANCH  25  28
HETATM   28  O   UNL     1     -31.610  38.245 -48.567  1.00  0.00    -0.347 OA
BRANCH  28  29
HETATM   29  C   UNL     1     -32.073  38.108 -47.221  1.00  0.00     0.214 C 
BRANCH  29  30
HETATM   30  C   UNL     1     -31.248  38.982 -46.307  1.00  0.00    -0.034 A 
HETATM   31  C   UNL     1     -30.484  40.032 -46.838  1.00  0.00     0.009 A 
HETATM   32  C   UNL     1     -29.734  40.861 -46.000  1.00  0.00     0.001 A 
HETATM   33  C   UNL     1     -29.746  40.655 -44.623  1.00  0.00     0.000 A 
HETATM   34  C   UNL     1     -30.513  39.626 -44.080  1.00  0.00     0.001 A 
HETATM   35  C   UNL     1     -31.265  38.798 -44.916  1.00  0.00     0.009 A 
ENDBRANCH  29  30
ENDBRANCH  28  29
ENDBRANCH  25  28
ENDBRANCH   1  22
TORSDOF 6
ENDMDL
MODEL 6
REMARK VINA RESULT:      -8.3      2.891      8.296
REMARK  6 active torsions:
REMARK  status: ('A' for Active; 'I' for Inactive)
REMARK    1  A    between atoms: C_4  and  C_5 
REMARK    2  A    between atoms: C_5  and  O_6 
REMARK    3  A    between atoms: O_6  and  C_7 
REMARK    4  A    between atoms: C_10  and  C_11 
REMARK    5  A    between atoms: C_17  and  C_18 
REMARK    6  A    between atoms: C_27  and  N_28 
ROOT
HETATM    1  C   UNL     1     -44.068  56.607 -53.165  1.00  0.00     0.072 A 
HETATM    2  N   UNL     1     -44.510  56.057 -54.352  1.00  0.00    -0.274 N 
HETATM    3  H   UNL     1     -45.298  56.358 -54.917  1.00  0.00     0.189 HD
HETATM    4  N   UNL     1     -43.810  54.981 -54.762  1.00  0.00    -0.148 NA
HETATM    5  C   UNL     1     -42.908  54.849 -53.800  1.00  0.00     0.199 A 
HETATM    6  C   UNL     1     -42.982  55.825 -52.802  1.00  0.00     0.040 A 
HETATM    7  C   UNL     1     -42.015  55.817 -51.671  1.00  0.00     0.107 A 
HETATM    8  C   UNL     1     -41.126  54.580 -51.720  1.00  0.00     0.081 A 
HETATM    9  C   UNL     1     -40.269  54.367 -50.598  1.00  0.00     0.100 C 
HETATM   10  N   UNL     1     -39.578  54.207 -49.681  1.00  0.00    -0.191 NA
HETATM   11  C   UNL     1     -41.159  53.686 -52.742  1.00  0.00     0.140 A 
HETATM   12  O   UNL     1     -42.023  53.837 -53.836  1.00  0.00    -0.277 OA
ENDROOT
BRANCH   7  13
HETATM   13  C   UNL     1     -41.228  57.110 -51.767  1.00  0.00    -0.027 A 
HETATM   14  C   UNL     1     -40.737  57.610 -52.975  1.00  0.00     0.124 A 
HETATM   15  N   UNL     1     -39.987  58.729 -53.092  1.00  0.00    -0.273 NA
HETATM   16  C   UNL     1     -39.703  59.392 -51.952  1.00  0.00     0.116 A 
HETATM   17  C   UNL     1     -40.135  58.989 -50.701  1.00  0.00     0.020 A 
HETATM   18  C   UNL     1     -40.904  57.832 -50.609  1.00  0.00     0.011 A 
ENDBRANCH   7  13
BRANCH  11  19
HETATM   19  N   UNL     1     -40.380  52.554 -52.835  1.00  0.00    -0.282 NA
HETATM   20  H   UNL     1     -39.996  52.353 -53.755  1.00  0.00     0.126 HD
HETATM   21  H   UNL     1     -40.824  51.746 -52.402  1.00  0.00     0.126 HD
ENDBRANCH  11  19
BRANCH   1  22
HETATM   22  C   UNL     1     -44.715  57.758 -52.542  1.00  0.00    -0.007 A 
HETATM   23  C   UNL     1     -44.971  58.919 -53.278  1.00  0.00     0.016 A 
HETATM   24  C   UNL     1     -45.592  60.017 -52.677  1.00  0.00     0.037 A 
HETATM   25  C   UNL     1     -45.960  59.981 -51.332  1.00  0.00     0.069 A 
HETATM   26  C   UNL     1     -45.692  58.836 -50.586  1.00  0.00     0.037 A 
HETATM   27  C   UNL     1     -45.079  57.730 -51.189  1.00  0.00     0.016 A 
BRANCH  25  28
HETATM   28  O   UNL     1     -46.571  61.117 -50.879  1.00  0.00    -0.347 OA
BRANCH  28  29
HETATM   29  C   UNL     1     -45.737  62.125 -50.303  1.00  0.00     0.214 C 
BRANCH  29  30
HETATM   30  C   UNL     1     -45.783  62.026 -48.797  1.00  0.00    -0.034 A 
HETATM   31  C   UNL     1     -46.881  62.541 -48.091  1.00  0.00     0.009 A 
HETATM   32  C   UNL     1     -46.946  62.435 -46.700  1.00  0.00     0.001 A 
HETATM   33  C   UNL     1     -45.919  61.807 -46.000  1.00  0.00     0.000 A 
HETATM   34  C   UNL     1     -44.830  61.277 -46.689  1.00  0.00     0.001 A 
HETATM   35  C   UNL     1     -44.765  61.380 -48.079  1.00  0.00     0.009 A 
ENDBRANCH  29  30
ENDBRANCH  28  29
ENDBRANCH  25  28
ENDBRANCH   1  22
TORSDOF 6
ENDMDL
MODEL 7
REMARK VINA RESULT:      -8.2      4.419      5.840
REMARK  6 active torsions:
REMARK  status: ('A' for Active; 'I' for Inactive)
REMARK    1  A    between atoms: C_4  and  C_5 
REMARK    2  A    between atoms: C_5  and  O_6 
REMARK    3  A    between atoms: O_6  and  C_7 
REMARK    4  A    between atoms: C_10  and  C_11 
REMARK    5  A    between atoms: C_17  and  C_18 
REMARK    6  A    between atoms: C_27  and  N_28 
ROOT
HETATM    1  C   UNL     1     -44.275  58.501 -55.521  1.00  0.00     0.072 A 
HETATM    2  N   UNL     1     -44.519  59.702 -54.885  1.00  0.00    -0.274 N 
HETATM    3  H   UNL     1     -44.112  60.034 -54.016  1.00  0.00     0.189 HD
HETATM    4  N   UNL     1     -45.429  60.483 -55.501  1.00  0.00    -0.148 NA
HETATM    5  C   UNL     1     -45.769  59.747 -56.548  1.00  0.00     0.199 A 
HETATM    6  C   UNL     1     -45.084  58.532 -56.646  1.00  0.00     0.040 A 
HETATM    7  C   UNL     1     -45.346  57.613 -57.788  1.00  0.00     0.107 A 
HETATM    8  C   UNL     1     -46.497  58.123 -58.648  1.00  0.00     0.081 A 
HETATM    9  C   UNL     1     -46.959  57.247 -59.676  1.00  0.00     0.100 C 
HETATM   10  N   UNL     1     -47.323  56.527 -60.509  1.00  0.00    -0.191 NA
HETATM   11  C   UNL     1     -47.100  59.321 -58.439  1.00  0.00     0.140 A 
HETATM   12  O   UNL     1     -46.706  60.185 -57.408  1.00  0.00    -0.277 OA
ENDROOT
BRANCH   7  13
HETATM   13  C   UNL     1     -44.044  57.498 -58.557  1.00  0.00    -0.027 A 
HETATM   14  C   UNL     1     -43.365  58.607 -59.067  1.00  0.00     0.124 A 
HETATM   15  N   UNL     1     -42.232  58.538 -59.802  1.00  0.00    -0.273 NA
HETATM   16  C   UNL     1     -41.742  57.306 -60.051  1.00  0.00     0.116 A 
HETATM   17  C   UNL     1     -42.331  56.140 -59.597  1.00  0.00     0.020 A 
HETATM   18  C   UNL     1     -43.498  56.239 -58.844  1.00  0.00     0.011 A 
ENDBRANCH   7  13
BRANCH  11  19
HETATM   19  N   UNL     1     -48.142  59.828 -59.185  1.00  0.00    -0.282 NA
HETATM   20  H   UNL     1     -49.021  59.958 -58.690  1.00  0.00     0.126 HD
HETATM   21  H   UNL     1     -48.251  59.340 -60.072  1.00  0.00     0.126 HD
ENDBRANCH  11  19
BRANCH   1  22
HETATM   22  C   UNL     1     -43.346  57.505 -54.995  1.00  0.00    -0.007 A 
HETATM   23  C   UNL     1     -43.695  56.152 -54.958  1.00  0.00     0.016 A 
HETATM   24  C   UNL     1     -42.801  55.203 -54.455  1.00  0.00     0.037 A 
HETATM   25  C   UNL     1     -41.548  55.585 -53.974  1.00  0.00     0.069 A 
HETATM   26  C   UNL     1     -41.199  56.934 -53.991  1.00  0.00     0.037 A 
HETATM   27  C   UNL     1     -42.090  57.886 -54.504  1.00  0.00     0.016 A 
BRANCH  25  28
HETATM   28  O   UNL     1     -40.771  54.554 -53.527  1.00  0.00    -0.347 OA
BRANCH  28  29
HETATM   29  C   UNL     1     -40.472  53.507 -54.454  1.00  0.00     0.214 C 
BRANCH  29  30
HETATM   30  C   UNL     1     -40.172  52.232 -53.703  1.00  0.00    -0.034 A 
HETATM   31  C   UNL     1     -40.109  51.009 -54.389  1.00  0.00     0.009 A 
HETATM   32  C   UNL     1     -39.811  49.827 -53.709  1.00  0.00     0.001 A 
HETATM   33  C   UNL     1     -39.565  49.853 -52.339  1.00  0.00     0.000 A 
HETATM   34  C   UNL     1     -39.608  51.062 -51.647  1.00  0.00     0.001 A 
HETATM   35  C   UNL     1     -39.904  52.245 -52.326  1.00  0.00     0.009 A 
ENDBRANCH  29  30
ENDBRANCH  28  29
ENDBRANCH  25  28
ENDBRANCH   1  22
TORSDOF 6
ENDMDL
MODEL 8
REMARK VINA RESULT:      -8.1      3.972      5.939
REMARK  6 active torsions:
REMARK  status: ('A' for Active; 'I' for Inactive)
REMARK    1  A    between atoms: C_4  and  C_5 
REMARK    2  A    between atoms: C_5  and  O_6 
REMARK    3  A    between atoms: O_6  and  C_7 
REMARK    4  A    between atoms: C_10  and  C_11 
REMARK    5  A    between atoms: C_17  and  C_18 
REMARK    6  A    between atoms: C_27  and  N_28 
ROOT
HETATM    1  C   UNL     1     -42.984  55.705 -57.309  1.00  0.00     0.072 A 
HETATM    2  N   UNL     1     -43.838  55.081 -58.197  1.00  0.00    -0.274 N 
HETATM    3  H   UNL     1     -44.141  54.112 -58.183  1.00  0.00     0.189 HD
HETATM    4  N   UNL     1     -44.274  55.870 -59.198  1.00  0.00    -0.148 NA
HETATM    5  C   UNL     1     -43.671  57.019 -58.934  1.00  0.00     0.199 A 
HETATM    6  C   UNL     1     -42.887  57.007 -57.776  1.00  0.00     0.040 A 
HETATM    7  C   UNL     1     -42.170  58.237 -57.343  1.00  0.00     0.107 A 
HETATM    8  C   UNL     1     -42.311  59.347 -58.377  1.00  0.00     0.081 A 
HETATM    9  C   UNL     1     -41.530  60.522 -58.161  1.00  0.00     0.100 C 
HETATM   10  N   UNL     1     -40.891  61.471 -57.972  1.00  0.00    -0.191 NA
HETATM   11  C   UNL     1     -43.094  59.232 -59.481  1.00  0.00     0.140 A 
HETATM   12  O   UNL     1     -43.835  58.074 -59.752  1.00  0.00    -0.277 OA
ENDROOT
BRANCH   7  13
HETATM   13  C   UNL     1     -42.745  58.618 -55.991  1.00  0.00    -0.027 A 
HETATM   14  C   UNL     1     -44.099  58.904 -55.798  1.00  0.00     0.124 A 
HETATM   15  N   UNL     1     -44.637  59.298 -54.622  1.00  0.00    -0.273 NA
HETATM   16  C   UNL     1     -43.792  59.420 -53.577  1.00  0.00     0.116 A 
HETATM   17  C   UNL     1     -42.435  59.163 -53.654  1.00  0.00     0.020 A 
HETATM   18  C   UNL     1     -41.907  58.760 -54.877  1.00  0.00     0.011 A 
ENDBRANCH   7  13
BRANCH  11  19
HETATM   19  N   UNL     1     -43.255  60.203 -60.446  1.00  0.00    -0.282 NA
HETATM   20  H   UNL     1     -42.516  60.899 -60.505  1.00  0.00     0.126 HD
HETATM   21  H   UNL     1     -44.188  60.611 -60.427  1.00  0.00     0.126 HD
ENDBRANCH  11  19
BRANCH   1  22
HETATM   22  C   UNL     1     -42.381  55.011 -56.176  1.00  0.00    -0.007 A 
HETATM   23  C   UNL     1     -43.113  54.074 -55.440  1.00  0.00     0.016 A 
HETATM   24  C   UNL     1     -42.530  53.410 -54.357  1.00  0.00     0.037 A 
HETATM   25  C   UNL     1     -41.212  53.674 -53.984  1.00  0.00     0.069 A 
HETATM   26  C   UNL     1     -40.480  54.618 -54.700  1.00  0.00     0.037 A 
HETATM   27  C   UNL     1     -41.060  55.277 -55.792  1.00  0.00     0.016 A 
BRANCH  25  28
HETATM   28  O   UNL     1     -40.766  52.944 -52.918  1.00  0.00    -0.347 OA
BRANCH  28  29
HETATM   29  C   UNL     1     -40.516  53.648 -51.699  1.00  0.00     0.214 C 
BRANCH  29  30
HETATM   30  C   UNL     1     -41.707  54.510 -51.355  1.00  0.00    -0.034 A 
HETATM   31  C   UNL     1     -42.895  53.920 -50.895  1.00  0.00     0.009 A 
HETATM   32  C   UNL     1     -43.995  54.708 -50.554  1.00  0.00     0.001 A 
HETATM   33  C   UNL     1     -43.920  56.094 -50.660  1.00  0.00     0.000 A 
HETATM   34  C   UNL     1     -42.743  56.696 -51.099  1.00  0.00     0.001 A 
HETATM   35  C   UNL     1     -41.640  55.909 -51.439  1.00  0.00     0.009 A 
ENDBRANCH  29  30
ENDBRANCH  28  29
ENDBRANCH  25  28
ENDBRANCH   1  22
TORSDOF 6
ENDMDL
MODEL 9
REMARK VINA RESULT:      -7.8     17.372     20.668
REMARK  6 active torsions:
REMARK  status: ('A' for Active; 'I' for Inactive)
REMARK    1  A    between atoms: C_4  and  C_5 
REMARK    2  A    between atoms: C_5  and  O_6 
REMARK    3  A    between atoms: O_6  and  C_7 
REMARK    4  A    between atoms: C_10  and  C_11 
REMARK    5  A    between atoms: C_17  and  C_18 
REMARK    6  A    between atoms: C_27  and  N_28 
ROOT
HETATM    1  C   UNL     1     -34.584  41.110 -52.517  1.00  0.00     0.072 A 
HETATM    2  N   UNL     1     -35.127  42.372 -52.371  1.00  0.00    -0.274 N 
HETATM    3  H   UNL     1     -35.025  42.999 -51.579  1.00  0.00     0.189 HD
HETATM    4  N   UNL     1     -35.896  42.769 -53.404  1.00  0.00    -0.148 NA
HETATM    5  C   UNL     1     -35.840  41.725 -54.215  1.00  0.00     0.199 A 
HETATM    6  C   UNL     1     -35.032  40.679 -53.757  1.00  0.00     0.040 A 
HETATM    7  C   UNL     1     -34.856  39.452 -54.578  1.00  0.00     0.107 A 
HETATM    8  C   UNL     1     -35.755  39.481 -55.808  1.00  0.00     0.081 A 
HETATM    9  C   UNL     1     -35.805  38.287 -56.589  1.00  0.00     0.100 C 
HETATM   10  N   UNL     1     -35.835  37.311 -57.215  1.00  0.00    -0.191 NA
HETATM   11  C   UNL     1     -36.515  40.556 -56.141  1.00  0.00     0.140 A 
HETATM   12  O   UNL     1     -36.529  41.727 -55.371  1.00  0.00    -0.277 OA
ENDROOT
BRANCH   7  13
HETATM   13  C   UNL     1     -33.382  39.376 -54.930  1.00  0.00    -0.027 A 
HETATM   14  C   UNL     1     -32.747  40.320 -55.741  1.00  0.00     0.124 A 
HETATM   15  N   UNL     1     -31.451  40.256 -56.119  1.00  0.00    -0.273 NA
HETATM   16  C   UNL     1     -30.739  39.199 -55.674  1.00  0.00     0.116 A 
HETATM   17  C   UNL     1     -31.264  38.206 -54.868  1.00  0.00     0.020 A 
HETATM   18  C   UNL     1     -32.602  38.295 -54.495  1.00  0.00     0.011 A 
ENDBRANCH   7  13
BRANCH  11  19
HETATM   19  N   UNL     1     -37.345  40.635 -57.239  1.00  0.00    -0.282 NA
HETATM   20  H   UNL     1     -38.231  41.111 -57.093  1.00  0.00     0.126 HD
HETATM   21  H   UNL     1     -37.446  39.736 -57.708  1.00  0.00     0.126 HD
ENDBRANCH  11  19
BRANCH   1  22
HETATM   22  C   UNL     1     -33.748  40.489 -51.494  1.00  0.00    -0.007 A 
HETATM   23  C   UNL     1     -34.323  39.840 -50.398  1.00  0.00     0.016 A 
HETATM   24  C   UNL     1     -33.518  39.245 -49.423  1.00  0.00     0.037 A 
HETATM   25  C   UNL     1     -32.127  39.294 -49.519  1.00  0.00     0.069 A 
HETATM   26  C   UNL     1     -31.544  39.954 -50.599  1.00  0.00     0.037 A 
HETATM   27  C   UNL     1     -32.350  40.542 -51.582  1.00  0.00     0.016 A 
BRANCH  25  28
HETATM   28  O   UNL     1     -31.464  38.659 -48.506  1.00  0.00    -0.347 OA
BRANCH  28  29
HETATM   29  C   UNL     1     -30.900  39.477 -47.477  1.00  0.00     0.214 C 
BRANCH  29  30
HETATM   30  C   UNL     1     -31.327  38.960 -46.124  1.00  0.00    -0.034 A 
HETATM   31  C   UNL     1     -30.663  39.389 -44.965  1.00  0.00     0.009 A 
HETATM   32  C   UNL     1     -31.063  38.935 -43.707  1.00  0.00     0.001 A 
HETATM   33  C   UNL     1     -32.135  38.055 -43.591  1.00  0.00     0.000 A 
HETATM   34  C   UNL     1     -32.815  37.633 -44.732  1.00  0.00     0.001 A 
HETATM   35  C   UNL     1     -32.417  38.088 -45.991  1.00  0.00     0.009 A 
ENDBRANCH  29  30
ENDBRANCH  28  29
ENDBRANCH  25  28
ENDBRANCH   1  22
TORSDOF 6
ENDMDL
MODEL 10
REMARK VINA RESULT:      -7.8      4.760      8.352
REMARK  6 active torsions:
REMARK  status: ('A' for Active; 'I' for Inactive)
REMARK    1  A    between atoms: C_4  and  C_5 
REMARK    2  A    between atoms: C_5  and  O_6 
REMARK    3  A    between atoms: O_6  and  C_7 
REMARK    4  A    between atoms: C_10  and  C_11 
REMARK    5  A    between atoms: C_17  and  C_18 
REMARK    6  A    between atoms: C_27  and  N_28 
ROOT
HETATM    1  C   UNL     1     -41.685  55.081 -55.477  1.00  0.00     0.072 A 
HETATM    2  N   UNL     1     -40.467  54.500 -55.771  1.00  0.00    -0.274 N 
HETATM    3  H   UNL     1     -39.995  54.478 -56.669  1.00  0.00     0.189 HD
HETATM    4  N   UNL     1     -39.883  53.874 -54.729  1.00  0.00    -0.148 NA
HETATM    5  C   UNL     1     -40.764  54.064 -53.758  1.00  0.00     0.199 A 
HETATM    6  C   UNL     1     -41.880  54.819 -54.129  1.00  0.00     0.040 A 
HETATM    7  C   UNL     1     -42.939  55.133 -53.132  1.00  0.00     0.107 A 
HETATM    8  C   UNL     1     -42.681  54.413 -51.813  1.00  0.00     0.081 A 
HETATM    9  C   UNL     1     -43.712  54.496 -50.830  1.00  0.00     0.100 C 
HETATM   10  N   UNL     1     -44.557  54.572 -50.040  1.00  0.00    -0.191 NA
HETATM   11  C   UNL     1     -41.558  53.687 -51.577  1.00  0.00     0.140 A 
HETATM   12  O   UNL     1     -40.547  53.543 -52.537  1.00  0.00    -0.277 OA
ENDROOT
BRANCH   7  13
HETATM   13  C   UNL     1     -42.960  56.642 -52.983  1.00  0.00    -0.027 A 
HETATM   14  C   UNL     1     -41.842  57.379 -52.583  1.00  0.00     0.124 A 
HETATM   15  N   UNL     1     -41.838  58.717 -52.388  1.00  0.00    -0.273 NA
HETATM   16  C   UNL     1     -43.002  59.366 -52.598  1.00  0.00     0.116 A 
HETATM   17  C   UNL     1     -44.169  58.739 -52.996  1.00  0.00     0.020 A 
HETATM   18  C   UNL     1     -44.146  57.360 -53.187  1.00  0.00     0.011 A 
ENDBRANCH   7  13
BRANCH  11  19
HETATM   19  N   UNL     1     -41.275  53.018 -50.406  1.00  0.00    -0.282 NA
HETATM   20  H   UNL     1     -41.088  53.602 -49.594  1.00  0.00     0.126 HD
HETATM   21  H   UNL     1     -40.580  52.286 -50.541  1.00  0.00     0.126 HD
ENDBRANCH  11  19
BRANCH   1  22
HETATM   22  C   UNL     1     -42.487  55.779 -56.478  1.00  0.00    -0.007 A 
HETATM   23  C   UNL     1     -42.640  57.168 -56.428  1.00  0.00     0.016 A 
HETATM   24  C   UNL     1     -43.407  57.831 -57.390  1.00  0.00     0.037 A 
HETATM   25  C   UNL     1     -44.041  57.122 -58.411  1.00  0.00     0.069 A 
HETATM   26  C   UNL     1     -43.908  55.736 -58.458  1.00  0.00     0.037 A 
HETATM   27  C   UNL     1     -43.131  55.070 -57.501  1.00  0.00     0.016 A 
BRANCH  25  28
HETATM   28  O   UNL     1     -44.745  57.897 -59.290  1.00  0.00    -0.347 OA
BRANCH  28  29
HETATM   29  C   UNL     1     -46.119  58.151 -58.986  1.00  0.00     0.214 C 
BRANCH  29  30
HETATM   30  C   UNL     1     -46.955  57.985 -60.232  1.00  0.00    -0.034 A 
HETATM   31  C   UNL     1     -47.256  56.701 -60.713  1.00  0.00     0.009 A 
HETATM   32  C   UNL     1     -48.047  56.536 -61.851  1.00  0.00     0.001 A 
HETATM   33  C   UNL     1     -48.553  57.649 -62.518  1.00  0.00     0.000 A 
HETATM   34  C   UNL     1     -48.276  58.929 -62.043  1.00  0.00     0.001 A 
HETATM   35  C   UNL     1     -47.487  59.096 -60.903  1.00  0.00     0.009 A 
ENDBRANCH  29  30
ENDBRANCH  28  29
ENDBRANCH  25  28
ENDBRANCH   1  22
TORSDOF 6
ENDMDL
