MODEL 1
REMARK VINA RESULT:      -7.8      0.000      0.000
REMARK  6 active torsions:
REMARK  status: ('A' for Active; 'I' for Inactive)
REMARK    1  A    between atoms: O_2  and  C_3 
REMARK    2  A    between atoms: C_3  and  C_4 
REMARK    3  A    between atoms: C_4  and  N_5 
REMARK       I    between atoms: N_5  and  C_6 
REMARK    4  A    between atoms: C_6  and  C_7 
REMARK    5  A    between atoms: C_12  and  C_13 
REMARK    6  A    between atoms: C_21  and  C_22 
ROOT
HETATM    1  C   UNL     1     -42.973  58.788 -52.068  1.00  0.00     0.170 A 
HETATM    2  N   UNL     1     -43.740  58.180 -53.009  1.00  0.00    -0.163 NA
HETATM    3  N   UNL     1     -43.063  57.057 -53.293  1.00  0.00    -0.238 N 
HETATM    4  C   UNL     1     -41.930  56.878 -52.548  1.00  0.00     0.145 A 
HETATM    5  N   UNL     1     -41.172  55.759 -52.684  1.00  0.00    -0.365 N 
HETATM    6  C   UNL     1     -41.403  54.833 -53.788  1.00  0.00     0.118 C 
HETATM    7  C   UNL     1     -42.915  54.731 -54.061  1.00  0.00     0.066 C 
HETATM    8  C   UNL     1     -43.532  56.122 -54.300  1.00  0.00     0.221 C 
HETATM    9  C   UNL     1     -41.835  57.993 -51.747  1.00  0.00     0.115 A 
HETATM   10 CL   UNL     1     -40.611  58.329 -50.621  1.00  0.00    -0.077 Cl
HETATM   11  H   UNL     1     -40.235  55.736 -52.279  1.00  0.00     0.162 HD
ENDROOT
BRANCH   1  12
HETATM   12  C   UNL     1     -43.357  60.097 -51.514  1.00  0.00     0.273 C 
HETATM   13  N   UNL     1     -43.845  60.017 -50.229  1.00  0.00    -0.353 N 
HETATM   14  H   UNL     1     -43.740  59.116 -49.769  1.00  0.00     0.162 HD
HETATM   15  O   UNL     1     -43.256  61.154 -52.128  1.00  0.00    -0.266 OA
BRANCH  13  16
HETATM   16  C   UNL     1     -44.118  61.183 -49.415  1.00  0.00     0.149 C 
BRANCH  16  17
HETATM   17  C   UNL     1     -45.600  61.282 -49.063  1.00  0.00     0.186 C 
BRANCH  17  18
HETATM   18  O   UNL     1     -45.965  60.163 -48.249  1.00  0.00    -0.394 OA
HETATM   19  C   UNL     1     -45.899  60.483 -46.864  1.00  0.00     0.201 C 
ENDBRANCH  17  18
ENDBRANCH  16  17
ENDBRANCH  13  16
ENDBRANCH   1  12
BRANCH   8  20
HETATM   20  C   UNL     1     -43.216  56.655 -55.682  1.00  0.00     0.409 C 
HETATM   21  F   UNL     1     -42.089  57.399 -55.713  1.00  0.00    -0.169 F 
HETATM   22  F   UNL     1     -43.020  55.621 -56.542  1.00  0.00    -0.169 F 
HETATM   23  F   UNL     1     -44.216  57.398 -56.199  1.00  0.00    -0.169 F 
ENDBRANCH   8  20
BRANCH   6  24
HETATM   24  C   UNL     1     -40.819  53.468 -53.465  1.00  0.00    -0.035 A 
HETATM   25  C   UNL     1     -40.353  53.150 -52.178  1.00  0.00     0.011 A 
HETATM   26  C   UNL     1     -39.840  51.881 -51.899  1.00  0.00     0.024 A 
HETATM   27  C   UNL     1     -39.793  50.916 -52.903  1.00  0.00     0.034 A 
HETATM   28 CL   UNL     1     -39.164  49.352 -52.560  1.00  0.00    -0.084 Cl
HETATM   29  C   UNL     1     -40.257  51.210 -54.182  1.00  0.00     0.024 A 
HETATM   30  C   UNL     1     -40.769  52.480 -54.463  1.00  0.00     0.011 A 
ENDBRANCH   6  24
TORSDOF 6
ENDMDL
MODEL 2
REMARK VINA RESULT:      -7.5      0.852      1.462
REMARK  6 active torsions:
REMARK  status: ('A' for Active; 'I' for Inactive)
REMARK    1  A    between atoms: O_2  and  C_3 
REMARK    2  A    between atoms: C_3  and  C_4 
REMARK    3  A    between atoms: C_4  and  N_5 
REMARK       I    between atoms: N_5  and  C_6 
REMARK    4  A    between atoms: C_6  and  C_7 
REMARK    5  A    between atoms: C_12  and  C_13 
REMARK    6  A    between atoms: C_21  and  C_22 
ROOT
HETATM    1  C   UNL     1     -42.845  58.967 -51.488  1.00  0.00     0.170 A 
HETATM    2  N   UNL     1     -43.765  58.399 -52.309  1.00  0.00    -0.163 NA
HETATM    3  N   UNL     1     -43.163  57.275 -52.729  1.00  0.00    -0.238 N 
HETATM    4  C   UNL     1     -41.929  57.059 -52.183  1.00  0.00     0.145 A 
HETATM    5  N   UNL     1     -41.223  55.934 -52.470  1.00  0.00    -0.365 N 
HETATM    6  C   UNL     1     -41.646  55.045 -53.547  1.00  0.00     0.118 C 
HETATM    7  C   UNL     1     -43.184  54.973 -53.575  1.00  0.00     0.066 C 
HETATM    8  C   UNL     1     -43.806  56.378 -53.674  1.00  0.00     0.221 C 
HETATM    9  C   UNL     1     -41.685  58.147 -51.377  1.00  0.00     0.115 A 
HETATM   10 CL   UNL     1     -40.290  58.432 -50.455  1.00  0.00    -0.077 Cl
HETATM   11  H   UNL     1     -40.234  55.886 -52.222  1.00  0.00     0.162 HD
ENDROOT
BRANCH   1  12
HETATM   12  C   UNL     1     -43.111  60.264 -50.843  1.00  0.00     0.273 C 
HETATM   13  N   UNL     1     -44.139  60.212 -49.928  1.00  0.00    -0.353 N 
HETATM   14  H   UNL     1     -44.479  59.281 -49.695  1.00  0.00     0.162 HD
HETATM   15  O   UNL     1     -42.486  61.291 -51.091  1.00  0.00    -0.266 OA
BRANCH  13  16
HETATM   16  C   UNL     1     -44.464  61.310 -49.043  1.00  0.00     0.149 C 
BRANCH  16  17
HETATM   17  C   UNL     1     -45.841  61.890 -49.357  1.00  0.00     0.186 C 
BRANCH  17  18
HETATM   18  O   UNL     1     -46.689  61.729 -48.214  1.00  0.00    -0.394 OA
HETATM   19  C   UNL     1     -47.499  62.879 -48.002  1.00  0.00     0.201 C 
ENDBRANCH  17  18
ENDBRANCH  16  17
ENDBRANCH  13  16
ENDBRANCH   1  12
BRANCH   8  20
HETATM   20  C   UNL     1     -43.706  56.948 -55.073  1.00  0.00     0.409 C 
HETATM   21  F   UNL     1     -44.779  57.694 -55.416  1.00  0.00    -0.169 F 
HETATM   22  F   UNL     1     -42.624  57.766 -55.162  1.00  0.00    -0.169 F 
HETATM   23  F   UNL     1     -43.545  55.998 -56.017  1.00  0.00    -0.169 F 
ENDBRANCH   8  20
BRANCH   6  24
HETATM   24  C   UNL     1     -41.043  53.663 -53.361  1.00  0.00    -0.035 A 
HETATM   25  C   UNL     1     -40.941  52.753 -54.425  1.00  0.00     0.011 A 
HETATM   26  C   UNL     1     -40.362  51.495 -54.236  1.00  0.00     0.024 A 
HETATM   27  C   UNL     1     -39.873  51.140 -52.981  1.00  0.00     0.034 A 
HETATM   28 CL   UNL     1     -39.158  49.593 -52.746  1.00  0.00    -0.084 Cl
HETATM   29  C   UNL     1     -39.958  52.031 -51.915  1.00  0.00     0.024 A 
HETATM   30  C   UNL     1     -40.540  53.288 -52.103  1.00  0.00     0.011 A 
ENDBRANCH   6  24
TORSDOF 6
ENDMDL
MODEL 3
REMARK VINA RESULT:      -7.2      3.771      5.747
REMARK  6 active torsions:
REMARK  status: ('A' for Active; 'I' for Inactive)
REMARK    1  A    between atoms: O_2  and  C_3 
REMARK    2  A    between atoms: C_3  and  C_4 
REMARK    3  A    between atoms: C_4  and  N_5 
REMARK       I    between atoms: N_5  and  C_6 
REMARK    4  A    between atoms: C_6  and  C_7 
REMARK    5  A    between atoms: C_12  and  C_13 
REMARK    6  A    between atoms: C_21  and  C_22 
ROOT
HETATM    1  C   UNL     1     -42.576  58.134 -56.287  1.00  0.00     0.170 A 
HETATM    2  N   UNL     1     -42.206  58.411 -55.010  1.00  0.00    -0.163 NA
HETATM    3  N   UNL     1     -42.022  57.199 -54.464  1.00  0.00    -0.238 N 
HETATM    4  C   UNL     1     -42.198  56.157 -55.331  1.00  0.00     0.145 A 
HETATM    5  N   UNL     1     -41.990  54.875 -54.936  1.00  0.00    -0.365 N 
HETATM    6  C   UNL     1     -41.810  54.551 -53.524  1.00  0.00     0.118 C 
HETATM    7  C   UNL     1     -40.998  55.668 -52.844  1.00  0.00     0.066 C 
HETATM    8  C   UNL     1     -41.649  57.045 -53.068  1.00  0.00     0.221 C 
HETATM    9  C   UNL     1     -42.571  56.730 -56.525  1.00  0.00     0.115 A 
HETATM   10 CL   UNL     1     -42.940  55.915 -57.967  1.00  0.00    -0.077 Cl
HETATM   11  H   UNL     1     -42.321  54.108 -55.525  1.00  0.00     0.162 HD
ENDROOT
BRANCH   1  12
HETATM   12  C   UNL     1     -42.916  59.218 -57.223  1.00  0.00     0.273 C 
HETATM   13  N   UNL     1     -41.816  59.743 -57.864  1.00  0.00    -0.353 N 
HETATM   14  H   UNL     1     -40.944  59.233 -57.740  1.00  0.00     0.162 HD
HETATM   15  O   UNL     1     -44.059  59.619 -57.419  1.00  0.00    -0.266 OA
BRANCH  13  16
HETATM   16  C   UNL     1     -41.916  60.689 -58.956  1.00  0.00     0.149 C 
BRANCH  16  17
HETATM   17  C   UNL     1     -41.477  62.087 -58.524  1.00  0.00     0.186 C 
BRANCH  17  18
HETATM   18  O   UNL     1     -40.050  62.115 -58.407  1.00  0.00    -0.394 OA
HETATM   19  C   UNL     1     -39.458  62.879 -59.451  1.00  0.00     0.201 C 
ENDBRANCH  17  18
ENDBRANCH  16  17
ENDBRANCH  13  16
ENDBRANCH   1  12
BRANCH   8  20
HETATM   20  C   UNL     1     -42.863  57.251 -52.187  1.00  0.00     0.409 C 
HETATM   21  F   UNL     1     -42.792  56.568 -51.024  1.00  0.00    -0.169 F 
HETATM   22  F   UNL     1     -42.976  58.565 -51.856  1.00  0.00    -0.169 F 
HETATM   23  F   UNL     1     -44.018  56.911 -52.797  1.00  0.00    -0.169 F 
ENDBRANCH   8  20
BRANCH   6  24
HETATM   24  C   UNL     1     -41.115  53.208 -53.374  1.00  0.00    -0.035 A 
HETATM   25  C   UNL     1     -41.094  52.267 -54.416  1.00  0.00     0.011 A 
HETATM   26  C   UNL     1     -40.430  51.047 -54.263  1.00  0.00     0.024 A 
HETATM   27  C   UNL     1     -39.774  50.761 -53.068  1.00  0.00     0.034 A 
HETATM   28 CL   UNL     1     -38.953  49.261 -52.879  1.00  0.00    -0.084 Cl
HETATM   29  C   UNL     1     -39.777  51.684 -52.026  1.00  0.00     0.024 A 
HETATM   30  C   UNL     1     -40.443  52.903 -52.177  1.00  0.00     0.011 A 
ENDBRANCH   6  24
TORSDOF 6
ENDMDL
MODEL 4
REMARK VINA RESULT:      -7.2      2.466      3.830
REMARK  6 active torsions:
REMARK  status: ('A' for Active; 'I' for Inactive)
REMARK    1  A    between atoms: O_2  and  C_3 
REMARK    2  A    between atoms: C_3  and  C_4 
REMARK    3  A    between atoms: C_4  and  N_5 
REMARK       I    between atoms: N_5  and  C_6 
REMARK    4  A    between atoms: C_6  and  C_7 
REMARK    5  A    between atoms: C_12  and  C_13 
REMARK    6  A    between atoms: C_21  and  C_22 
ROOT
HETATM    1  C   UNL     1     -42.417  59.243 -53.545  1.00  0.00     0.170 A 
HETATM    2  N   UNL     1     -43.284  58.454 -54.230  1.00  0.00    -0.163 NA
HETATM    3  N   UNL     1     -42.703  57.245 -54.199  1.00  0.00    -0.238 N 
HETATM    4  C   UNL     1     -41.538  57.197 -53.486  1.00  0.00     0.145 A 
HETATM    5  N   UNL     1     -40.866  56.028 -53.318  1.00  0.00    -0.365 N 
HETATM    6  C   UNL     1     -41.231  54.843 -54.088  1.00  0.00     0.118 C 
HETATM    7  C   UNL     1     -42.762  54.793 -54.252  1.00  0.00     0.066 C 
HETATM    8  C   UNL     1     -43.300  56.099 -54.864  1.00  0.00     0.221 C 
HETATM    9  C   UNL     1     -41.316  58.485 -53.054  1.00  0.00     0.115 A 
HETATM   10 CL   UNL     1     -40.000  59.031 -52.133  1.00  0.00    -0.077 Cl
HETATM   11  H   UNL     1     -39.908  56.046 -52.965  1.00  0.00     0.162 HD
ENDROOT
BRANCH   1  12
HETATM   12  C   UNL     1     -42.676  60.684 -53.387  1.00  0.00     0.273 C 
HETATM   13  N   UNL     1     -42.769  61.352 -54.588  1.00  0.00    -0.353 N 
HETATM   14  H   UNL     1     -42.806  60.766 -55.419  1.00  0.00     0.162 HD
HETATM   15  O   UNL     1     -42.796  61.241 -52.300  1.00  0.00    -0.266 OA
BRANCH  13  16
HETATM   16  C   UNL     1     -43.194  62.731 -54.692  1.00  0.00     0.149 C 
BRANCH  16  17
HETATM   17  C   UNL     1     -43.674  63.061 -56.104  1.00  0.00     0.186 C 
BRANCH  17  18
HETATM   18  O   UNL     1     -42.847  64.093 -56.652  1.00  0.00    -0.394 OA
HETATM   19  C   UNL     1     -42.150  63.643 -57.808  1.00  0.00     0.201 C 
ENDBRANCH  17  18
ENDBRANCH  16  17
ENDBRANCH  13  16
ENDBRANCH   1  12
BRANCH   8  20
HETATM   20  C   UNL     1     -43.041  56.179 -56.354  1.00  0.00     0.409 C 
HETATM   21  F   UNL     1     -44.002  56.855 -57.020  1.00  0.00    -0.169 F 
HETATM   22  F   UNL     1     -41.875  56.838 -56.585  1.00  0.00    -0.169 F 
HETATM   23  F   UNL     1     -42.914  54.965 -56.930  1.00  0.00    -0.169 F 
ENDBRANCH   8  20
BRANCH   6  24
HETATM   24  C   UNL     1     -40.719  53.588 -53.402  1.00  0.00    -0.035 A 
HETATM   25  C   UNL     1     -40.326  52.455 -54.134  1.00  0.00     0.011 A 
HETATM   26  C   UNL     1     -39.837  51.320 -53.484  1.00  0.00     0.024 A 
HETATM   27  C   UNL     1     -39.729  51.309 -52.095  1.00  0.00     0.034 A 
HETATM   28 CL   UNL     1     -39.124  49.914 -51.293  1.00  0.00    -0.084 Cl
HETATM   29  C   UNL     1     -40.106  52.425 -51.352  1.00  0.00     0.024 A 
HETATM   30  C   UNL     1     -40.598  53.560 -52.002  1.00  0.00     0.011 A 
ENDBRANCH   6  24
TORSDOF 6
ENDMDL
MODEL 5
REMARK VINA RESULT:      -7.1      5.340      8.858
REMARK  6 active torsions:
REMARK  status: ('A' for Active; 'I' for Inactive)
REMARK    1  A    between atoms: O_2  and  C_3 
REMARK    2  A    between atoms: C_3  and  C_4 
REMARK    3  A    between atoms: C_4  and  N_5 
REMARK       I    between atoms: N_5  and  C_6 
REMARK    4  A    between atoms: C_6  and  C_7 
REMARK    5  A    between atoms: C_12  and  C_13 
REMARK    6  A    between atoms: C_21  and  C_22 
ROOT
HETATM    1  C   UNL     1     -42.765  55.615 -55.865  1.00  0.00     0.170 A 
HETATM    2  N   UNL     1     -42.777  55.102 -57.122  1.00  0.00    -0.163 NA
HETATM    3  N   UNL     1     -42.747  56.189 -57.908  1.00  0.00    -0.238 N 
HETATM    4  C   UNL     1     -42.659  57.373 -57.229  1.00  0.00     0.145 A 
HETATM    5  N   UNL     1     -42.562  58.554 -57.892  1.00  0.00    -0.365 N 
HETATM    6  C   UNL     1     -42.790  58.621 -59.332  1.00  0.00     0.118 C 
HETATM    7  C   UNL     1     -42.215  57.357 -59.998  1.00  0.00     0.066 C 
HETATM    8  C   UNL     1     -42.787  56.080 -59.356  1.00  0.00     0.221 C 
HETATM    9  C   UNL     1     -42.680  57.036 -55.895  1.00  0.00     0.115 A 
HETATM   10 CL   UNL     1     -42.616  58.107 -54.580  1.00  0.00    -0.077 Cl
HETATM   11  H   UNL     1     -42.705  59.429 -57.383  1.00  0.00     0.162 HD
ENDROOT
BRANCH   1  12
HETATM   12  C   UNL     1     -42.832  54.730 -54.690  1.00  0.00     0.273 C 
HETATM   13  N   UNL     1     -41.669  54.023 -54.478  1.00  0.00    -0.353 N 
HETATM   14  H   UNL     1     -40.870  54.303 -55.044  1.00  0.00     0.162 HD
HETATM   15  O   UNL     1     -43.819  54.625 -53.969  1.00  0.00    -0.266 OA
BRANCH  13  16
HETATM   16  C   UNL     1     -41.433  53.230 -53.291  1.00  0.00     0.149 C 
BRANCH  16  17
HETATM   17  C   UNL     1     -40.232  52.303 -53.469  1.00  0.00     0.186 C 
BRANCH  17  18
HETATM   18  O   UNL     1     -40.520  51.355 -54.502  1.00  0.00    -0.394 OA
HETATM   19  C   UNL     1     -39.894  50.103 -54.248  1.00  0.00     0.201 C 
ENDBRANCH  17  18
ENDBRANCH  16  17
ENDBRANCH  13  16
ENDBRANCH   1  12
BRANCH   8  20
HETATM   20  C   UNL     1     -44.203  55.799 -59.810  1.00  0.00     0.409 C 
HETATM   21  F   UNL     1     -44.436  56.189 -61.082  1.00  0.00    -0.169 F 
HETATM   22  F   UNL     1     -44.445  54.462 -59.766  1.00  0.00    -0.169 F 
HETATM   23  F   UNL     1     -45.132  56.381 -59.023  1.00  0.00    -0.169 F 
ENDBRANCH   8  20
BRANCH   6  24
HETATM   24  C   UNL     1     -42.156  59.874 -59.911  1.00  0.00    -0.035 A 
HETATM   25  C   UNL     1     -42.163  60.136 -61.291  1.00  0.00     0.011 A 
HETATM   26  C   UNL     1     -41.593  61.305 -61.799  1.00  0.00     0.024 A 
HETATM   27  C   UNL     1     -41.016  62.229 -60.930  1.00  0.00     0.034 A 
HETATM   28 CL   UNL     1     -40.317  63.671 -61.553  1.00  0.00    -0.084 Cl
HETATM   29  C   UNL     1     -41.006  61.991 -59.558  1.00  0.00     0.024 A 
HETATM   30  C   UNL     1     -41.573  60.820 -59.050  1.00  0.00     0.011 A 
ENDBRANCH   6  24
TORSDOF 6
ENDMDL
MODEL 6
REMARK VINA RESULT:      -7.0      3.613      5.421
REMARK  6 active torsions:
REMARK  status: ('A' for Active; 'I' for Inactive)
REMARK    1  A    between atoms: O_2  and  C_3 
REMARK    2  A    between atoms: C_3  and  C_4 
REMARK    3  A    between atoms: C_4  and  N_5 
REMARK       I    between atoms: N_5  and  C_6 
REMARK    4  A    between atoms: C_6  and  C_7 
REMARK    5  A    between atoms: C_12  and  C_13 
REMARK    6  A    between atoms: C_21  and  C_22 
ROOT
HETATM    1  C   UNL     1     -42.299  58.687 -55.684  1.00  0.00     0.170 A 
HETATM    2  N   UNL     1     -41.979  58.826 -54.372  1.00  0.00    -0.163 NA
HETATM    3  N   UNL     1     -41.859  57.562 -53.939  1.00  0.00    -0.238 N 
HETATM    4  C   UNL     1     -42.028  56.615 -54.911  1.00  0.00     0.145 A 
HETATM    5  N   UNL     1     -41.879  55.294 -54.635  1.00  0.00    -0.365 N 
HETATM    6  C   UNL     1     -41.774  54.829 -53.255  1.00  0.00     0.118 C 
HETATM    7  C   UNL     1     -40.959  55.846 -52.435  1.00  0.00     0.066 C 
HETATM    8  C   UNL     1     -41.555  57.261 -52.551  1.00  0.00     0.221 C 
HETATM    9  C   UNL     1     -42.327  57.313 -56.059  1.00  0.00     0.115 A 
HETATM   10 CL   UNL     1     -42.656  56.654 -57.587  1.00  0.00    -0.077 Cl
HETATM   11  H   UNL     1     -42.206  54.600 -55.309  1.00  0.00     0.162 HD
ENDROOT
BRANCH   1  12
HETATM   12  C   UNL     1     -42.561  59.867 -56.524  1.00  0.00     0.273 C 
HETATM   13  N   UNL     1     -43.853  59.914 -57.002  1.00  0.00    -0.353 N 
HETATM   14  H   UNL     1     -44.498  59.236 -56.603  1.00  0.00     0.162 HD
HETATM   15  O   UNL     1     -41.722  60.725 -56.779  1.00  0.00    -0.266 OA
BRANCH  13  16
HETATM   16  C   UNL     1     -44.396  61.062 -57.697  1.00  0.00     0.149 C 
BRANCH  16  17
HETATM   17  C   UNL     1     -44.859  60.693 -59.104  1.00  0.00     0.186 C 
BRANCH  17  18
HETATM   18  O   UNL     1     -44.728  59.279 -59.286  1.00  0.00    -0.394 OA
HETATM   19  C   UNL     1     -43.994  58.972 -60.465  1.00  0.00     0.201 C 
ENDBRANCH  17  18
ENDBRANCH  16  17
ENDBRANCH  13  16
ENDBRANCH   1  12
BRANCH   8  20
HETATM   20  C   UNL     1     -42.802  57.425 -51.707  1.00  0.00     0.409 C 
HETATM   21  F   UNL     1     -43.937  57.150 -52.385  1.00  0.00    -0.169 F 
HETATM   22  F   UNL     1     -42.763  56.565 -50.655  1.00  0.00    -0.169 F 
HETATM   23  F   UNL     1     -42.922  58.663 -51.184  1.00  0.00    -0.169 F 
ENDBRANCH   8  20
BRANCH   6  24
HETATM   24  C   UNL     1     -41.129  53.454 -53.207  1.00  0.00    -0.035 A 
HETATM   25  C   UNL     1     -41.144  52.593 -54.317  1.00  0.00     0.011 A 
HETATM   26  C   UNL     1     -40.526  51.342 -54.257  1.00  0.00     0.024 A 
HETATM   27  C   UNL     1     -39.881  50.943 -53.088  1.00  0.00     0.034 A 
HETATM   28 CL   UNL     1     -39.116  49.404 -53.014  1.00  0.00    -0.084 Cl
HETATM   29  C   UNL     1     -39.849  51.786 -51.981  1.00  0.00     0.024 A 
HETATM   30  C   UNL     1     -40.469  53.036 -52.039  1.00  0.00     0.011 A 
ENDBRANCH   6  24
TORSDOF 6
ENDMDL
MODEL 7
REMARK VINA RESULT:      -6.9      3.523      8.252
REMARK  6 active torsions:
REMARK  status: ('A' for Active; 'I' for Inactive)
REMARK    1  A    between atoms: O_2  and  C_3 
REMARK    2  A    between atoms: C_3  and  C_4 
REMARK    3  A    between atoms: C_4  and  N_5 
REMARK       I    between atoms: N_5  and  C_6 
REMARK    4  A    between atoms: C_6  and  C_7 
REMARK    5  A    between atoms: C_12  and  C_13 
REMARK    6  A    between atoms: C_21  and  C_22 
ROOT
HETATM    1  C   UNL     1     -41.026  54.800 -52.045  1.00  0.00     0.170 A 
HETATM    2  N   UNL     1     -41.255  55.478 -53.199  1.00  0.00    -0.163 NA
HETATM    3  N   UNL     1     -41.968  56.544 -52.805  1.00  0.00    -0.238 N 
HETATM    4  C   UNL     1     -42.166  56.621 -51.455  1.00  0.00     0.145 A 
HETATM    5  N   UNL     1     -42.821  57.675 -50.902  1.00  0.00    -0.365 N 
HETATM    6  C   UNL     1     -43.540  58.628 -51.743  1.00  0.00     0.118 C 
HETATM    7  C   UNL     1     -42.752  58.856 -53.045  1.00  0.00     0.066 C 
HETATM    8  C   UNL     1     -42.458  57.523 -53.759  1.00  0.00     0.221 C 
HETATM    9  C   UNL     1     -41.575  55.495 -50.929  1.00  0.00     0.115 A 
HETATM   10 CL   UNL     1     -41.523  55.049 -49.293  1.00  0.00    -0.077 Cl
HETATM   11  H   UNL     1     -43.137  57.617 -49.933  1.00  0.00     0.162 HD
ENDROOT
BRANCH   1  12
HETATM   12  C   UNL     1     -40.295  53.522 -52.054  1.00  0.00     0.273 C 
HETATM   13  N   UNL     1     -40.295  52.909 -53.288  1.00  0.00    -0.353 N 
HETATM   14  H   UNL     1     -40.651  53.467 -54.061  1.00  0.00     0.162 HD
HETATM   15  O   UNL     1     -39.742  53.044 -51.069  1.00  0.00    -0.266 OA
BRANCH  13  16
HETATM   16  C   UNL     1     -39.496  51.740 -53.587  1.00  0.00     0.149 C 
BRANCH  16  17
HETATM   17  C   UNL     1     -40.313  50.680 -54.323  1.00  0.00     0.186 C 
BRANCH  17  18
HETATM   18  O   UNL     1     -39.923  49.382 -53.861  1.00  0.00    -0.394 OA
HETATM   19  C   UNL     1     -39.604  49.399 -52.475  1.00  0.00     0.201 C 
ENDBRANCH  17  18
ENDBRANCH  16  17
ENDBRANCH  13  16
ENDBRANCH   1  12
BRANCH   8  20
HETATM   20  C   UNL     1     -43.677  56.979 -54.473  1.00  0.00     0.409 C 
HETATM   21  F   UNL     1     -44.396  56.126 -53.711  1.00  0.00    -0.169 F 
HETATM   22  F   UNL     1     -44.512  57.999 -54.804  1.00  0.00    -0.169 F 
HETATM   23  F   UNL     1     -43.372  56.346 -55.625  1.00  0.00    -0.169 F 
ENDBRANCH   8  20
BRANCH   6  24
HETATM   24  C   UNL     1     -43.749  59.936 -51.000  1.00  0.00    -0.035 A 
HETATM   25  C   UNL     1     -44.906  60.178 -50.241  1.00  0.00     0.011 A 
HETATM   26  C   UNL     1     -45.067  61.380 -49.549  1.00  0.00     0.024 A 
HETATM   27  C   UNL     1     -44.069  62.350 -49.603  1.00  0.00     0.034 A 
HETATM   28 CL   UNL     1     -44.264  63.830 -48.748  1.00  0.00    -0.084 Cl
HETATM   29  C   UNL     1     -42.911  62.126 -50.343  1.00  0.00     0.024 A 
HETATM   30  C   UNL     1     -42.751  60.925 -51.038  1.00  0.00     0.011 A 
ENDBRANCH   6  24
TORSDOF 6
ENDMDL
MODEL 8
REMARK VINA RESULT:      -6.6      4.132      7.808
REMARK  6 active torsions:
REMARK  status: ('A' for Active; 'I' for Inactive)
REMARK    1  A    between atoms: O_2  and  C_3 
REMARK    2  A    between atoms: C_3  and  C_4 
REMARK    3  A    between atoms: C_4  and  N_5 
REMARK       I    between atoms: N_5  and  C_6 
REMARK    4  A    between atoms: C_6  and  C_7 
REMARK    5  A    between atoms: C_12  and  C_13 
REMARK    6  A    between atoms: C_21  and  C_22 
ROOT
HETATM    1  C   UNL     1     -40.739  54.625 -52.158  1.00  0.00     0.170 A 
HETATM    2  N   UNL     1     -41.313  55.757 -51.676  1.00  0.00    -0.163 NA
HETATM    3  N   UNL     1     -41.674  56.425 -52.783  1.00  0.00    -0.238 N 
HETATM    4  C   UNL     1     -41.415  55.763 -53.950  1.00  0.00     0.145 A 
HETATM    5  N   UNL     1     -41.777  56.289 -55.149  1.00  0.00    -0.365 N 
HETATM    6  C   UNL     1     -42.230  57.673 -55.248  1.00  0.00     0.118 C 
HETATM    7  C   UNL     1     -43.074  58.024 -54.009  1.00  0.00     0.066 C 
HETATM    8  C   UNL     1     -42.301  57.733 -52.709  1.00  0.00     0.221 C 
HETATM    9  C   UNL     1     -40.796  54.591 -53.581  1.00  0.00     0.115 A 
HETATM   10 CL   UNL     1     -40.229  53.375 -54.620  1.00  0.00    -0.077 Cl
HETATM   11  H   UNL     1     -41.399  55.887 -56.008  1.00  0.00     0.162 HD
ENDROOT
BRANCH   1  12
HETATM   12  C   UNL     1     -40.163  53.625 -51.244  1.00  0.00     0.273 C 
HETATM   13  N   UNL     1     -40.459  52.329 -51.605  1.00  0.00    -0.353 N 
HETATM   14  H   UNL     1     -40.892  52.210 -52.518  1.00  0.00     0.162 HD
HETATM   15  O   UNL     1     -39.489  53.908 -50.259  1.00  0.00    -0.266 OA
BRANCH  13  16
HETATM   16  C   UNL     1     -39.859  51.176 -50.967  1.00  0.00     0.149 C 
BRANCH  16  17
HETATM   17  C   UNL     1     -39.545  50.079 -51.982  1.00  0.00     0.186 C 
BRANCH  17  18
HETATM   18  O   UNL     1     -39.409  50.666 -53.281  1.00  0.00    -0.394 OA
HETATM   19  C   UNL     1     -39.863  49.785 -54.300  1.00  0.00     0.201 C 
ENDBRANCH  17  18
ENDBRANCH  16  17
ENDBRANCH  13  16
ENDBRANCH   1  12
BRANCH   8  20
HETATM   20  C   UNL     1     -41.254  58.788 -52.420  1.00  0.00     0.409 C 
HETATM   21  F   UNL     1     -41.598  60.011 -52.880  1.00  0.00    -0.169 F 
HETATM   22  F   UNL     1     -41.084  58.915 -51.078  1.00  0.00    -0.169 F 
HETATM   23  F   UNL     1     -40.044  58.480 -52.932  1.00  0.00    -0.169 F 
ENDBRANCH   8  20
BRANCH   6  24
HETATM   24  C   UNL     1     -43.030  57.878 -56.523  1.00  0.00    -0.035 A 
HETATM   25  C   UNL     1     -44.434  57.821 -56.532  1.00  0.00     0.011 A 
HETATM   26  C   UNL     1     -45.149  58.035 -57.712  1.00  0.00     0.024 A 
HETATM   27  C   UNL     1     -44.468  58.315 -58.894  1.00  0.00     0.034 A 
HETATM   28 CL   UNL     1     -45.347  58.582 -60.348  1.00  0.00    -0.084 Cl
HETATM   29  C   UNL     1     -43.077  58.385 -58.904  1.00  0.00     0.024 A 
HETATM   30  C   UNL     1     -42.361  58.168 -57.725  1.00  0.00     0.011 A 
ENDBRANCH   6  24
TORSDOF 6
ENDMDL
MODEL 9
REMARK VINA RESULT:      -6.6      2.185      2.730
REMARK  6 active torsions:
REMARK  status: ('A' for Active; 'I' for Inactive)
REMARK    1  A    between atoms: O_2  and  C_3 
REMARK    2  A    between atoms: C_3  and  C_4 
REMARK    3  A    between atoms: C_4  and  N_5 
REMARK       I    between atoms: N_5  and  C_6 
REMARK    4  A    between atoms: C_6  and  C_7 
REMARK    5  A    between atoms: C_12  and  C_13 
REMARK    6  A    between atoms: C_21  and  C_22 
ROOT
HETATM    1  C   UNL     1     -43.481  59.563 -54.504  1.00  0.00     0.170 A 
HETATM    2  N   UNL     1     -44.038  58.674 -55.366  1.00  0.00    -0.163 NA
HETATM    3  N   UNL     1     -43.295  57.569 -55.206  1.00  0.00    -0.238 N 
HETATM    4  C   UNL     1     -42.324  57.676 -54.250  1.00  0.00     0.145 A 
HETATM    5  N   UNL     1     -41.530  56.619 -53.936  1.00  0.00    -0.365 N 
HETATM    6  C   UNL     1     -41.523  55.420 -54.769  1.00  0.00     0.118 C 
HETATM    7  C   UNL     1     -42.951  55.140 -55.272  1.00  0.00     0.066 C 
HETATM    8  C   UNL     1     -43.540  56.370 -55.989  1.00  0.00     0.221 C 
HETATM    9  C   UNL     1     -42.410  58.966 -53.779  1.00  0.00     0.115 A 
HETATM   10 CL   UNL     1     -41.434  59.675 -52.585  1.00  0.00    -0.077 Cl
HETATM   11  H   UNL     1     -40.689  56.772 -53.377  1.00  0.00     0.162 HD
ENDROOT
BRANCH   1  12
HETATM   12  C   UNL     1     -43.993  60.940 -54.407  1.00  0.00     0.273 C 
HETATM   13  N   UNL     1     -45.368  61.008 -54.432  1.00  0.00    -0.353 N 
HETATM   14  H   UNL     1     -45.858  60.119 -54.357  1.00  0.00     0.162 HD
HETATM   15  O   UNL     1     -43.275  61.931 -54.314  1.00  0.00    -0.266 OA
BRANCH  13  16
HETATM   16  C   UNL     1     -46.103  62.228 -54.171  1.00  0.00     0.149 C 
BRANCH  16  17
HETATM   17  C   UNL     1     -46.263  62.472 -52.672  1.00  0.00     0.186 C 
BRANCH  17  18
HETATM   18  O   UNL     1     -46.864  61.321 -52.071  1.00  0.00    -0.394 OA
HETATM   19  C   UNL     1     -46.101  60.853 -50.965  1.00  0.00     0.201 C 
ENDBRANCH  17  18
ENDBRANCH  16  17
ENDBRANCH  13  16
ENDBRANCH   1  12
BRANCH   8  20
HETATM   20  C   UNL     1     -42.973  56.542 -57.382  1.00  0.00     0.409 C 
HETATM   21  F   UNL     1     -42.555  55.379 -57.928  1.00  0.00    -0.169 F 
HETATM   22  F   UNL     1     -43.930  57.035 -58.212  1.00  0.00    -0.169 F 
HETATM   23  F   UNL     1     -41.944  57.413 -57.426  1.00  0.00    -0.169 F 
ENDBRANCH   8  20
BRANCH   6  24
HETATM   24  C   UNL     1     -40.983  54.236 -53.986  1.00  0.00    -0.035 A 
HETATM   25  C   UNL     1     -40.454  53.105 -54.630  1.00  0.00     0.011 A 
HETATM   26  C   UNL     1     -39.942  52.036 -53.890  1.00  0.00     0.024 A 
HETATM   27  C   UNL     1     -39.950  52.091 -52.498  1.00  0.00     0.034 A 
HETATM   28 CL   UNL     1     -39.318  50.777 -51.586  1.00  0.00    -0.084 Cl
HETATM   29  C   UNL     1     -40.463  53.206 -51.842  1.00  0.00     0.024 A 
HETATM   30  C   UNL     1     -40.977  54.274 -52.581  1.00  0.00     0.011 A 
ENDBRANCH   6  24
TORSDOF 6
ENDMDL
MODEL 10
REMARK VINA RESULT:      -6.6     17.222     18.247
REMARK  6 active torsions:
REMARK  status: ('A' for Active; 'I' for Inactive)
REMARK    1  A    between atoms: O_2  and  C_3 
REMARK    2  A    between atoms: C_3  and  C_4 
REMARK    3  A    between atoms: C_4  and  N_5 
REMARK       I    between atoms: N_5  and  C_6 
REMARK    4  A    between atoms: C_6  and  C_7 
REMARK    5  A    between atoms: C_12  and  C_13 
REMARK    6  A    between atoms: C_21  and  C_22 
ROOT
HETATM    1  C   UNL     1     -37.331  39.287 -49.350  1.00  0.00     0.170 A 
HETATM    2  N   UNL     1     -36.310  40.183 -49.348  1.00  0.00    -0.163 NA
HETATM    3  N   UNL     1     -36.072  40.394 -50.651  1.00  0.00    -0.238 N 
HETATM    4  C   UNL     1     -36.917  39.727 -51.494  1.00  0.00     0.145 A 
HETATM    5  N   UNL     1     -36.833  39.887 -52.840  1.00  0.00    -0.365 N 
HETATM    6  C   UNL     1     -35.696  40.579 -53.439  1.00  0.00     0.118 C 
HETATM    7  C   UNL     1     -35.279  41.753 -52.534  1.00  0.00     0.066 C 
HETATM    8  C   UNL     1     -35.007  41.278 -51.094  1.00  0.00     0.221 C 
HETATM    9  C   UNL     1     -37.743  38.987 -50.680  1.00  0.00     0.115 A 
HETATM   10 CL   UNL     1     -38.986  37.945 -51.178  1.00  0.00    -0.077 Cl
HETATM   11  H   UNL     1     -37.325  39.236 -53.455  1.00  0.00     0.162 HD
ENDROOT
BRANCH   1  12
HETATM   12  C   UNL     1     -37.869  38.757 -48.086  1.00  0.00     0.273 C 
HETATM   13  N   UNL     1     -39.241  38.849 -48.003  1.00  0.00    -0.353 N 
HETATM   14  H   UNL     1     -39.721  39.117 -48.859  1.00  0.00     0.162 HD
HETATM   15  O   UNL     1     -37.175  38.281 -47.194  1.00  0.00    -0.266 OA
BRANCH  13  16
HETATM   16  C   UNL     1     -40.010  38.235 -46.941  1.00  0.00     0.149 C 
BRANCH  16  17
HETATM   17  C   UNL     1     -41.497  38.554 -47.074  1.00  0.00     0.186 C 
BRANCH  17  18
HETATM   18  O   UNL     1     -41.692  39.962 -46.904  1.00  0.00    -0.394 OA
HETATM   19  C   UNL     1     -41.565  40.344 -45.540  1.00  0.00     0.201 C 
ENDBRANCH  17  18
ENDBRANCH  16  17
ENDBRANCH  13  16
ENDBRANCH   1  12
BRANCH   8  20
HETATM   20  C   UNL     1     -33.672  40.575 -50.970  1.00  0.00     0.409 C 
HETATM   21  F   UNL     1     -32.752  41.033 -51.845  1.00  0.00    -0.169 F 
HETATM   22  F   UNL     1     -33.158  40.777 -49.728  1.00  0.00    -0.169 F 
HETATM   23  F   UNL     1     -33.765  39.238 -51.131  1.00  0.00    -0.169 F 
ENDBRANCH   8  20
BRANCH   6  24
HETATM   24  C   UNL     1     -36.048  41.069 -54.833  1.00  0.00    -0.035 A 
HETATM   25  C   UNL     1     -35.102  41.708 -55.651  1.00  0.00     0.011 A 
HETATM   26  C   UNL     1     -35.442  42.131 -56.939  1.00  0.00     0.024 A 
HETATM   27  C   UNL     1     -36.730  41.912 -57.422  1.00  0.00     0.034 A 
HETATM   28 CL   UNL     1     -37.149  42.428 -59.008  1.00  0.00    -0.084 Cl
HETATM   29  C   UNL     1     -37.679  41.273 -56.629  1.00  0.00     0.024 A 
HETATM   30  C   UNL     1     -37.340  40.852 -55.341  1.00  0.00     0.011 A 
ENDBRANCH   6  24
TORSDOF 6
ENDMDL
