MODEL 1
REMARK VINA RESULT:      -8.5      0.000      0.000
REMARK  9 active torsions:
REMARK  status: ('A' for Active; 'I' for Inactive)
REMARK    1  A    between atoms: N_5  and  C_6 
REMARK    2  A    between atoms: C_6  and  C_7 
REMARK    3  A    between atoms: C_7  and  O_8 
REMARK    4  A    between atoms: C_7  and  C_9 
REMARK    5  A    between atoms: C_9  and  O_10 
REMARK    6  A    between atoms: O_10  and  C_11 
REMARK    7  A    between atoms: N_23  and  C_24 
REMARK    8  A    between atoms: C_24  and  C_25 
REMARK    9  A    between atoms: C_25  and  N_26 
ROOT
HETATM    1  C   UNL     1     -39.826  59.097 -52.356  1.00  0.00     0.002 A 
HETATM    2  C   UNL     1     -40.665  58.901 -53.452  1.00  0.00     0.032 A 
HETATM    3  C   UNL     1     -41.916  58.363 -53.206  1.00  0.00     0.079 A 
HETATM    4  C   UNL     1     -42.370  58.011 -51.907  1.00  0.00     0.079 A 
HETATM    5  N   UNL     1     -43.679  57.516 -52.008  1.00  0.00    -0.179 N 
HETATM    6  C   UNL     1     -43.962  57.446 -53.415  1.00  0.00     0.681 A 
HETATM    7  N   UNL     1     -45.061  56.872 -53.960  1.00  0.00    -0.234 N 
HETATM    8  H   UNL     1     -45.200  56.760 -54.954  1.00  0.00     0.174 HD
HETATM    9  H   UNL     1     -45.778  56.466 -53.367  1.00  0.00     0.174 HD
HETATM   10  N   UNL     1     -42.934  58.024 -54.167  1.00  0.00    -0.180 N 
HETATM   11  C   UNL     1     -41.521  58.198 -50.839  1.00  0.00     0.032 A 
HETATM   12  C   UNL     1     -40.251  58.746 -51.067  1.00  0.00     0.002 A 
ENDROOT
BRANCH   5  13
HETATM   13  C   UNL     1     -44.307  56.604 -51.035  1.00  0.00     0.181 C 
BRANCH  13  14
HETATM   14  C   UNL     1     -43.746  55.187 -50.830  1.00  0.00     0.161 C 
BRANCH  14  15
HETATM   15  O   UNL     1     -44.700  54.407 -50.103  1.00  0.00    -0.392 OA
HETATM   16  H   UNL     1     -44.341  54.284 -49.199  1.00  0.00     0.210 HD
ENDBRANCH  14  15
BRANCH  14  17
HETATM   17  C   UNL     1     -43.277  54.450 -52.089  1.00  0.00     0.209 C 
BRANCH  17  18
HETATM   18  O   UNL     1     -41.846  54.590 -52.137  1.00  0.00    -0.347 OA
BRANCH  18  19
HETATM   19  C   UNL     1     -41.221  53.468 -52.615  1.00  0.00     0.090 A 
HETATM   20  C   UNL     1     -40.297  52.788 -51.811  1.00  0.00     0.069 A 
HETATM   21 CL   UNL     1     -39.992  53.288 -50.188  1.00  0.00    -0.081 Cl
HETATM   22  C   UNL     1     -39.620  51.673 -52.305  1.00  0.00     0.050 A 
HETATM   23  C   UNL     1     -39.858  51.257 -53.612  1.00  0.00     0.035 A 
HETATM   24 CL   UNL     1     -39.032  49.882 -54.233  1.00  0.00    -0.084 Cl
HETATM   25  C   UNL     1     -40.758  51.945 -54.428  1.00  0.00     0.026 A 
HETATM   26  C   UNL     1     -41.438  53.059 -53.931  1.00  0.00     0.040 A 
ENDBRANCH  18  19
ENDBRANCH  17  18
ENDBRANCH  14  17
ENDBRANCH  13  14
ENDBRANCH   5  13
BRANCH  10  27
HETATM   27  C   UNL     1     -42.767  58.075 -55.629  1.00  0.00     0.175 C 
BRANCH  27  28
HETATM   28  C   UNL     1     -42.142  56.787 -56.203  1.00  0.00     0.256 C 
BRANCH  28  29
HETATM   29  N   UNL     1     -42.171  56.683 -57.714  1.00  0.00    -0.066 N 
HETATM   30  H   UNL     1     -41.345  56.123 -57.973  1.00  0.00     0.280 HD
HETATM   31  C   UNL     1     -43.361  55.885 -58.267  1.00  0.00     0.261 C 
HETATM   32  C   UNL     1     -43.209  55.727 -59.786  1.00  0.00     0.195 C 
HETATM   33  O   UNL     1     -43.110  57.010 -60.412  1.00  0.00    -0.388 OA
HETATM   34  C   UNL     1     -41.948  57.728 -59.983  1.00  0.00     0.195 C 
HETATM   35  C   UNL     1     -42.019  58.003 -58.476  1.00  0.00     0.261 C 
ENDBRANCH  28  29
ENDBRANCH  27  28
ENDBRANCH  10  27
TORSDOF 9
ENDMDL
MODEL 2
REMARK VINA RESULT:      -8.1      1.791      2.446
REMARK  9 active torsions:
REMARK  status: ('A' for Active; 'I' for Inactive)
REMARK    1  A    between atoms: N_5  and  C_6 
REMARK    2  A    between atoms: C_6  and  C_7 
REMARK    3  A    between atoms: C_7  and  O_8 
REMARK    4  A    between atoms: C_7  and  C_9 
REMARK    5  A    between atoms: C_9  and  O_10 
REMARK    6  A    between atoms: O_10  and  C_11 
REMARK    7  A    between atoms: N_23  and  C_24 
REMARK    8  A    between atoms: C_24  and  C_25 
REMARK    9  A    between atoms: C_25  and  N_26 
ROOT
HETATM    1  C   UNL     1     -46.020  61.049 -53.042  1.00  0.00     0.002 A 
HETATM    2  C   UNL     1     -45.490  60.363 -54.132  1.00  0.00     0.032 A 
HETATM    3  C   UNL     1     -44.776  59.207 -53.869  1.00  0.00     0.079 A 
HETATM    4  C   UNL     1     -44.570  58.701 -52.558  1.00  0.00     0.079 A 
HETATM    5  N   UNL     1     -43.829  57.513 -52.646  1.00  0.00    -0.179 N 
HETATM    6  C   UNL     1     -43.471  57.379 -54.031  1.00  0.00     0.681 A 
HETATM    7  N   UNL     1     -42.619  56.452 -54.529  1.00  0.00    -0.234 N 
HETATM    8  H   UNL     1     -42.317  56.427 -55.492  1.00  0.00     0.174 HD
HETATM    9  H   UNL     1     -42.191  55.763 -53.917  1.00  0.00     0.174 HD
HETATM   10  N   UNL     1     -44.096  58.357 -54.812  1.00  0.00    -0.180 N 
HETATM   11  C   UNL     1     -45.089  59.402 -51.492  1.00  0.00     0.032 A 
HETATM   12  C   UNL     1     -45.819  60.573 -51.739  1.00  0.00     0.002 A 
ENDROOT
BRANCH   5  13
HETATM   13  C   UNL     1     -42.993  56.965 -51.564  1.00  0.00     0.181 C 
BRANCH  13  14
HETATM   14  C   UNL     1     -43.406  55.668 -50.849  1.00  0.00     0.161 C 
BRANCH  14  15
HETATM   15  O   UNL     1     -44.813  55.704 -50.590  1.00  0.00    -0.392 OA
HETATM   16  H   UNL     1     -44.968  55.182 -49.773  1.00  0.00     0.210 HD
ENDBRANCH  14  15
BRANCH  14  17
HETATM   17  C   UNL     1     -43.006  54.355 -51.529  1.00  0.00     0.209 C 
BRANCH  17  18
HETATM   18  O   UNL     1     -41.760  54.606 -52.203  1.00  0.00    -0.347 OA
BRANCH  18  19
HETATM   19  C   UNL     1     -41.168  53.459 -52.665  1.00  0.00     0.090 A 
HETATM   20  C   UNL     1     -40.243  52.779 -51.862  1.00  0.00     0.069 A 
HETATM   21 CL   UNL     1     -39.896  53.312 -50.258  1.00  0.00    -0.081 Cl
HETATM   22  C   UNL     1     -39.600  51.637 -52.341  1.00  0.00     0.050 A 
HETATM   23  C   UNL     1     -39.872  51.195 -53.633  1.00  0.00     0.035 A 
HETATM   24 CL   UNL     1     -39.089  49.788 -54.235  1.00  0.00    -0.084 Cl
HETATM   25  C   UNL     1     -40.774  51.883 -54.448  1.00  0.00     0.026 A 
HETATM   26  C   UNL     1     -41.420  53.023 -53.966  1.00  0.00     0.040 A 
ENDBRANCH  18  19
ENDBRANCH  17  18
ENDBRANCH  14  17
ENDBRANCH  13  14
ENDBRANCH   5  13
BRANCH  10  27
HETATM   27  C   UNL     1     -43.930  58.648 -56.246  1.00  0.00     0.175 C 
BRANCH  27  28
HETATM   28  C   UNL     1     -45.072  58.070 -57.107  1.00  0.00     0.256 C 
BRANCH  28  29
HETATM   29  N   UNL     1     -44.632  57.083 -58.169  1.00  0.00    -0.066 N 
HETATM   30  H   UNL     1     -44.890  56.151 -57.809  1.00  0.00     0.280 HD
HETATM   31  C   UNL     1     -45.396  57.203 -59.495  1.00  0.00     0.261 C 
HETATM   32  C   UNL     1     -44.968  56.070 -60.437  1.00  0.00     0.195 C 
HETATM   33  O   UNL     1     -43.553  56.106 -60.648  1.00  0.00    -0.388 OA
HETATM   34  C   UNL     1     -42.824  55.894 -59.436  1.00  0.00     0.195 C 
HETATM   35  C   UNL     1     -43.124  57.012 -58.430  1.00  0.00     0.261 C 
ENDBRANCH  28  29
ENDBRANCH  27  28
ENDBRANCH  10  27
TORSDOF 9
ENDMDL
MODEL 3
REMARK VINA RESULT:      -8.1      2.035      2.642
REMARK  9 active torsions:
REMARK  status: ('A' for Active; 'I' for Inactive)
REMARK    1  A    between atoms: N_5  and  C_6 
REMARK    2  A    between atoms: C_6  and  C_7 
REMARK    3  A    between atoms: C_7  and  O_8 
REMARK    4  A    between atoms: C_7  and  C_9 
REMARK    5  A    between atoms: C_9  and  O_10 
REMARK    6  A    between atoms: O_10  and  C_11 
REMARK    7  A    between atoms: N_23  and  C_24 
REMARK    8  A    between atoms: C_24  and  C_25 
REMARK    9  A    between atoms: C_25  and  N_26 
ROOT
HETATM    1  C   UNL     1     -45.240  61.069 -52.570  1.00  0.00     0.002 A 
HETATM    2  C   UNL     1     -45.518  60.196 -53.621  1.00  0.00     0.032 A 
HETATM    3  C   UNL     1     -45.047  58.900 -53.511  1.00  0.00     0.079 A 
HETATM    4  C   UNL     1     -44.309  58.432 -52.391  1.00  0.00     0.079 A 
HETATM    5  N   UNL     1     -44.004  57.077 -52.588  1.00  0.00    -0.179 N 
HETATM    6  C   UNL     1     -44.455  56.765 -53.916  1.00  0.00     0.681 A 
HETATM    7  N   UNL     1     -44.213  55.603 -54.568  1.00  0.00    -0.234 N 
HETATM    8  H   UNL     1     -44.468  55.436 -55.531  1.00  0.00     0.174 HD
HETATM    9  H   UNL     1     -43.695  54.856 -54.115  1.00  0.00     0.174 HD
HETATM   10  N   UNL     1     -45.161  57.836 -54.475  1.00  0.00    -0.180 N 
HETATM   11  C   UNL     1     -44.032  59.313 -51.370  1.00  0.00     0.032 A 
HETATM   12  C   UNL     1     -44.504  60.630 -51.461  1.00  0.00     0.002 A 
ENDROOT
BRANCH   5  13
HETATM   13  C   UNL     1     -42.873  56.372 -51.959  1.00  0.00     0.181 C 
BRANCH  13  14
HETATM   14  C   UNL     1     -43.124  55.125 -51.095  1.00  0.00     0.161 C 
BRANCH  14  15
HETATM   15  O   UNL     1     -43.940  54.205 -51.825  1.00  0.00    -0.392 OA
HETATM   16  H   UNL     1     -43.362  53.462 -52.099  1.00  0.00     0.210 HD
ENDBRANCH  14  15
BRANCH  14  17
HETATM   17  C   UNL     1     -41.883  54.428 -50.526  1.00  0.00     0.209 C 
BRANCH  17  18
HETATM   18  O   UNL     1     -40.810  54.684 -51.449  1.00  0.00    -0.347 OA
BRANCH  18  19
HETATM   19  C   UNL     1     -40.417  53.560 -52.128  1.00  0.00     0.090 A 
HETATM   20  C   UNL     1     -40.430  53.551 -53.529  1.00  0.00     0.069 A 
HETATM   21 CL   UNL     1     -40.852  54.965 -54.424  1.00  0.00    -0.081 Cl
HETATM   22  C   UNL     1     -40.078  52.396 -54.229  1.00  0.00     0.050 A 
HETATM   23  C   UNL     1     -39.733  51.249 -53.519  1.00  0.00     0.035 A 
HETATM   24 CL   UNL     1     -39.294  49.821 -54.369  1.00  0.00    -0.084 Cl
HETATM   25  C   UNL     1     -39.742  51.244 -52.122  1.00  0.00     0.026 A 
HETATM   26  C   UNL     1     -40.092  52.401 -51.423  1.00  0.00     0.040 A 
ENDBRANCH  18  19
ENDBRANCH  17  18
ENDBRANCH  14  17
ENDBRANCH  13  14
ENDBRANCH   5  13
BRANCH  10  27
HETATM   27  C   UNL     1     -45.702  57.983 -55.837  1.00  0.00     0.175 C 
BRANCH  27  28
HETATM   28  C   UNL     1     -44.607  58.257 -56.887  1.00  0.00     0.256 C 
BRANCH  28  29
HETATM   29  N   UNL     1     -44.499  57.214 -57.981  1.00  0.00    -0.066 N 
HETATM   30  H   UNL     1     -44.982  56.377 -57.620  1.00  0.00     0.280 HD
HETATM   31  C   UNL     1     -45.261  57.568 -59.267  1.00  0.00     0.261 C 
HETATM   32  C   UNL     1     -45.197  56.386 -60.242  1.00  0.00     0.195 C 
HETATM   33  O   UNL     1     -43.836  56.046 -60.523  1.00  0.00    -0.388 OA
HETATM   34  C   UNL     1     -43.137  55.615 -59.351  1.00  0.00     0.195 C 
HETATM   35  C   UNL     1     -43.080  56.747 -58.319  1.00  0.00     0.261 C 
ENDBRANCH  28  29
ENDBRANCH  27  28
ENDBRANCH  10  27
TORSDOF 9
ENDMDL
MODEL 4
REMARK VINA RESULT:      -7.9      2.118      2.641
REMARK  9 active torsions:
REMARK  status: ('A' for Active; 'I' for Inactive)
REMARK    1  A    between atoms: N_5  and  C_6 
REMARK    2  A    between atoms: C_6  and  C_7 
REMARK    3  A    between atoms: C_7  and  O_8 
REMARK    4  A    between atoms: C_7  and  C_9 
REMARK    5  A    between atoms: C_9  and  O_10 
REMARK    6  A    between atoms: O_10  and  C_11 
REMARK    7  A    between atoms: N_23  and  C_24 
REMARK    8  A    between atoms: C_24  and  C_25 
REMARK    9  A    between atoms: C_25  and  N_26 
ROOT
HETATM    1  C   UNL     1     -43.206  62.264 -51.911  1.00  0.00     0.002 A 
HETATM    2  C   UNL     1     -42.953  61.505 -53.053  1.00  0.00     0.032 A 
HETATM    3  C   UNL     1     -42.456  60.227 -52.869  1.00  0.00     0.079 A 
HETATM    4  C   UNL     1     -42.199  59.669 -51.589  1.00  0.00     0.079 A 
HETATM    5  N   UNL     1     -41.722  58.360 -51.756  1.00  0.00    -0.179 N 
HETATM    6  C   UNL     1     -41.564  58.182 -53.173  1.00  0.00     0.681 A 
HETATM    7  N   UNL     1     -40.976  57.114 -53.763  1.00  0.00    -0.234 N 
HETATM    8  H   UNL     1     -40.801  57.047 -54.755  1.00  0.00     0.174 HD
HETATM    9  H   UNL     1     -40.623  56.345 -53.201  1.00  0.00     0.174 HD
HETATM   10  N   UNL     1     -42.072  59.277 -53.881  1.00  0.00    -0.180 N 
HETATM   11  C   UNL     1     -42.441  60.439 -50.473  1.00  0.00     0.032 A 
HETATM   12  C   UNL     1     -42.950  61.736 -50.639  1.00  0.00     0.002 A 
ENDROOT
BRANCH   5  13
HETATM   13  C   UNL     1     -40.889  57.640 -50.778  1.00  0.00     0.181 C 
BRANCH  13  14
HETATM   14  C   UNL     1     -41.402  56.344 -50.130  1.00  0.00     0.161 C 
BRANCH  14  15
HETATM   15  O   UNL     1     -42.827  56.294 -50.247  1.00  0.00    -0.392 OA
HETATM   16  H   UNL     1     -43.034  56.200 -51.201  1.00  0.00     0.210 HD
ENDBRANCH  14  15
BRANCH  14  17
HETATM   17  C   UNL     1     -40.765  55.038 -50.616  1.00  0.00     0.209 C 
BRANCH  17  18
HETATM   18  O   UNL     1     -41.448  54.675 -51.829  1.00  0.00    -0.347 OA
BRANCH  18  19
HETATM   19  C   UNL     1     -40.906  53.568 -52.429  1.00  0.00     0.090 A 
HETATM   20  C   UNL     1     -41.361  53.166 -53.692  1.00  0.00     0.069 A 
HETATM   21 CL   UNL     1     -42.538  54.093 -54.550  1.00  0.00    -0.081 Cl
HETATM   22  C   UNL     1     -40.850  52.015 -54.291  1.00  0.00     0.050 A 
HETATM   23  C   UNL     1     -39.899  51.259 -53.611  1.00  0.00     0.035 A 
HETATM   24 CL   UNL     1     -39.259  49.839 -54.340  1.00  0.00    -0.084 Cl
HETATM   25  C   UNL     1     -39.460  51.640 -52.341  1.00  0.00     0.026 A 
HETATM   26  C   UNL     1     -39.969  52.795 -51.744  1.00  0.00     0.040 A 
ENDBRANCH  18  19
ENDBRANCH  17  18
ENDBRANCH  14  17
ENDBRANCH  13  14
ENDBRANCH   5  13
BRANCH  10  27
HETATM   27  C   UNL     1     -42.023  59.554 -55.326  1.00  0.00     0.175 C 
BRANCH  27  28
HETATM   28  C   UNL     1     -43.372  59.299 -56.028  1.00  0.00     0.256 C 
BRANCH  28  29
HETATM   29  N   UNL     1     -43.320  58.299 -57.165  1.00  0.00    -0.066 N 
HETATM   30  H   UNL     1     -42.413  58.452 -57.632  1.00  0.00     0.280 HD
HETATM   31  C   UNL     1     -43.274  56.832 -56.712  1.00  0.00     0.261 C 
HETATM   32  C   UNL     1     -43.082  55.925 -57.934  1.00  0.00     0.195 C 
HETATM   33  O   UNL     1     -44.130  56.141 -58.884  1.00  0.00    -0.388 OA
HETATM   34  C   UNL     1     -44.125  57.478 -59.394  1.00  0.00     0.195 C 
HETATM   35  C   UNL     1     -44.375  58.481 -58.261  1.00  0.00     0.261 C 
ENDBRANCH  28  29
ENDBRANCH  27  28
ENDBRANCH  10  27
TORSDOF 9
ENDMDL
MODEL 5
REMARK VINA RESULT:      -7.5      2.939      5.358
REMARK  9 active torsions:
REMARK  status: ('A' for Active; 'I' for Inactive)
REMARK    1  A    between atoms: N_5  and  C_6 
REMARK    2  A    between atoms: C_6  and  C_7 
REMARK    3  A    between atoms: C_7  and  O_8 
REMARK    4  A    between atoms: C_7  and  C_9 
REMARK    5  A    between atoms: C_9  and  O_10 
REMARK    6  A    between atoms: O_10  and  C_11 
REMARK    7  A    between atoms: N_23  and  C_24 
REMARK    8  A    between atoms: C_24  and  C_25 
REMARK    9  A    between atoms: C_25  and  N_26 
ROOT
HETATM    1  C   UNL     1     -40.059  52.368 -53.639  1.00  0.00     0.002 A 
HETATM    2  C   UNL     1     -40.905  52.948 -54.583  1.00  0.00     0.032 A 
HETATM    3  C   UNL     1     -41.822  53.878 -54.128  1.00  0.00     0.079 A 
HETATM    4  C   UNL     1     -41.933  54.259 -52.764  1.00  0.00     0.079 A 
HETATM    5  N   UNL     1     -42.941  55.228 -52.648  1.00  0.00    -0.179 N 
HETATM    6  C   UNL     1     -43.536  55.329 -53.952  1.00  0.00     0.681 A 
HETATM    7  N   UNL     1     -44.653  56.036 -54.246  1.00  0.00    -0.234 N 
HETATM    8  H   UNL     1     -45.101  56.027 -55.151  1.00  0.00     0.174 HD
HETATM    9  H   UNL     1     -45.129  56.569 -53.525  1.00  0.00     0.174 HD
HETATM   10  N   UNL     1     -42.827  54.572 -54.891  1.00  0.00    -0.180 N 
HETATM   11  C   UNL     1     -41.099  53.664 -51.844  1.00  0.00     0.032 A 
HETATM   12  C   UNL     1     -40.159  52.722 -52.286  1.00  0.00     0.002 A 
ENDROOT
BRANCH   5  13
HETATM   13  C   UNL     1     -43.701  55.504 -51.416  1.00  0.00     0.181 C 
BRANCH  13  14
HETATM   14  C   UNL     1     -43.567  56.866 -50.714  1.00  0.00     0.161 C 
BRANCH  14  15
HETATM   15  O   UNL     1     -42.196  57.083 -50.368  1.00  0.00    -0.392 OA
HETATM   16  H   UNL     1     -42.175  57.829 -49.733  1.00  0.00     0.210 HD
ENDBRANCH  14  15
BRANCH  14  17
HETATM   17  C   UNL     1     -44.145  58.076 -51.455  1.00  0.00     0.209 C 
BRANCH  17  18
HETATM   18  O   UNL     1     -43.028  58.905 -51.822  1.00  0.00    -0.347 OA
BRANCH  18  19
HETATM   19  C   UNL     1     -43.062  59.287 -53.138  1.00  0.00     0.090 A 
HETATM   20  C   UNL     1     -42.063  58.850 -54.018  1.00  0.00     0.069 A 
HETATM   21 CL   UNL     1     -40.830  57.763 -53.494  1.00  0.00    -0.081 Cl
HETATM   22  C   UNL     1     -42.063  59.272 -55.347  1.00  0.00     0.050 A 
HETATM   23  C   UNL     1     -43.054  60.148 -55.784  1.00  0.00     0.035 A 
HETATM   24 CL   UNL     1     -43.066  60.673 -57.421  1.00  0.00    -0.084 Cl
HETATM   25  C   UNL     1     -44.038  60.607 -54.905  1.00  0.00     0.026 A 
HETATM   26  C   UNL     1     -44.040  60.181 -53.576  1.00  0.00     0.040 A 
ENDBRANCH  18  19
ENDBRANCH  17  18
ENDBRANCH  14  17
ENDBRANCH  13  14
ENDBRANCH   5  13
BRANCH  10  27
HETATM   27  C   UNL     1     -43.144  54.311 -56.305  1.00  0.00     0.175 C 
BRANCH  27  28
HETATM   28  C   UNL     1     -42.868  55.527 -57.212  1.00  0.00     0.256 C 
BRANCH  28  29
HETATM   29  N   UNL     1     -44.001  55.895 -58.148  1.00  0.00    -0.066 N 
HETATM   30  H   UNL     1     -44.839  55.425 -57.773  1.00  0.00     0.280 HD
HETATM   31  C   UNL     1     -44.365  57.387 -58.141  1.00  0.00     0.261 C 
HETATM   32  C   UNL     1     -45.607  57.615 -59.013  1.00  0.00     0.195 C 
HETATM   33  O   UNL     1     -45.374  57.144 -60.344  1.00  0.00    -0.388 OA
HETATM   34  C   UNL     1     -45.132  55.735 -60.381  1.00  0.00     0.195 C 
HETATM   35  C   UNL     1     -43.866  55.390 -59.589  1.00  0.00     0.261 C 
ENDBRANCH  28  29
ENDBRANCH  27  28
ENDBRANCH  10  27
TORSDOF 9
ENDMDL
MODEL 6
REMARK VINA RESULT:      -7.4      2.475      4.508
REMARK  9 active torsions:
REMARK  status: ('A' for Active; 'I' for Inactive)
REMARK    1  A    between atoms: N_5  and  C_6 
REMARK    2  A    between atoms: C_6  and  C_7 
REMARK    3  A    between atoms: C_7  and  O_8 
REMARK    4  A    between atoms: C_7  and  C_9 
REMARK    5  A    between atoms: C_9  and  O_10 
REMARK    6  A    between atoms: O_10  and  C_11 
REMARK    7  A    between atoms: N_23  and  C_24 
REMARK    8  A    between atoms: C_24  and  C_25 
REMARK    9  A    between atoms: C_25  and  N_26 
ROOT
HETATM    1  C   UNL     1     -42.455  56.645 -60.032  1.00  0.00     0.002 A 
HETATM    2  C   UNL     1     -42.024  57.881 -59.553  1.00  0.00     0.032 A 
HETATM    3  C   UNL     1     -42.197  58.135 -58.204  1.00  0.00     0.079 A 
HETATM    4  C   UNL     1     -42.784  57.204 -57.306  1.00  0.00     0.079 A 
HETATM    5  N   UNL     1     -42.792  57.764 -56.019  1.00  0.00    -0.179 N 
HETATM    6  C   UNL     1     -42.321  59.112 -56.179  1.00  0.00     0.681 A 
HETATM    7  N   UNL     1     -42.322  60.056 -55.208  1.00  0.00    -0.234 N 
HETATM    8  H   UNL     1     -42.064  61.020 -55.363  1.00  0.00     0.174 HD
HETATM    9  H   UNL     1     -42.652  59.835 -54.274  1.00  0.00     0.174 HD
HETATM   10  N   UNL     1     -41.882  59.343 -57.486  1.00  0.00    -0.180 N 
HETATM   11  C   UNL     1     -43.218  55.994 -57.801  1.00  0.00     0.032 A 
HETATM   12  C   UNL     1     -43.047  55.717 -59.165  1.00  0.00     0.002 A 
ENDROOT
BRANCH   5  13
HETATM   13  C   UNL     1     -43.724  57.380 -54.944  1.00  0.00     0.181 C 
BRANCH  13  14
HETATM   14  C   UNL     1     -43.410  56.175 -54.042  1.00  0.00     0.161 C 
BRANCH  14  15
HETATM   15  O   UNL     1     -44.331  55.120 -54.332  1.00  0.00    -0.392 OA
HETATM   16  H   UNL     1     -43.814  54.391 -54.735  1.00  0.00     0.210 HD
ENDBRANCH  14  15
BRANCH  14  17
HETATM   17  C   UNL     1     -41.965  55.665 -54.062  1.00  0.00     0.209 C 
BRANCH  17  18
HETATM   18  O   UNL     1     -41.773  54.929 -52.841  1.00  0.00    -0.347 OA
BRANCH  18  19
HETATM   19  C   UNL     1     -41.202  53.700 -53.049  1.00  0.00     0.090 A 
HETATM   20  C   UNL     1     -40.355  53.150 -52.078  1.00  0.00     0.069 A 
HETATM   21 CL   UNL     1     -40.084  53.956 -50.576  1.00  0.00    -0.081 Cl
HETATM   22  C   UNL     1     -39.732  51.922 -52.300  1.00  0.00     0.050 A 
HETATM   23  C   UNL     1     -39.944  51.261 -53.507  1.00  0.00     0.035 A 
HETATM   24 CL   UNL     1     -39.184  49.745 -53.793  1.00  0.00    -0.084 Cl
HETATM   25  C   UNL     1     -40.767  51.815 -54.490  1.00  0.00     0.026 A 
HETATM   26  C   UNL     1     -41.393  53.043 -54.265  1.00  0.00     0.040 A 
ENDBRANCH  18  19
ENDBRANCH  17  18
ENDBRANCH  14  17
ENDBRANCH  13  14
ENDBRANCH   5  13
BRANCH  10  27
HETATM   27  C   UNL     1     -41.424  60.598 -58.105  1.00  0.00     0.175 C 
BRANCH  27  28
HETATM   28  C   UNL     1     -42.585  61.556 -58.439  1.00  0.00     0.256 C 
BRANCH  28  29
HETATM   29  N   UNL     1     -42.980  61.593 -59.901  1.00  0.00    -0.066 N 
HETATM   30  H   UNL     1     -43.259  62.568 -60.092  1.00  0.00     0.280 HD
HETATM   31  C   UNL     1     -41.821  61.330 -60.874  1.00  0.00     0.261 C 
HETATM   32  C   UNL     1     -42.307  61.531 -62.315  1.00  0.00     0.195 C 
HETATM   33  O   UNL     1     -43.419  60.673 -62.590  1.00  0.00    -0.388 OA
HETATM   34  C   UNL     1     -44.545  60.972 -61.760  1.00  0.00     0.195 C 
HETATM   35  C   UNL     1     -44.196  60.743 -60.285  1.00  0.00     0.261 C 
ENDBRANCH  28  29
ENDBRANCH  27  28
ENDBRANCH  10  27
TORSDOF 9
ENDMDL
MODEL 7
REMARK VINA RESULT:      -7.4      3.321      6.286
REMARK  9 active torsions:
REMARK  status: ('A' for Active; 'I' for Inactive)
REMARK    1  A    between atoms: N_5  and  C_6 
REMARK    2  A    between atoms: C_6  and  C_7 
REMARK    3  A    between atoms: C_7  and  O_8 
REMARK    4  A    between atoms: C_7  and  C_9 
REMARK    5  A    between atoms: C_9  and  O_10 
REMARK    6  A    between atoms: O_10  and  C_11 
REMARK    7  A    between atoms: N_23  and  C_24 
REMARK    8  A    between atoms: C_24  and  C_25 
REMARK    9  A    between atoms: C_25  and  N_26 
ROOT
HETATM    1  C   UNL     1     -40.528  59.906 -50.210  1.00  0.00     0.002 A 
HETATM    2  C   UNL     1     -41.886  60.120 -50.439  1.00  0.00     0.032 A 
HETATM    3  C   UNL     1     -42.450  59.501 -51.541  1.00  0.00     0.079 A 
HETATM    4  C   UNL     1     -41.714  58.672 -52.429  1.00  0.00     0.079 A 
HETATM    5  N   UNL     1     -42.583  58.192 -53.420  1.00  0.00    -0.179 N 
HETATM    6  C   UNL     1     -43.836  58.858 -53.194  1.00  0.00     0.681 A 
HETATM    7  N   UNL     1     -44.907  58.803 -54.022  1.00  0.00    -0.234 N 
HETATM    8  H   UNL     1     -45.749  59.345 -53.887  1.00  0.00     0.174 HD
HETATM    9  H   UNL     1     -44.876  58.244 -54.869  1.00  0.00     0.174 HD
HETATM   10  N   UNL     1     -43.806  59.606 -52.013  1.00  0.00    -0.180 N 
HETATM   11  C   UNL     1     -40.370  58.484 -52.194  1.00  0.00     0.032 A 
HETATM   12  C   UNL     1     -39.781  59.099 -51.080  1.00  0.00     0.002 A 
ENDROOT
BRANCH   5  13
HETATM   13  C   UNL     1     -42.162  57.746 -54.759  1.00  0.00     0.181 C 
BRANCH  13  14
HETATM   14  C   UNL     1     -41.967  56.248 -55.050  1.00  0.00     0.161 C 
BRANCH  14  15
HETATM   15  O   UNL     1     -42.159  56.013 -56.448  1.00  0.00    -0.392 OA
HETATM   16  H   UNL     1     -42.383  56.876 -56.856  1.00  0.00     0.210 HD
ENDBRANCH  14  15
BRANCH  14  17
HETATM   17  C   UNL     1     -40.655  55.624 -54.563  1.00  0.00     0.209 C 
BRANCH  17  18
HETATM   18  O   UNL     1     -40.920  55.076 -53.259  1.00  0.00    -0.347 OA
BRANCH  18  19
HETATM   19  C   UNL     1     -40.599  53.747 -53.169  1.00  0.00     0.090 A 
HETATM   20  C   UNL     1     -40.192  53.209 -51.941  1.00  0.00     0.069 A 
HETATM   21 CL   UNL     1     -40.168  54.175 -50.511  1.00  0.00    -0.081 Cl
HETATM   22  C   UNL     1     -39.817  51.868 -51.849  1.00  0.00     0.050 A 
HETATM   23  C   UNL     1     -39.834  51.078 -52.995  1.00  0.00     0.035 A 
HETATM   24 CL   UNL     1     -39.378  49.422 -52.894  1.00  0.00    -0.084 Cl
HETATM   25  C   UNL     1     -40.215  51.614 -54.227  1.00  0.00     0.026 A 
HETATM   26  C   UNL     1     -40.593  52.955 -54.317  1.00  0.00     0.040 A 
ENDBRANCH  18  19
ENDBRANCH  17  18
ENDBRANCH  14  17
ENDBRANCH  13  14
ENDBRANCH   5  13
BRANCH  10  27
HETATM   27  C   UNL     1     -44.825  60.515 -51.462  1.00  0.00     0.175 C 
BRANCH  27  28
HETATM   28  C   UNL     1     -45.371  60.042 -50.100  1.00  0.00     0.256 C 
BRANCH  28  29
HETATM   29  N   UNL     1     -45.557  61.139 -49.072  1.00  0.00    -0.066 N 
HETATM   30  H   UNL     1     -46.443  61.607 -49.318  1.00  0.00     0.280 HD
HETATM   31  C   UNL     1     -45.780  60.630 -47.640  1.00  0.00     0.261 C 
HETATM   32  C   UNL     1     -46.095  61.816 -46.718  1.00  0.00     0.195 C 
HETATM   33  O   UNL     1     -45.037  62.779 -46.767  1.00  0.00    -0.388 OA
HETATM   34  C   UNL     1     -44.882  63.339 -48.075  1.00  0.00     0.195 C 
HETATM   35  C   UNL     1     -44.500  62.248 -49.081  1.00  0.00     0.261 C 
ENDBRANCH  28  29
ENDBRANCH  27  28
ENDBRANCH  10  27
TORSDOF 9
ENDMDL
MODEL 8
REMARK VINA RESULT:      -7.3      3.484      7.027
REMARK  9 active torsions:
REMARK  status: ('A' for Active; 'I' for Inactive)
REMARK    1  A    between atoms: N_5  and  C_6 
REMARK    2  A    between atoms: C_6  and  C_7 
REMARK    3  A    between atoms: C_7  and  O_8 
REMARK    4  A    between atoms: C_7  and  C_9 
REMARK    5  A    between atoms: C_9  and  O_10 
REMARK    6  A    between atoms: O_10  and  C_11 
REMARK    7  A    between atoms: N_23  and  C_24 
REMARK    8  A    between atoms: C_24  and  C_25 
REMARK    9  A    between atoms: C_25  and  N_26 
ROOT
HETATM    1  C   UNL     1     -41.457  58.193 -51.072  1.00  0.00     0.002 A 
HETATM    2  C   UNL     1     -41.829  57.059 -51.792  1.00  0.00     0.032 A 
HETATM    3  C   UNL     1     -42.241  57.244 -53.099  1.00  0.00     0.079 A 
HETATM    4  C   UNL     1     -42.299  58.518 -53.725  1.00  0.00     0.079 A 
HETATM    5  N   UNL     1     -42.737  58.351 -55.047  1.00  0.00    -0.179 N 
HETATM    6  C   UNL     1     -43.078  56.960 -55.171  1.00  0.00     0.681 A 
HETATM    7  N   UNL     1     -43.694  56.402 -56.240  1.00  0.00    -0.234 N 
HETATM    8  H   UNL     1     -43.998  55.440 -56.273  1.00  0.00     0.174 HD
HETATM    9  H   UNL     1     -43.934  56.967 -57.049  1.00  0.00     0.174 HD
HETATM   10  N   UNL     1     -42.717  56.247 -54.023  1.00  0.00    -0.180 N 
HETATM   11  C   UNL     1     -41.941  59.628 -52.992  1.00  0.00     0.032 A 
HETATM   12  C   UNL     1     -41.516  59.460 -51.666  1.00  0.00     0.002 A 
ENDROOT
BRANCH   5  13
HETATM   13  C   UNL     1     -43.399  59.395 -55.848  1.00  0.00     0.181 C 
BRANCH  13  14
HETATM   14  C   UNL     1     -42.593  60.211 -56.873  1.00  0.00     0.161 C 
BRANCH  14  15
HETATM   15  O   UNL     1     -41.761  61.145 -56.178  1.00  0.00    -0.392 OA
HETATM   16  H   UNL     1     -42.337  61.630 -55.550  1.00  0.00     0.210 HD
ENDBRANCH  14  15
BRANCH  14  17
HETATM   17  C   UNL     1     -41.784  59.410 -57.898  1.00  0.00     0.209 C 
BRANCH  17  18
HETATM   18  O   UNL     1     -42.548  59.413 -59.117  1.00  0.00    -0.347 OA
BRANCH  18  19
HETATM   19  C   UNL     1     -43.143  58.205 -59.371  1.00  0.00     0.090 A 
HETATM   20  C   UNL     1     -44.539  58.093 -59.334  1.00  0.00     0.069 A 
HETATM   21 CL   UNL     1     -45.535  59.475 -59.060  1.00  0.00    -0.081 Cl
HETATM   22  C   UNL     1     -45.152  56.858 -59.544  1.00  0.00     0.050 A 
HETATM   23  C   UNL     1     -44.361  55.735 -59.769  1.00  0.00     0.035 A 
HETATM   24 CL   UNL     1     -45.104  54.207 -60.032  1.00  0.00    -0.084 Cl
HETATM   25  C   UNL     1     -42.968  55.834 -59.781  1.00  0.00     0.026 A 
HETATM   26  C   UNL     1     -42.355  57.071 -59.574  1.00  0.00     0.040 A 
ENDBRANCH  18  19
ENDBRANCH  17  18
ENDBRANCH  14  17
ENDBRANCH  13  14
ENDBRANCH   5  13
BRANCH  10  27
HETATM   27  C   UNL     1     -42.973  54.836 -53.687  1.00  0.00     0.175 C 
BRANCH  27  28
HETATM   28  C   UNL     1     -41.984  53.871 -54.371  1.00  0.00     0.256 C 
BRANCH  28  29
HETATM   29  N   UNL     1     -41.247  52.941 -53.429  1.00  0.00    -0.066 N 
HETATM   30  H   UNL     1     -41.961  52.296 -53.056  1.00  0.00     0.280 HD
HETATM   31  C   UNL     1     -40.229  52.022 -54.121  1.00  0.00     0.261 C 
HETATM   32  C   UNL     1     -39.652  51.035 -53.097  1.00  0.00     0.195 C 
HETATM   33  O   UNL     1     -39.055  51.742 -52.006  1.00  0.00    -0.388 OA
HETATM   34  C   UNL     1     -40.012  52.526 -51.286  1.00  0.00     0.195 C 
HETATM   35  C   UNL     1     -40.615  53.600 -52.199  1.00  0.00     0.261 C 
ENDBRANCH  28  29
ENDBRANCH  27  28
ENDBRANCH  10  27
TORSDOF 9
ENDMDL
MODEL 9
REMARK VINA RESULT:      -7.2      2.829      4.835
REMARK  9 active torsions:
REMARK  status: ('A' for Active; 'I' for Inactive)
REMARK    1  A    between atoms: N_5  and  C_6 
REMARK    2  A    between atoms: C_6  and  C_7 
REMARK    3  A    between atoms: C_7  and  O_8 
REMARK    4  A    between atoms: C_7  and  C_9 
REMARK    5  A    between atoms: C_9  and  O_10 
REMARK    6  A    between atoms: O_10  and  C_11 
REMARK    7  A    between atoms: N_23  and  C_24 
REMARK    8  A    between atoms: C_24  and  C_25 
REMARK    9  A    between atoms: C_25  and  N_26 
ROOT
HETATM    1  C   UNL     1     -42.344  54.349 -54.974  1.00  0.00     0.002 A 
HETATM    2  C   UNL     1     -43.032  55.326 -55.692  1.00  0.00     0.032 A 
HETATM    3  C   UNL     1     -42.665  56.644 -55.484  1.00  0.00     0.079 A 
HETATM    4  C   UNL     1     -41.634  57.032 -54.587  1.00  0.00     0.079 A 
HETATM    5  N   UNL     1     -41.504  58.428 -54.628  1.00  0.00    -0.179 N 
HETATM    6  C   UNL     1     -42.573  58.894 -55.469  1.00  0.00     0.681 A 
HETATM    7  N   UNL     1     -42.911  60.192 -55.651  1.00  0.00    -0.234 N 
HETATM    8  H   UNL     1     -43.717  60.493 -56.179  1.00  0.00     0.174 HD
HETATM    9  H   UNL     1     -42.384  60.931 -55.194  1.00  0.00     0.174 HD
HETATM   10  N   UNL     1     -43.252  57.825 -56.063  1.00  0.00    -0.180 N 
HETATM   11  C   UNL     1     -40.976  56.053 -53.876  1.00  0.00     0.032 A 
HETATM   12  C   UNL     1     -41.331  54.712 -54.076  1.00  0.00     0.002 A 
ENDROOT
BRANCH   5  13
HETATM   13  C   UNL     1     -40.948  59.251 -53.540  1.00  0.00     0.181 C 
BRANCH  13  14
HETATM   14  C   UNL     1     -39.887  58.665 -52.593  1.00  0.00     0.161 C 
BRANCH  14  15
HETATM   15  O   UNL     1     -38.592  59.106 -53.010  1.00  0.00    -0.392 OA
HETATM   16  H   UNL     1     -38.582  60.084 -52.931  1.00  0.00     0.210 HD
ENDBRANCH  14  15
BRANCH  14  17
HETATM   17  C   UNL     1     -40.097  58.914 -51.096  1.00  0.00     0.209 C 
BRANCH  17  18
HETATM   18  O   UNL     1     -41.519  58.963 -50.883  1.00  0.00    -0.347 OA
BRANCH  18  19
HETATM   19  C   UNL     1     -42.099  57.721 -50.894  1.00  0.00     0.090 A 
HETATM   20  C   UNL     1     -43.377  57.553 -51.442  1.00  0.00     0.069 A 
HETATM   21 CL   UNL     1     -44.207  58.870 -52.188  1.00  0.00    -0.081 Cl
HETATM   22  C   UNL     1     -43.996  56.302 -51.414  1.00  0.00     0.050 A 
HETATM   23  C   UNL     1     -43.337  55.231 -50.818  1.00  0.00     0.035 A 
HETATM   24 CL   UNL     1     -44.087  53.684 -50.780  1.00  0.00    -0.084 Cl
HETATM   25  C   UNL     1     -42.073  55.398 -50.247  1.00  0.00     0.026 A 
HETATM   26  C   UNL     1     -41.454  56.649 -50.278  1.00  0.00     0.040 A 
ENDBRANCH  18  19
ENDBRANCH  17  18
ENDBRANCH  14  17
ENDBRANCH  13  14
ENDBRANCH   5  13
BRANCH  10  27
HETATM   27  C   UNL     1     -44.460  57.842 -56.903  1.00  0.00     0.175 C 
BRANCH  27  28
HETATM   28  C   UNL     1     -44.138  57.817 -58.411  1.00  0.00     0.256 C 
BRANCH  28  29
HETATM   29  N   UNL     1     -44.955  56.830 -59.221  1.00  0.00    -0.066 N 
HETATM   30  H   UNL     1     -45.176  56.054 -58.578  1.00  0.00     0.280 HD
HETATM   31  C   UNL     1     -46.327  57.361 -59.662  1.00  0.00     0.261 C 
HETATM   32  C   UNL     1     -47.115  56.237 -60.346  1.00  0.00     0.195 C 
HETATM   33  O   UNL     1     -46.378  55.718 -61.458  1.00  0.00    -0.388 OA
HETATM   34  C   UNL     1     -45.140  55.127 -61.052  1.00  0.00     0.195 C 
HETATM   35  C   UNL     1     -44.233  56.180 -60.405  1.00  0.00     0.261 C 
ENDBRANCH  28  29
ENDBRANCH  27  28
ENDBRANCH  10  27
TORSDOF 9
ENDMDL
MODEL 10
REMARK VINA RESULT:      -7.2      2.127      2.674
REMARK  9 active torsions:
REMARK  status: ('A' for Active; 'I' for Inactive)
REMARK    1  A    between atoms: N_5  and  C_6 
REMARK    2  A    between atoms: C_6  and  C_7 
REMARK    3  A    between atoms: C_7  and  O_8 
REMARK    4  A    between atoms: C_7  and  C_9 
REMARK    5  A    between atoms: C_9  and  O_10 
REMARK    6  A    between atoms: O_10  and  C_11 
REMARK    7  A    between atoms: N_23  and  C_24 
REMARK    8  A    between atoms: C_24  and  C_25 
REMARK    9  A    between atoms: C_25  and  N_26 
ROOT
HETATM    1  C   UNL     1     -44.837  61.810 -53.103  1.00  0.00     0.002 A 
HETATM    2  C   UNL     1     -45.177  60.823 -54.027  1.00  0.00     0.032 A 
HETATM    3  C   UNL     1     -44.876  59.514 -53.696  1.00  0.00     0.079 A 
HETATM    4  C   UNL     1     -44.249  59.143 -52.476  1.00  0.00     0.079 A 
HETATM    5  N   UNL     1     -44.107  57.748 -52.450  1.00  0.00    -0.179 N 
HETATM    6  C   UNL     1     -44.538  57.288 -53.741  1.00  0.00     0.681 A 
HETATM    7  N   UNL     1     -44.416  56.018 -54.196  1.00  0.00    -0.234 N 
HETATM    8  H   UNL     1     -44.649  55.734 -55.136  1.00  0.00     0.174 HD
HETATM    9  H   UNL     1     -44.013  55.296 -53.606  1.00  0.00     0.174 HD
HETATM   10  N   UNL     1     -45.081  58.333 -54.495  1.00  0.00    -0.180 N 
HETATM   11  C   UNL     1     -43.907  60.135 -51.584  1.00  0.00     0.032 A 
HETATM   12  C   UNL     1     -44.208  61.468 -51.899  1.00  0.00     0.002 A 
ENDROOT
BRANCH   5  13
HETATM   13  C   UNL     1     -43.100  57.023 -51.655  1.00  0.00     0.181 C 
BRANCH  13  14
HETATM   14  C   UNL     1     -43.504  55.783 -50.840  1.00  0.00     0.161 C 
BRANCH  14  15
HETATM   15  O   UNL     1     -44.922  55.786 -50.654  1.00  0.00    -0.392 OA
HETATM   16  H   UNL     1     -45.300  56.381 -51.336  1.00  0.00     0.210 HD
ENDBRANCH  14  15
BRANCH  14  17
HETATM   17  C   UNL     1     -43.023  54.430 -51.373  1.00  0.00     0.209 C 
BRANCH  17  18
HETATM   18  O   UNL     1     -41.791  54.679 -52.073  1.00  0.00    -0.347 OA
BRANCH  18  19
HETATM   19  C   UNL     1     -41.237  53.537 -52.592  1.00  0.00     0.090 A 
HETATM   20  C   UNL     1     -40.274  52.833 -51.858  1.00  0.00     0.069 A 
HETATM   21 CL   UNL     1     -39.830  53.329 -50.266  1.00  0.00    -0.081 Cl
HETATM   22  C   UNL     1     -39.670  51.697 -52.398  1.00  0.00     0.050 A 
HETATM   23  C   UNL     1     -40.020  51.284 -53.681  1.00  0.00     0.035 A 
HETATM   24 CL   UNL     1     -39.286  49.884 -54.356  1.00  0.00    -0.084 Cl
HETATM   25  C   UNL     1     -40.961  51.997 -54.428  1.00  0.00     0.026 A 
HETATM   26  C   UNL     1     -41.568  53.131 -53.886  1.00  0.00     0.040 A 
ENDBRANCH  18  19
ENDBRANCH  17  18
ENDBRANCH  14  17
ENDBRANCH  13  14
ENDBRANCH   5  13
BRANCH  10  27
HETATM   27  C   UNL     1     -45.543  58.329 -55.893  1.00  0.00     0.175 C 
BRANCH  27  28
HETATM   28  C   UNL     1     -44.413  58.009 -56.893  1.00  0.00     0.256 C 
BRANCH  28  29
HETATM   29  N   UNL     1     -43.720  59.222 -57.481  1.00  0.00    -0.066 N 
HETATM   30  H   UNL     1     -43.862  59.984 -56.800  1.00  0.00     0.280 HD
HETATM   31  C   UNL     1     -42.194  59.086 -57.587  1.00  0.00     0.261 C 
HETATM   32  C   UNL     1     -41.593  60.416 -58.059  1.00  0.00     0.195 C 
HETATM   33  O   UNL     1     -42.167  60.805 -59.311  1.00  0.00    -0.388 OA
HETATM   34  C   UNL     1     -43.575  61.035 -59.207  1.00  0.00     0.195 C 
HETATM   35  C   UNL     1     -44.298  59.746 -58.799  1.00  0.00     0.261 C 
ENDBRANCH  28  29
ENDBRANCH  27  28
ENDBRANCH  10  27
TORSDOF 9
ENDMDL
