MODEL 1
REMARK VINA RESULT:      -8.4      0.000      0.000
REMARK  5 active torsions:
REMARK  status: ('A' for Active; 'I' for Inactive)
REMARK    1  A    between atoms: C_4  and  C_5 
REMARK    2  A    between atoms: C_5  and  S_6 
REMARK    3  A    between atoms: S_6  and  C_7 
REMARK    4  A    between atoms: C_9  and  C_10 
REMARK       I    between atoms: C_10  and  N_11 
REMARK    5  A    between atoms: N_11  and  C_12 
ROOT
HETATM    1  C   UNL     1     -41.175  55.274 -50.831  1.00  0.00     0.189 A 
HETATM    2  N   UNL     1     -41.780  55.441 -52.017  1.00  0.00    -0.216 NA
HETATM    3  C   UNL     1     -41.962  56.737 -52.423  1.00  0.00     0.150 A 
HETATM    4  C   UNL     1     -41.516  57.837 -51.711  1.00  0.00     0.086 A 
HETATM    5 CL   UNL     1     -41.631  59.485 -52.167  1.00  0.00    -0.080 Cl
HETATM    6  C   UNL     1     -40.886  57.526 -50.528  1.00  0.00     0.146 A 
HETATM    7  N   UNL     1     -40.712  56.270 -50.067  1.00  0.00    -0.234 NA
ENDROOT
BRANCH   3   8
HETATM    8  C   UNL     1     -42.705  56.861 -53.728  1.00  0.00     0.278 C 
HETATM    9  N   UNL     1     -42.033  56.276 -54.782  1.00  0.00    -0.300 N 
HETATM   10  H   UNL     1     -41.147  55.821 -54.606  1.00  0.00     0.171 HD
HETATM   11  O   UNL     1     -43.787  57.424 -53.784  1.00  0.00    -0.265 OA
BRANCH   9  12
HETATM   12  C   UNL     1     -42.516  56.285 -56.059  1.00  0.00     0.174 A 
HETATM   13  S   UNL     1     -43.167  54.795 -56.570  1.00  0.00    -0.050 SA
HETATM   14  C   UNL     1     -43.507  55.487 -58.115  1.00  0.00     0.039 A 
HETATM   15  C   UNL     1     -43.107  56.826 -58.104  1.00  0.00     0.077 A 
HETATM   16  C   UNL     1     -44.085  54.892 -59.249  1.00  0.00     0.045 A 
HETATM   17  N   UNL     1     -42.536  57.262 -56.925  1.00  0.00    -0.223 NA
HETATM   18  C   UNL     1     -43.307  57.605 -59.262  1.00  0.00     0.035 A 
HETATM   19  C   UNL     1     -43.886  57.029 -60.397  1.00  0.00     0.026 A 
HETATM   20  C   UNL     1     -44.263  55.689 -60.384  1.00  0.00     0.035 A 
HETATM   21 CL   UNL     1     -44.964  54.995 -61.796  1.00  0.00    -0.084 Cl
ENDBRANCH   9  12
ENDBRANCH   3   8
BRANCH   1  22
HETATM   22  S   UNL     1     -41.037  53.642 -50.172  1.00  0.00    -0.086 SA
BRANCH  22  23
HETATM   23  C   UNL     1     -39.489  53.141 -50.974  1.00  0.00     0.121 C 
BRANCH  23  24
HETATM   24  C   UNL     1     -39.735  52.087 -52.024  1.00  0.00    -0.049 A 
HETATM   25  C   UNL     1     -39.483  50.733 -51.753  1.00  0.00     0.008 A 
HETATM   26  C   UNL     1     -39.681  49.763 -52.738  1.00  0.00     0.001 A 
HETATM   27  C   UNL     1     -40.132  50.135 -54.004  1.00  0.00     0.000 A 
HETATM   28  C   UNL     1     -40.382  51.476 -54.287  1.00  0.00     0.001 A 
HETATM   29  C   UNL     1     -40.181  52.448 -53.305  1.00  0.00     0.008 A 
ENDBRANCH  23  24
ENDBRANCH  22  23
ENDBRANCH   1  22
TORSDOF 5
ENDMDL
MODEL 2
REMARK VINA RESULT:      -8.2      3.006      7.806
REMARK  5 active torsions:
REMARK  status: ('A' for Active; 'I' for Inactive)
REMARK    1  A    between atoms: C_4  and  C_5 
REMARK    2  A    between atoms: C_5  and  S_6 
REMARK    3  A    between atoms: S_6  and  C_7 
REMARK    4  A    between atoms: C_9  and  C_10 
REMARK       I    between atoms: C_10  and  N_11 
REMARK    5  A    between atoms: N_11  and  C_12 
ROOT
HETATM    1  C   UNL     1     -42.592  59.113 -56.198  1.00  0.00     0.189 A 
HETATM    2  N   UNL     1     -42.402  57.873 -55.725  1.00  0.00    -0.216 NA
HETATM    3  C   UNL     1     -42.507  56.857 -56.638  1.00  0.00     0.150 A 
HETATM    4  C   UNL     1     -42.740  57.056 -57.987  1.00  0.00     0.086 A 
HETATM    5 CL   UNL     1     -42.817  55.861 -59.215  1.00  0.00    -0.080 Cl
HETATM    6  C   UNL     1     -42.885  58.375 -58.347  1.00  0.00     0.146 A 
HETATM    7  N   UNL     1     -42.825  59.410 -57.483  1.00  0.00    -0.234 NA
ENDROOT
BRANCH   3   8
HETATM    8  C   UNL     1     -42.351  55.485 -56.034  1.00  0.00     0.278 C 
HETATM    9  N   UNL     1     -41.205  55.364 -55.275  1.00  0.00    -0.300 N 
HETATM   10  H   UNL     1     -40.596  56.166 -55.176  1.00  0.00     0.171 HD
HETATM   11  O   UNL     1     -43.187  54.616 -56.225  1.00  0.00    -0.265 OA
BRANCH   9  12
HETATM   12  C   UNL     1     -40.855  54.202 -54.649  1.00  0.00     0.174 A 
HETATM   13  S   UNL     1     -40.812  54.310 -52.949  1.00  0.00    -0.050 SA
HETATM   14  C   UNL     1     -40.317  52.658 -52.868  1.00  0.00     0.039 A 
HETATM   15  C   UNL     1     -40.245  52.148 -54.166  1.00  0.00     0.077 A 
HETATM   16  C   UNL     1     -40.018  51.873 -51.742  1.00  0.00     0.045 A 
HETATM   17  N   UNL     1     -40.548  53.046 -55.171  1.00  0.00    -0.223 NA
HETATM   18  C   UNL     1     -39.877  50.799 -54.348  1.00  0.00     0.035 A 
HETATM   19  C   UNL     1     -39.581  50.003 -53.237  1.00  0.00     0.026 A 
HETATM   20  C   UNL     1     -39.648  50.541 -51.955  1.00  0.00     0.035 A 
HETATM   21 CL   UNL     1     -39.269  49.548 -50.601  1.00  0.00    -0.084 Cl
ENDBRANCH   9  12
ENDBRANCH   3   8
BRANCH   1  22
HETATM   22  S   UNL     1     -42.618  60.462 -55.058  1.00  0.00    -0.086 SA
BRANCH  22  23
HETATM   23  C   UNL     1     -43.229  59.585 -53.593  1.00  0.00     0.121 C 
BRANCH  23  24
HETATM   24  C   UNL     1     -42.197  59.577 -52.493  1.00  0.00    -0.049 A 
HETATM   25  C   UNL     1     -42.478  60.154 -51.244  1.00  0.00     0.008 A 
HETATM   26  C   UNL     1     -41.510  60.173 -50.238  1.00  0.00     0.001 A 
HETATM   27  C   UNL     1     -40.252  59.618 -50.468  1.00  0.00     0.000 A 
HETATM   28  C   UNL     1     -39.960  59.047 -51.704  1.00  0.00     0.001 A 
HETATM   29  C   UNL     1     -40.924  59.029 -52.714  1.00  0.00     0.008 A 
ENDBRANCH  23  24
ENDBRANCH  22  23
ENDBRANCH   1  22
TORSDOF 5
ENDMDL
MODEL 3
REMARK VINA RESULT:      -8.2      2.871      3.448
REMARK  5 active torsions:
REMARK  status: ('A' for Active; 'I' for Inactive)
REMARK    1  A    between atoms: C_4  and  C_5 
REMARK    2  A    between atoms: C_5  and  S_6 
REMARK    3  A    between atoms: S_6  and  C_7 
REMARK    4  A    between atoms: C_9  and  C_10 
REMARK       I    between atoms: C_10  and  N_11 
REMARK    5  A    between atoms: N_11  and  C_12 
ROOT
HETATM    1  C   UNL     1     -41.684  55.860 -51.675  1.00  0.00     0.189 A 
HETATM    2  N   UNL     1     -41.304  56.725 -52.626  1.00  0.00    -0.216 NA
HETATM    3  C   UNL     1     -42.172  57.753 -52.889  1.00  0.00     0.150 A 
HETATM    4  C   UNL     1     -43.355  57.955 -52.201  1.00  0.00     0.086 A 
HETATM    5 CL   UNL     1     -44.467  59.244 -52.405  1.00  0.00    -0.080 Cl
HETATM    6  C   UNL     1     -43.613  57.015 -51.231  1.00  0.00     0.146 A 
HETATM    7  N   UNL     1     -42.809  55.967 -50.956  1.00  0.00    -0.234 NA
ENDROOT
BRANCH   3   8
HETATM    8  C   UNL     1     -41.720  58.650 -54.011  1.00  0.00     0.278 C 
HETATM    9  N   UNL     1     -42.482  58.503 -55.153  1.00  0.00    -0.300 N 
HETATM   10  H   UNL     1     -43.254  57.848 -55.144  1.00  0.00     0.171 HD
HETATM   11  O   UNL     1     -40.777  59.412 -53.866  1.00  0.00    -0.265 OA
BRANCH   9  12
HETATM   12  C   UNL     1     -42.239  59.205 -56.297  1.00  0.00     0.174 A 
HETATM   13  S   UNL     1     -42.865  58.483 -57.708  1.00  0.00    -0.050 SA
HETATM   14  C   UNL     1     -42.212  59.776 -58.647  1.00  0.00     0.039 A 
HETATM   15  C   UNL     1     -41.578  60.677 -57.788  1.00  0.00     0.077 A 
HETATM   16  C   UNL     1     -42.258  59.979 -60.036  1.00  0.00     0.045 A 
HETATM   17  N   UNL     1     -41.596  60.331 -56.451  1.00  0.00    -0.223 NA
HETATM   18  C   UNL     1     -40.982  61.833 -58.333  1.00  0.00     0.035 A 
HETATM   19  C   UNL     1     -41.024  62.051 -59.714  1.00  0.00     0.026 A 
HETATM   20  C   UNL     1     -41.652  61.130 -60.547  1.00  0.00     0.035 A 
HETATM   21 CL   UNL     1     -41.684  61.412 -62.246  1.00  0.00    -0.084 Cl
ENDBRANCH   9  12
ENDBRANCH   3   8
BRANCH   1  22
HETATM   22  S   UNL     1     -40.691  54.430 -51.382  1.00  0.00    -0.086 SA
BRANCH  22  23
HETATM   23  C   UNL     1     -40.580  53.807 -53.081  1.00  0.00     0.121 C 
BRANCH  23  24
HETATM   24  C   UNL     1     -40.218  52.343 -53.102  1.00  0.00    -0.049 A 
HETATM   25  C   UNL     1     -40.343  51.592 -54.281  1.00  0.00     0.008 A 
HETATM   26  C   UNL     1     -40.036  50.229 -54.290  1.00  0.00     0.001 A 
HETATM   27  C   UNL     1     -39.604  49.603 -53.122  1.00  0.00     0.000 A 
HETATM   28  C   UNL     1     -39.480  50.336 -51.945  1.00  0.00     0.001 A 
HETATM   29  C   UNL     1     -39.789  51.698 -51.932  1.00  0.00     0.008 A 
ENDBRANCH  23  24
ENDBRANCH  22  23
ENDBRANCH   1  22
TORSDOF 5
ENDMDL
MODEL 4
REMARK VINA RESULT:      -8.1      2.863      7.898
REMARK  5 active torsions:
REMARK  status: ('A' for Active; 'I' for Inactive)
REMARK    1  A    between atoms: C_4  and  C_5 
REMARK    2  A    between atoms: C_5  and  S_6 
REMARK    3  A    between atoms: S_6  and  C_7 
REMARK    4  A    between atoms: C_9  and  C_10 
REMARK       I    between atoms: C_10  and  N_11 
REMARK    5  A    between atoms: N_11  and  C_12 
ROOT
HETATM    1  C   UNL     1     -42.473  59.123 -57.152  1.00  0.00     0.189 A 
HETATM    2  N   UNL     1     -42.483  57.885 -56.637  1.00  0.00    -0.216 NA
HETATM    3  C   UNL     1     -42.258  57.790 -55.289  1.00  0.00     0.150 A 
HETATM    4  C   UNL     1     -42.080  58.883 -54.460  1.00  0.00     0.086 A 
HETATM    5 CL   UNL     1     -41.864  58.871 -52.759  1.00  0.00    -0.080 Cl
HETATM    6  C   UNL     1     -42.121  60.096 -55.107  1.00  0.00     0.146 A 
HETATM    7  N   UNL     1     -42.306  60.242 -56.436  1.00  0.00    -0.234 NA
ENDROOT
BRANCH   3   8
HETATM    8  C   UNL     1     -42.216  56.371 -54.784  1.00  0.00     0.278 C 
HETATM    9  N   UNL     1     -40.936  55.945 -54.495  1.00  0.00    -0.300 N 
HETATM   10  H   UNL     1     -40.166  56.588 -54.623  1.00  0.00     0.171 HD
HETATM   11  O   UNL     1     -43.241  55.718 -54.660  1.00  0.00    -0.265 OA
BRANCH   9  12
HETATM   12  C   UNL     1     -40.663  54.687 -54.039  1.00  0.00     0.174 A 
HETATM   13  S   UNL     1     -40.610  54.555 -52.341  1.00  0.00    -0.050 SA
HETATM   14  C   UNL     1     -40.225  52.879 -52.495  1.00  0.00     0.039 A 
HETATM   15  C   UNL     1     -40.189  52.551 -53.853  1.00  0.00     0.077 A 
HETATM   16  C   UNL     1     -39.976  51.927 -51.493  1.00  0.00     0.045 A 
HETATM   17  N   UNL     1     -40.433  53.597 -54.720  1.00  0.00    -0.223 NA
HETATM   18  C   UNL     1     -39.910  51.219 -54.225  1.00  0.00     0.035 A 
HETATM   19  C   UNL     1     -39.666  50.259 -53.238  1.00  0.00     0.026 A 
HETATM   20  C   UNL     1     -39.696  50.616 -51.893  1.00  0.00     0.035 A 
HETATM   21 CL   UNL     1     -39.380  49.421 -50.694  1.00  0.00    -0.084 Cl
ENDBRANCH   9  12
ENDBRANCH   3   8
BRANCH   1  22
HETATM   22  S   UNL     1     -42.609  59.317 -58.901  1.00  0.00    -0.086 SA
BRANCH  22  23
HETATM   23  C   UNL     1     -42.203  57.624 -59.409  1.00  0.00     0.121 C 
BRANCH  23  24
HETATM   24  C   UNL     1     -43.447  56.846 -59.758  1.00  0.00    -0.049 A 
HETATM   25  C   UNL     1     -44.640  57.511 -60.080  1.00  0.00     0.008 A 
HETATM   26  C   UNL     1     -45.798  56.788 -60.373  1.00  0.00     0.001 A 
HETATM   27  C   UNL     1     -45.777  55.394 -60.344  1.00  0.00     0.000 A 
HETATM   28  C   UNL     1     -44.601  54.723 -60.021  1.00  0.00     0.001 A 
HETATM   29  C   UNL     1     -43.442  55.443 -59.725  1.00  0.00     0.008 A 
ENDBRANCH  23  24
ENDBRANCH  22  23
ENDBRANCH   1  22
TORSDOF 5
ENDMDL
MODEL 5
REMARK VINA RESULT:      -8.0      1.531      1.910
REMARK  5 active torsions:
REMARK  status: ('A' for Active; 'I' for Inactive)
REMARK    1  A    between atoms: C_4  and  C_5 
REMARK    2  A    between atoms: C_5  and  S_6 
REMARK    3  A    between atoms: S_6  and  C_7 
REMARK    4  A    between atoms: C_9  and  C_10 
REMARK       I    between atoms: C_10  and  N_11 
REMARK    5  A    between atoms: N_11  and  C_12 
ROOT
HETATM    1  C   UNL     1     -41.441  55.294 -51.017  1.00  0.00     0.189 A 
HETATM    2  N   UNL     1     -42.015  55.620 -52.185  1.00  0.00    -0.216 NA
HETATM    3  C   UNL     1     -42.099  56.960 -52.462  1.00  0.00     0.150 A 
HETATM    4  C   UNL     1     -41.588  57.949 -51.640  1.00  0.00     0.086 A 
HETATM    5 CL   UNL     1     -41.581  59.639 -51.931  1.00  0.00    -0.080 Cl
HETATM    6  C   UNL     1     -40.999  57.480 -50.489  1.00  0.00     0.146 A 
HETATM    7  N   UNL     1     -40.920  56.175 -50.154  1.00  0.00    -0.234 NA
ENDROOT
BRANCH   3   8
HETATM    8  C   UNL     1     -42.812  57.264 -53.754  1.00  0.00     0.278 C 
HETATM    9  N   UNL     1     -41.957  57.321 -54.835  1.00  0.00    -0.300 N 
HETATM   10  H   UNL     1     -40.971  57.149 -54.689  1.00  0.00     0.171 HD
HETATM   11  O   UNL     1     -44.023  57.427 -53.780  1.00  0.00    -0.265 OA
BRANCH   9  12
HETATM   12  C   UNL     1     -42.387  57.599 -56.101  1.00  0.00     0.174 A 
HETATM   13  S   UNL     1     -42.431  59.261 -56.474  1.00  0.00    -0.050 SA
HETATM   14  C   UNL     1     -43.036  58.880 -58.046  1.00  0.00     0.039 A 
HETATM   15  C   UNL     1     -43.135  57.491 -58.163  1.00  0.00     0.077 A 
HETATM   16  C   UNL     1     -43.393  59.743 -59.095  1.00  0.00     0.045 A 
HETATM   17  N   UNL     1     -42.769  56.776 -57.040  1.00  0.00    -0.223 NA
HETATM   18  C   UNL     1     -43.593  56.942 -59.378  1.00  0.00     0.035 A 
HETATM   19  C   UNL     1     -43.947  57.788 -60.434  1.00  0.00     0.026 A 
HETATM   20  C   UNL     1     -43.850  59.168 -60.285  1.00  0.00     0.035 A 
HETATM   21 CL   UNL     1     -44.301  60.193 -61.594  1.00  0.00    -0.084 Cl
ENDBRANCH   9  12
ENDBRANCH   3   8
BRANCH   1  22
HETATM   22  S   UNL     1     -41.427  53.600 -50.523  1.00  0.00    -0.086 SA
BRANCH  22  23
HETATM   23  C   UNL     1     -39.777  53.141 -51.122  1.00  0.00     0.121 C 
BRANCH  23  24
HETATM   24  C   UNL     1     -39.854  52.015 -52.123  1.00  0.00    -0.049 A 
HETATM   25  C   UNL     1     -39.511  50.705 -51.753  1.00  0.00     0.008 A 
HETATM   26  C   UNL     1     -39.553  49.670 -52.690  1.00  0.00     0.001 A 
HETATM   27  C   UNL     1     -39.936  49.933 -54.005  1.00  0.00     0.000 A 
HETATM   28  C   UNL     1     -40.275  51.229 -54.384  1.00  0.00     0.001 A 
HETATM   29  C   UNL     1     -40.231  52.267 -53.451  1.00  0.00     0.008 A 
ENDBRANCH  23  24
ENDBRANCH  22  23
ENDBRANCH   1  22
TORSDOF 5
ENDMDL
MODEL 6
REMARK VINA RESULT:      -7.9      2.837      3.457
REMARK  5 active torsions:
REMARK  status: ('A' for Active; 'I' for Inactive)
REMARK    1  A    between atoms: C_4  and  C_5 
REMARK    2  A    between atoms: C_5  and  S_6 
REMARK    3  A    between atoms: S_6  and  C_7 
REMARK    4  A    between atoms: C_9  and  C_10 
REMARK       I    between atoms: C_10  and  N_11 
REMARK    5  A    between atoms: N_11  and  C_12 
ROOT
HETATM    1  C   UNL     1     -43.571  55.832 -51.896  1.00  0.00     0.189 A 
HETATM    2  N   UNL     1     -43.528  56.303 -53.150  1.00  0.00    -0.216 NA
HETATM    3  C   UNL     1     -44.167  57.495 -53.369  1.00  0.00     0.150 A 
HETATM    4  C   UNL     1     -44.787  58.230 -52.374  1.00  0.00     0.086 A 
HETATM    5 CL   UNL     1     -45.548  59.758 -52.532  1.00  0.00    -0.080 Cl
HETATM    6  C   UNL     1     -44.734  57.650 -51.127  1.00  0.00     0.146 A 
HETATM    7  N   UNL     1     -44.147  56.464 -50.865  1.00  0.00    -0.234 NA
ENDROOT
BRANCH   3   8
HETATM    8  C   UNL     1     -44.140  57.938 -54.809  1.00  0.00     0.278 C 
HETATM    9  N   UNL     1     -42.860  58.147 -55.280  1.00  0.00    -0.300 N 
HETATM   10  H   UNL     1     -42.078  57.982 -54.659  1.00  0.00     0.171 HD
HETATM   11  O   UNL     1     -45.175  58.074 -55.444  1.00  0.00    -0.265 OA
BRANCH   9  12
HETATM   12  C   UNL     1     -42.603  58.568 -56.553  1.00  0.00     0.174 A 
HETATM   13  S   UNL     1     -42.366  60.249 -56.699  1.00  0.00    -0.050 SA
HETATM   14  C   UNL     1     -42.149  60.059 -58.401  1.00  0.00     0.039 A 
HETATM   15  C   UNL     1     -42.256  58.702 -58.717  1.00  0.00     0.077 A 
HETATM   16  C   UNL     1     -41.900  61.034 -59.381  1.00  0.00     0.045 A 
HETATM   17  N   UNL     1     -42.523  57.866 -57.651  1.00  0.00    -0.223 NA
HETATM   18  C   UNL     1     -42.092  58.301 -60.059  1.00  0.00     0.035 A 
HETATM   19  C   UNL     1     -41.839  59.260 -61.045  1.00  0.00     0.026 A 
HETATM   20  C   UNL     1     -41.751  60.606 -60.704  1.00  0.00     0.035 A 
HETATM   21 CL   UNL     1     -41.450  61.772 -61.935  1.00  0.00    -0.084 Cl
ENDBRANCH   9  12
ENDBRANCH   3   8
BRANCH   1  22
HETATM   22  S   UNL     1     -42.898  54.233 -51.566  1.00  0.00    -0.086 SA
BRANCH  22  23
HETATM   23  C   UNL     1     -41.271  54.444 -52.340  1.00  0.00     0.121 C 
BRANCH  23  24
HETATM   24  C   UNL     1     -40.674  53.113 -52.724  1.00  0.00    -0.049 A 
HETATM   25  C   UNL     1     -40.865  52.587 -54.011  1.00  0.00     0.008 A 
HETATM   26  C   UNL     1     -40.337  51.341 -54.354  1.00  0.00     0.001 A 
HETATM   27  C   UNL     1     -39.614  50.606 -53.415  1.00  0.00     0.000 A 
HETATM   28  C   UNL     1     -39.421  51.115 -52.133  1.00  0.00     0.001 A 
HETATM   29  C   UNL     1     -39.950  52.360 -51.786  1.00  0.00     0.008 A 
ENDBRANCH  23  24
ENDBRANCH  22  23
ENDBRANCH   1  22
TORSDOF 5
ENDMDL
MODEL 7
REMARK VINA RESULT:      -7.9      3.139      7.602
REMARK  5 active torsions:
REMARK  status: ('A' for Active; 'I' for Inactive)
REMARK    1  A    between atoms: C_4  and  C_5 
REMARK    2  A    between atoms: C_5  and  S_6 
REMARK    3  A    between atoms: S_6  and  C_7 
REMARK    4  A    between atoms: C_9  and  C_10 
REMARK       I    between atoms: C_10  and  N_11 
REMARK    5  A    between atoms: N_11  and  C_12 
ROOT
HETATM    1  C   UNL     1     -42.475  60.645 -55.752  1.00  0.00     0.189 A 
HETATM    2  N   UNL     1     -41.888  59.504 -55.361  1.00  0.00    -0.216 NA
HETATM    3  C   UNL     1     -41.745  59.332 -54.009  1.00  0.00     0.150 A 
HETATM    4  C   UNL     1     -42.213  60.230 -53.066  1.00  0.00     0.086 A 
HETATM    5 CL   UNL     1     -42.146  60.072 -51.360  1.00  0.00    -0.080 Cl
HETATM    6  C   UNL     1     -42.822  61.343 -53.598  1.00  0.00     0.146 A 
HETATM    7  N   UNL     1     -42.958  61.576 -54.920  1.00  0.00    -0.234 NA
ENDROOT
BRANCH   3   8
HETATM    8  C   UNL     1     -41.019  58.066 -53.636  1.00  0.00     0.278 C 
HETATM    9  N   UNL     1     -41.788  56.935 -53.824  1.00  0.00    -0.300 N 
HETATM   10  H   UNL     1     -42.725  57.036 -54.192  1.00  0.00     0.171 HD
HETATM   11  O   UNL     1     -39.870  58.099 -53.223  1.00  0.00    -0.265 OA
BRANCH   9  12
HETATM   12  C   UNL     1     -41.335  55.680 -53.535  1.00  0.00     0.174 A 
HETATM   13  S   UNL     1     -41.382  55.285 -51.878  1.00  0.00    -0.050 SA
HETATM   14  C   UNL     1     -40.704  53.739 -52.239  1.00  0.00     0.039 A 
HETATM   15  C   UNL     1     -40.515  53.644 -53.620  1.00  0.00     0.077 A 
HETATM   16  C   UNL     1     -40.367  52.689 -51.369  1.00  0.00     0.045 A 
HETATM   17  N   UNL     1     -40.873  54.765 -54.343  1.00  0.00    -0.223 NA
HETATM   18  C   UNL     1     -39.985  52.452 -54.155  1.00  0.00     0.035 A 
HETATM   19  C   UNL     1     -39.650  51.396 -53.301  1.00  0.00     0.026 A 
HETATM   20  C   UNL     1     -39.837  51.522 -51.928  1.00  0.00     0.035 A 
HETATM   21 CL   UNL     1     -39.407  50.214 -50.893  1.00  0.00    -0.084 Cl
ENDBRANCH   9  12
ENDBRANCH   3   8
BRANCH   1  22
HETATM   22  S   UNL     1     -42.564  61.005 -57.478  1.00  0.00    -0.086 SA
BRANCH  22  23
HETATM   23  C   UNL     1     -43.942  59.917 -57.927  1.00  0.00     0.121 C 
BRANCH  23  24
HETATM   24  C   UNL     1     -43.447  58.647 -58.573  1.00  0.00    -0.049 A 
HETATM   25  C   UNL     1     -43.921  57.396 -58.148  1.00  0.00     0.008 A 
HETATM   26  C   UNL     1     -43.437  56.220 -58.726  1.00  0.00     0.001 A 
HETATM   27  C   UNL     1     -42.474  56.281 -59.733  1.00  0.00     0.000 A 
HETATM   28  C   UNL     1     -41.993  57.517 -60.159  1.00  0.00     0.001 A 
HETATM   29  C   UNL     1     -42.472  58.694 -59.581  1.00  0.00     0.008 A 
ENDBRANCH  23  24
ENDBRANCH  22  23
ENDBRANCH   1  22
TORSDOF 5
ENDMDL
MODEL 8
REMARK VINA RESULT:      -7.7      3.215      8.960
REMARK  5 active torsions:
REMARK  status: ('A' for Active; 'I' for Inactive)
REMARK    1  A    between atoms: C_4  and  C_5 
REMARK    2  A    between atoms: C_5  and  S_6 
REMARK    3  A    between atoms: S_6  and  C_7 
REMARK    4  A    between atoms: C_9  and  C_10 
REMARK       I    between atoms: C_10  and  N_11 
REMARK    5  A    between atoms: N_11  and  C_12 
ROOT
HETATM    1  C   UNL     1     -43.285  58.240 -57.946  1.00  0.00     0.189 A 
HETATM    2  N   UNL     1     -43.207  57.099 -57.246  1.00  0.00    -0.216 NA
HETATM    3  C   UNL     1     -42.593  57.182 -56.024  1.00  0.00     0.150 A 
HETATM    4  C   UNL     1     -42.116  58.362 -55.481  1.00  0.00     0.086 A 
HETATM    5 CL   UNL     1     -41.401  58.580 -53.939  1.00  0.00    -0.080 Cl
HETATM    6  C   UNL     1     -42.285  59.464 -56.287  1.00  0.00     0.146 A 
HETATM    7  N   UNL     1     -42.852  59.430 -57.511  1.00  0.00    -0.234 NA
ENDROOT
BRANCH   3   8
HETATM    8  C   UNL     1     -42.477  55.856 -55.317  1.00  0.00     0.278 C 
HETATM    9  N   UNL     1     -41.168  55.443 -55.169  1.00  0.00    -0.300 N 
HETATM   10  H   UNL     1     -40.426  56.037 -55.516  1.00  0.00     0.171 HD
HETATM   11  O   UNL     1     -43.471  55.260 -54.933  1.00  0.00    -0.265 OA
BRANCH   9  12
HETATM   12  C   UNL     1     -40.831  54.263 -54.573  1.00  0.00     0.174 A 
HETATM   13  S   UNL     1     -40.621  54.368 -52.885  1.00  0.00    -0.050 SA
HETATM   14  C   UNL     1     -40.220  52.689 -52.842  1.00  0.00     0.039 A 
HETATM   15  C   UNL     1     -40.303  52.175 -54.139  1.00  0.00     0.077 A 
HETATM   16  C   UNL     1     -39.862  51.887 -51.745  1.00  0.00     0.045 A 
HETATM   17  N   UNL     1     -40.645  53.090 -55.115  1.00  0.00    -0.223 NA
HETATM   18  C   UNL     1     -40.035  50.807 -54.347  1.00  0.00     0.035 A 
HETATM   19  C   UNL     1     -39.683  49.994 -53.264  1.00  0.00     0.026 A 
HETATM   20  C   UNL     1     -39.596  50.535 -51.985  1.00  0.00     0.035 A 
HETATM   21 CL   UNL     1     -39.149  49.521 -50.667  1.00  0.00    -0.084 Cl
ENDBRANCH   9  12
ENDBRANCH   3   8
BRANCH   1  22
HETATM   22  S   UNL     1     -43.930  58.186 -59.589  1.00  0.00    -0.086 SA
BRANCH  22  23
HETATM   23  C   UNL     1     -45.404  57.175 -59.284  1.00  0.00     0.121 C 
BRANCH  23  24
HETATM   24  C   UNL     1     -46.496  57.490 -60.276  1.00  0.00    -0.049 A 
HETATM   25  C   UNL     1     -47.153  56.460 -60.967  1.00  0.00     0.008 A 
HETATM   26  C   UNL     1     -48.142  56.756 -61.908  1.00  0.00     0.001 A 
HETATM   27  C   UNL     1     -48.483  58.082 -62.169  1.00  0.00     0.000 A 
HETATM   28  C   UNL     1     -47.835  59.113 -61.493  1.00  0.00     0.001 A 
HETATM   29  C   UNL     1     -46.844  58.821 -60.554  1.00  0.00     0.008 A 
ENDBRANCH  23  24
ENDBRANCH  22  23
ENDBRANCH   1  22
TORSDOF 5
ENDMDL
MODEL 9
REMARK VINA RESULT:      -7.6      3.944      9.084
REMARK  5 active torsions:
REMARK  status: ('A' for Active; 'I' for Inactive)
REMARK    1  A    between atoms: C_4  and  C_5 
REMARK    2  A    between atoms: C_5  and  S_6 
REMARK    3  A    between atoms: S_6  and  C_7 
REMARK    4  A    between atoms: C_9  and  C_10 
REMARK       I    between atoms: C_10  and  N_11 
REMARK    5  A    between atoms: N_11  and  C_12 
ROOT
HETATM    1  C   UNL     1     -42.394  59.226 -57.121  1.00  0.00     0.189 A 
HETATM    2  N   UNL     1     -42.406  57.976 -56.637  1.00  0.00    -0.216 NA
HETATM    3  C   UNL     1     -42.273  57.854 -55.278  1.00  0.00     0.150 A 
HETATM    4  C   UNL     1     -42.184  58.931 -54.414  1.00  0.00     0.086 A 
HETATM    5 CL   UNL     1     -42.088  58.883 -52.703  1.00  0.00    -0.080 Cl
HETATM    6  C   UNL     1     -42.214  60.157 -55.035  1.00  0.00     0.146 A 
HETATM    7  N   UNL     1     -42.309  60.331 -56.370  1.00  0.00    -0.234 NA
ENDROOT
BRANCH   3   8
HETATM    8  C   UNL     1     -42.226  56.424 -54.804  1.00  0.00     0.278 C 
HETATM    9  N   UNL     1     -40.958  56.026 -54.435  1.00  0.00    -0.300 N 
HETATM   10  H   UNL     1     -40.199  56.692 -54.494  1.00  0.00     0.171 HD
HETATM   11  O   UNL     1     -43.238  55.741 -54.766  1.00  0.00    -0.265 OA
BRANCH   9  12
HETATM   12  C   UNL     1     -40.681  54.765 -53.990  1.00  0.00     0.174 A 
HETATM   13  S   UNL     1     -40.647  54.615 -52.293  1.00  0.00    -0.050 SA
HETATM   14  C   UNL     1     -40.249  52.943 -52.461  1.00  0.00     0.039 A 
HETATM   15  C   UNL     1     -40.196  52.630 -53.822  1.00  0.00     0.077 A 
HETATM   16  C   UNL     1     -40.005  51.981 -51.466  1.00  0.00     0.045 A 
HETATM   17  N   UNL     1     -40.437  53.684 -54.680  1.00  0.00    -0.223 NA
HETATM   18  C   UNL     1     -39.905  51.304 -54.204  1.00  0.00     0.035 A 
HETATM   19  C   UNL     1     -39.665  50.335 -53.225  1.00  0.00     0.026 A 
HETATM   20  C   UNL     1     -39.712  50.678 -51.877  1.00  0.00     0.035 A 
HETATM   21 CL   UNL     1     -39.402  49.472 -50.687  1.00  0.00    -0.084 Cl
ENDBRANCH   9  12
ENDBRANCH   3   8
BRANCH   1  22
HETATM   22  S   UNL     1     -42.412  59.459 -58.871  1.00  0.00    -0.086 SA
BRANCH  22  23
HETATM   23  C   UNL     1     -42.693  61.250 -58.917  1.00  0.00     0.121 C 
BRANCH  23  24
HETATM   24  C   UNL     1     -41.527  61.969 -59.549  1.00  0.00    -0.049 A 
HETATM   25  C   UNL     1     -41.416  62.066 -60.945  1.00  0.00     0.008 A 
HETATM   26  C   UNL     1     -40.319  62.704 -61.527  1.00  0.00     0.001 A 
HETATM   27  C   UNL     1     -39.321  63.251 -60.722  1.00  0.00     0.000 A 
HETATM   28  C   UNL     1     -39.417  63.158 -59.335  1.00  0.00     0.001 A 
HETATM   29  C   UNL     1     -40.511  62.517 -58.750  1.00  0.00     0.008 A 
ENDBRANCH  23  24
ENDBRANCH  22  23
ENDBRANCH   1  22
TORSDOF 5
ENDMDL
MODEL 10
REMARK VINA RESULT:      -7.3      4.227      9.825
REMARK  5 active torsions:
REMARK  status: ('A' for Active; 'I' for Inactive)
REMARK    1  A    between atoms: C_4  and  C_5 
REMARK    2  A    between atoms: C_5  and  S_6 
REMARK    3  A    between atoms: S_6  and  C_7 
REMARK    4  A    between atoms: C_9  and  C_10 
REMARK       I    between atoms: C_10  and  N_11 
REMARK    5  A    between atoms: N_11  and  C_12 
ROOT
HETATM    1  C   UNL     1     -42.767  59.524 -59.181  1.00  0.00     0.189 A 
HETATM    2  N   UNL     1     -42.715  58.914 -57.988  1.00  0.00    -0.216 NA
HETATM    3  C   UNL     1     -43.062  57.588 -57.973  1.00  0.00     0.150 A 
HETATM    4  C   UNL     1     -43.400  56.869 -59.106  1.00  0.00     0.086 A 
HETATM    5 CL   UNL     1     -43.778  55.199 -59.200  1.00  0.00    -0.080 Cl
HETATM    6  C   UNL     1     -43.386  57.605 -60.268  1.00  0.00     0.146 A 
HETATM    7  N   UNL     1     -43.085  58.918 -60.332  1.00  0.00    -0.234 NA
ENDROOT
BRANCH   3   8
HETATM    8  C   UNL     1     -43.048  56.977 -56.596  1.00  0.00     0.278 C 
HETATM    9  N   UNL     1     -41.804  56.500 -56.236  1.00  0.00    -0.300 N 
HETATM   10  H   UNL     1     -41.034  56.603 -56.884  1.00  0.00     0.171 HD
HETATM   11  O   UNL     1     -44.061  56.943 -55.914  1.00  0.00    -0.265 OA
BRANCH   9  12
HETATM   12  C   UNL     1     -41.567  55.892 -55.037  1.00  0.00     0.174 A 
HETATM   13  S   UNL     1     -41.113  54.254 -55.162  1.00  0.00    -0.050 SA
HETATM   14  C   UNL     1     -41.024  54.159 -53.441  1.00  0.00     0.039 A 
HETATM   15  C   UNL     1     -41.333  55.413 -52.906  1.00  0.00     0.077 A 
HETATM   16  C   UNL     1     -40.704  53.061 -52.625  1.00  0.00     0.045 A 
HETATM   17  N   UNL     1     -41.648  56.387 -53.832  1.00  0.00    -0.223 NA
HETATM   18  C   UNL     1     -41.305  55.582 -51.507  1.00  0.00     0.035 A 
HETATM   19  C   UNL     1     -40.982  54.500 -50.682  1.00  0.00     0.026 A 
HETATM   20  C   UNL     1     -40.691  53.259 -51.240  1.00  0.00     0.035 A 
HETATM   21 CL   UNL     1     -40.308  51.936 -50.207  1.00  0.00    -0.084 Cl
ENDBRANCH   9  12
ENDBRANCH   3   8
BRANCH   1  22
HETATM   22  S   UNL     1     -42.477  61.264 -59.258  1.00  0.00    -0.086 SA
BRANCH  22  23
HETATM   23  C   UNL     1     -41.563  61.332 -60.823  1.00  0.00     0.121 C 
BRANCH  23  24
HETATM   24  C   UNL     1     -40.434  62.330 -60.753  1.00  0.00    -0.049 A 
HETATM   25  C   UNL     1     -39.991  62.824 -59.516  1.00  0.00     0.008 A 
HETATM   26  C   UNL     1     -38.967  63.772 -59.456  1.00  0.00     0.001 A 
HETATM   27  C   UNL     1     -38.377  64.237 -60.630  1.00  0.00     0.000 A 
HETATM   28  C   UNL     1     -38.811  63.758 -61.864  1.00  0.00     0.001 A 
HETATM   29  C   UNL     1     -39.836  62.813 -61.927  1.00  0.00     0.008 A 
ENDBRANCH  23  24
ENDBRANCH  22  23
ENDBRANCH   1  22
TORSDOF 5
ENDMDL
