MODEL 1
REMARK VINA RESULT:      -8.2      0.000      0.000
REMARK  7 active torsions:
REMARK  status: ('A' for Active; 'I' for Inactive)
REMARK    1  A    between atoms: C_2  and  O_3 
REMARK    2  A    between atoms: O_3  and  C_4 
REMARK    3  A    between atoms: C_4  and  C_5 
REMARK    4  A    between atoms: C_6  and  C_7 
REMARK    5  A    between atoms: C_18  and  C_19 
REMARK    6  A    between atoms: C_19  and  N_20 
REMARK    7  A    between atoms: N_20  and  C_21 
ROOT
HETATM    1  C   UNL     1     -41.969  55.815 -52.608  1.00  0.00     0.068 A 
HETATM    2  C   UNL     1     -41.453  54.797 -51.633  1.00  0.00     0.161 A 
HETATM    3  N   UNL     1     -42.484  54.383 -50.700  1.00  0.00    -0.330 N 
HETATM    4  C   UNL     1     -43.789  54.731 -50.769  1.00  0.00     0.321 A 
HETATM    5  O   UNL     1     -44.618  54.283 -49.983  1.00  0.00    -0.247 OA
HETATM    6  N   UNL     1     -44.135  55.609 -51.749  1.00  0.00    -0.311 N 
HETATM    7  C   UNL     1     -43.266  56.173 -52.661  1.00  0.00     0.041 A 
HETATM    8  H   UNL     1     -42.253  53.713 -49.978  1.00  0.00     0.165 HD
HETATM    9  H   UNL     1     -45.118  55.856 -51.762  1.00  0.00     0.170 HD
ENDROOT
BRANCH   7  10
HETATM   10  C   UNL     1     -43.874  57.161 -53.635  1.00  0.00     0.150 C 
BRANCH  10  11
HETATM   11  N   UNL     1     -44.073  56.468 -54.903  1.00  0.00    -0.287 NA
HETATM   12  H   UNL     1     -43.840  55.480 -54.837  1.00  0.00     0.128 HD
BRANCH  11  13
HETATM   13  C   UNL     1     -43.544  57.052 -56.063  1.00  0.00     0.010 A 
HETATM   14  C   UNL     1     -43.443  56.279 -57.226  1.00  0.00     0.047 A 
HETATM   15  C   UNL     1     -42.970  56.826 -58.427  1.00  0.00     0.041 A 
HETATM   16 CL   UNL     1     -42.859  55.783 -59.801  1.00  0.00    -0.084 Cl
HETATM   17  C   UNL     1     -42.608  58.176 -58.505  1.00  0.00    -0.040 A 
HETATM   18  C   UNL     1     -42.110  58.804 -59.774  1.00  0.00     0.050 C 
HETATM   19  C   UNL     1     -42.767  58.967 -57.362  1.00  0.00     0.010 A 
HETATM   20  C   UNL     1     -43.239  58.413 -56.165  1.00  0.00     0.024 A 
ENDBRANCH  11  13
ENDBRANCH  10  11
ENDBRANCH   7  10
BRANCH   1  21
HETATM   21  C   UNL     1     -40.974  56.412 -53.526  1.00  0.00     0.293 C 
HETATM   22  O   UNL     1     -40.775  56.036 -54.669  1.00  0.00    -0.259 OA
BRANCH  21  23
HETATM   23  O   UNL     1     -40.322  57.416 -52.887  1.00  0.00    -0.318 OA
BRANCH  23  24
HETATM   24  C   UNL     1     -40.617  58.740 -53.356  1.00  0.00     0.174 C 
HETATM   25  C   UNL     1     -41.359  59.532 -52.295  1.00  0.00     0.034 C 
ENDBRANCH  23  24
ENDBRANCH  21  23
ENDBRANCH   1  21
BRANCH   2  26
HETATM   26  C   UNL     1     -40.865  53.573 -52.325  1.00  0.00    -0.031 A 
HETATM   27  C   UNL     1     -41.354  53.168 -53.579  1.00  0.00     0.011 A 
HETATM   28  C   UNL     1     -40.854  52.021 -54.200  1.00  0.00     0.024 A 
HETATM   29  C   UNL     1     -39.861  51.270 -53.575  1.00  0.00     0.034 A 
HETATM   30 CL   UNL     1     -39.252  49.854 -54.339  1.00  0.00    -0.084 Cl
HETATM   31  C   UNL     1     -39.360  51.657 -52.335  1.00  0.00     0.024 A 
HETATM   32  C   UNL     1     -39.860  52.803 -51.712  1.00  0.00     0.011 A 
ENDBRANCH   2  26
TORSDOF 7
ENDMDL
MODEL 2
REMARK VINA RESULT:      -8.1      3.291      7.493
REMARK  7 active torsions:
REMARK  status: ('A' for Active; 'I' for Inactive)
REMARK    1  A    between atoms: C_2  and  O_3 
REMARK    2  A    between atoms: O_3  and  C_4 
REMARK    3  A    between atoms: C_4  and  C_5 
REMARK    4  A    between atoms: C_6  and  C_7 
REMARK    5  A    between atoms: C_18  and  C_19 
REMARK    6  A    between atoms: C_19  and  N_20 
REMARK    7  A    between atoms: N_20  and  C_21 
ROOT
HETATM    1  C   UNL     1     -41.755  57.668 -52.430  1.00  0.00     0.068 A 
HETATM    2  C   UNL     1     -41.648  59.163 -52.341  1.00  0.00     0.161 A 
HETATM    3  N   UNL     1     -41.574  59.771 -53.656  1.00  0.00    -0.330 N 
HETATM    4  C   UNL     1     -41.732  59.119 -54.832  1.00  0.00     0.321 A 
HETATM    5  O   UNL     1     -41.726  59.714 -55.904  1.00  0.00    -0.247 OA
HETATM    6  N   UNL     1     -41.891  57.769 -54.763  1.00  0.00    -0.311 N 
HETATM    7  C   UNL     1     -41.893  57.021 -53.603  1.00  0.00     0.041 A 
HETATM    8  H   UNL     1     -41.479  60.775 -53.729  1.00  0.00     0.165 HD
HETATM    9  H   UNL     1     -41.994  57.314 -55.663  1.00  0.00     0.170 HD
ENDROOT
BRANCH   7  10
HETATM   10  C   UNL     1     -42.043  55.524 -53.778  1.00  0.00     0.150 C 
BRANCH  10  11
HETATM   11  N   UNL     1     -40.704  54.956 -53.900  1.00  0.00    -0.287 NA
HETATM   12  H   UNL     1     -40.374  54.962 -54.862  1.00  0.00     0.128 HD
BRANCH  11  13
HETATM   13  C   UNL     1     -40.449  53.731 -53.268  1.00  0.00     0.010 A 
HETATM   14  C   UNL     1     -40.225  52.595 -54.056  1.00  0.00     0.047 A 
HETATM   15  C   UNL     1     -39.914  51.356 -53.478  1.00  0.00     0.041 A 
HETATM   16 CL   UNL     1     -39.681  50.009 -54.536  1.00  0.00    -0.084 Cl
HETATM   17  C   UNL     1     -39.791  51.224 -52.090  1.00  0.00    -0.040 A 
HETATM   18  C   UNL     1     -39.447  49.919 -51.433  1.00  0.00     0.050 C 
HETATM   19  C   UNL     1     -39.951  52.370 -51.303  1.00  0.00     0.010 A 
HETATM   20  C   UNL     1     -40.263  53.604 -51.887  1.00  0.00     0.024 A 
ENDBRANCH  11  13
ENDBRANCH  10  11
ENDBRANCH   7  10
BRANCH   1  21
HETATM   21  C   UNL     1     -41.704  56.927 -51.150  1.00  0.00     0.293 C 
HETATM   22  O   UNL     1     -40.708  56.815 -50.456  1.00  0.00    -0.259 OA
BRANCH  21  23
HETATM   23  O   UNL     1     -42.925  56.391 -50.896  1.00  0.00    -0.318 OA
BRANCH  23  24
HETATM   24  C   UNL     1     -42.914  55.131 -50.209  1.00  0.00     0.174 C 
HETATM   25  C   UNL     1     -43.844  54.142 -50.889  1.00  0.00     0.034 C 
ENDBRANCH  23  24
ENDBRANCH  21  23
ENDBRANCH   1  21
BRANCH   2  26
HETATM   26  C   UNL     1     -42.798  59.782 -51.555  1.00  0.00    -0.031 A 
HETATM   27  C   UNL     1     -44.122  59.621 -51.995  1.00  0.00     0.011 A 
HETATM   28  C   UNL     1     -45.179  60.224 -51.307  1.00  0.00     0.024 A 
HETATM   29  C   UNL     1     -44.920  60.991 -50.173  1.00  0.00     0.034 A 
HETATM   30 CL   UNL     1     -46.222  61.738 -49.332  1.00  0.00    -0.084 Cl
HETATM   31  C   UNL     1     -43.615  61.159 -49.718  1.00  0.00     0.024 A 
HETATM   32  C   UNL     1     -42.558  60.558 -50.405  1.00  0.00     0.011 A 
ENDBRANCH   2  26
TORSDOF 7
ENDMDL
MODEL 3
REMARK VINA RESULT:      -8.0      3.116      7.296
REMARK  7 active torsions:
REMARK  status: ('A' for Active; 'I' for Inactive)
REMARK    1  A    between atoms: C_2  and  O_3 
REMARK    2  A    between atoms: O_3  and  C_4 
REMARK    3  A    between atoms: C_4  and  C_5 
REMARK    4  A    between atoms: C_6  and  C_7 
REMARK    5  A    between atoms: C_18  and  C_19 
REMARK    6  A    between atoms: C_19  and  N_20 
REMARK    7  A    between atoms: N_20  and  C_21 
ROOT
HETATM    1  C   UNL     1     -42.889  57.892 -53.239  1.00  0.00     0.068 A 
HETATM    2  C   UNL     1     -44.066  58.582 -52.613  1.00  0.00     0.161 A 
HETATM    3  N   UNL     1     -44.710  57.743 -51.621  1.00  0.00    -0.330 N 
HETATM    4  C   UNL     1     -44.245  56.550 -51.181  1.00  0.00     0.321 A 
HETATM    5  O   UNL     1     -44.808  55.929 -50.286  1.00  0.00    -0.247 OA
HETATM    6  N   UNL     1     -43.125  56.072 -51.788  1.00  0.00    -0.311 N 
HETATM    7  C   UNL     1     -42.441  56.696 -52.812  1.00  0.00     0.041 A 
HETATM    8  H   UNL     1     -45.530  58.089 -51.142  1.00  0.00     0.165 HD
HETATM    9  H   UNL     1     -42.814  55.172 -51.442  1.00  0.00     0.170 HD
ENDROOT
BRANCH   7  10
HETATM   10  C   UNL     1     -41.243  55.950 -53.361  1.00  0.00     0.150 C 
BRANCH  10  11
HETATM   11  N   UNL     1     -40.845  54.958 -52.368  1.00  0.00    -0.287 NA
HETATM   12  H   UNL     1     -40.179  55.335 -51.698  1.00  0.00     0.128 HD
BRANCH  11  13
HETATM   13  C   UNL     1     -40.466  53.686 -52.821  1.00  0.00     0.010 A 
HETATM   14  C   UNL     1     -40.113  52.708 -51.883  1.00  0.00     0.047 A 
HETATM   15  C   UNL     1     -39.776  51.406 -52.278  1.00  0.00     0.041 A 
HETATM   16 CL   UNL     1     -39.331  50.279 -51.045  1.00  0.00    -0.084 Cl
HETATM   17  C   UNL     1     -39.808  51.037 -53.628  1.00  0.00    -0.040 A 
HETATM   18  C   UNL     1     -39.467  49.650 -54.092  1.00  0.00     0.050 C 
HETATM   19  C   UNL     1     -40.221  51.993 -54.563  1.00  0.00     0.010 A 
HETATM   20  C   UNL     1     -40.555  53.292 -54.161  1.00  0.00     0.024 A 
ENDBRANCH  11  13
ENDBRANCH  10  11
ENDBRANCH   7  10
BRANCH   1  21
HETATM   21  C   UNL     1     -42.231  58.598 -54.361  1.00  0.00     0.293 C 
HETATM   22  O   UNL     1     -41.181  59.210 -54.271  1.00  0.00    -0.259 OA
BRANCH  21  23
HETATM   23  O   UNL     1     -42.988  58.463 -55.479  1.00  0.00    -0.318 OA
BRANCH  23  24
HETATM   24  C   UNL     1     -42.340  57.828 -56.591  1.00  0.00     0.174 C 
HETATM   25  C   UNL     1     -42.805  56.390 -56.733  1.00  0.00     0.034 C 
ENDBRANCH  23  24
ENDBRANCH  21  23
ENDBRANCH   1  21
BRANCH   2  26
HETATM   26  C   UNL     1     -43.691  59.920 -51.988  1.00  0.00    -0.031 A 
HETATM   27  C   UNL     1     -42.754  59.973 -50.942  1.00  0.00     0.011 A 
HETATM   28  C   UNL     1     -42.438  61.189 -50.331  1.00  0.00     0.024 A 
HETATM   29  C   UNL     1     -43.054  62.363 -50.761  1.00  0.00     0.034 A 
HETATM   30 CL   UNL     1     -42.668  63.858 -50.001  1.00  0.00    -0.084 Cl
HETATM   31  C   UNL     1     -43.982  62.332 -51.799  1.00  0.00     0.024 A 
HETATM   32  C   UNL     1     -44.299  61.117 -52.409  1.00  0.00     0.011 A 
ENDBRANCH   2  26
TORSDOF 7
ENDMDL
MODEL 4
REMARK VINA RESULT:      -7.9      2.889      7.249
REMARK  7 active torsions:
REMARK  status: ('A' for Active; 'I' for Inactive)
REMARK    1  A    between atoms: C_2  and  O_3 
REMARK    2  A    between atoms: O_3  and  C_4 
REMARK    3  A    between atoms: C_4  and  C_5 
REMARK    4  A    between atoms: C_6  and  C_7 
REMARK    5  A    between atoms: C_18  and  C_19 
REMARK    6  A    between atoms: C_19  and  N_20 
REMARK    7  A    between atoms: N_20  and  C_21 
ROOT
HETATM    1  C   UNL     1     -42.842  57.994 -51.332  1.00  0.00     0.068 A 
HETATM    2  C   UNL     1     -42.923  59.484 -51.178  1.00  0.00     0.161 A 
HETATM    3  N   UNL     1     -41.672  60.039 -50.699  1.00  0.00    -0.330 N 
HETATM    4  C   UNL     1     -40.516  59.352 -50.549  1.00  0.00     0.321 A 
HETATM    5  O   UNL     1     -39.477  59.906 -50.205  1.00  0.00    -0.247 OA
HETATM    6  N   UNL     1     -40.566  58.014 -50.791  1.00  0.00    -0.311 N 
HETATM    7  C   UNL     1     -41.694  57.310 -51.163  1.00  0.00     0.041 A 
HETATM    8  H   UNL     1     -41.606  61.035 -50.535  1.00  0.00     0.165 HD
HETATM    9  H   UNL     1     -39.686  57.530 -50.656  1.00  0.00     0.170 HD
ENDROOT
BRANCH   7  10
HETATM   10  C   UNL     1     -41.518  55.816 -51.334  1.00  0.00     0.150 C 
BRANCH  10  11
HETATM   11  N   UNL     1     -41.159  55.569 -52.727  1.00  0.00    -0.287 NA
HETATM   12  H   UNL     1     -41.871  55.908 -53.369  1.00  0.00     0.128 HD
BRANCH  11  13
HETATM   13  C   UNL     1     -40.711  54.287 -53.075  1.00  0.00     0.010 A 
HETATM   14  C   UNL     1     -40.460  53.357 -52.059  1.00  0.00     0.047 A 
HETATM   15  C   UNL     1     -40.060  52.045 -52.352  1.00  0.00     0.041 A 
HETATM   16 CL   UNL     1     -39.751  50.980 -51.026  1.00  0.00    -0.084 Cl
HETATM   17  C   UNL     1     -39.926  51.618 -53.678  1.00  0.00    -0.040 A 
HETATM   18  C   UNL     1     -39.513  50.219 -54.036  1.00  0.00     0.050 C 
HETATM   19  C   UNL     1     -40.237  52.525 -54.697  1.00  0.00     0.010 A 
HETATM   20  C   UNL     1     -40.634  53.834 -54.396  1.00  0.00     0.024 A 
ENDBRANCH  11  13
ENDBRANCH  10  11
ENDBRANCH   7  10
BRANCH   1  21
HETATM   21  C   UNL     1     -44.099  57.299 -51.688  1.00  0.00     0.293 C 
HETATM   22  O   UNL     1     -45.094  57.265 -50.983  1.00  0.00    -0.259 OA
BRANCH  21  23
HETATM   23  O   UNL     1     -43.955  56.704 -52.899  1.00  0.00    -0.318 OA
BRANCH  23  24
HETATM   24  C   UNL     1     -44.754  57.254 -53.956  1.00  0.00     0.174 C 
HETATM   25  C   UNL     1     -43.954  57.344 -55.243  1.00  0.00     0.034 C 
ENDBRANCH  23  24
ENDBRANCH  21  23
ENDBRANCH   1  21
BRANCH   2  26
HETATM   26  C   UNL     1     -43.332  60.181 -52.470  1.00  0.00    -0.031 A 
HETATM   27  C   UNL     1     -44.634  60.689 -52.618  1.00  0.00     0.011 A 
HETATM   28  C   UNL     1     -45.033  61.288 -53.816  1.00  0.00     0.024 A 
HETATM   29  C   UNL     1     -44.133  61.386 -54.875  1.00  0.00     0.034 A 
HETATM   30 CL   UNL     1     -44.629  62.117 -56.352  1.00  0.00    -0.084 Cl
HETATM   31  C   UNL     1     -42.837  60.893 -54.747  1.00  0.00     0.024 A 
HETATM   32  C   UNL     1     -42.438  60.293 -53.551  1.00  0.00     0.011 A 
ENDBRANCH   2  26
TORSDOF 7
ENDMDL
MODEL 5
REMARK VINA RESULT:      -7.9      3.014      8.231
REMARK  7 active torsions:
REMARK  status: ('A' for Active; 'I' for Inactive)
REMARK    1  A    between atoms: C_2  and  O_3 
REMARK    2  A    between atoms: O_3  and  C_4 
REMARK    3  A    between atoms: C_4  and  C_5 
REMARK    4  A    between atoms: C_6  and  C_7 
REMARK    5  A    between atoms: C_18  and  C_19 
REMARK    6  A    between atoms: C_19  and  N_20 
REMARK    7  A    between atoms: N_20  and  C_21 
ROOT
HETATM    1  C   UNL     1     -43.613  56.662 -58.042  1.00  0.00     0.068 A 
HETATM    2  C   UNL     1     -44.358  57.941 -58.294  1.00  0.00     0.161 A 
HETATM    3  N   UNL     1     -44.708  58.606 -57.054  1.00  0.00    -0.330 N 
HETATM    4  C   UNL     1     -44.299  58.232 -55.819  1.00  0.00     0.321 A 
HETATM    5  O   UNL     1     -44.578  58.887 -54.821  1.00  0.00    -0.247 OA
HETATM    6  N   UNL     1     -43.568  57.087 -55.741  1.00  0.00    -0.311 N 
HETATM    7  C   UNL     1     -43.224  56.282 -56.809  1.00  0.00     0.041 A 
HETATM    8  H   UNL     1     -45.231  59.471 -57.091  1.00  0.00     0.165 HD
HETATM    9  H   UNL     1     -43.290  56.831 -54.801  1.00  0.00     0.170 HD
ENDROOT
BRANCH   7  10
HETATM   10  C   UNL     1     -42.441  55.030 -56.473  1.00  0.00     0.150 C 
BRANCH  10  11
HETATM   11  N   UNL     1     -41.359  55.414 -55.572  1.00  0.00    -0.287 NA
HETATM   12  H   UNL     1     -40.524  55.698 -56.079  1.00  0.00     0.128 HD
BRANCH  11  13
HETATM   13  C   UNL     1     -41.055  54.557 -54.505  1.00  0.00     0.010 A 
HETATM   14  C   UNL     1     -40.611  53.258 -54.783  1.00  0.00     0.047 A 
HETATM   15  C   UNL     1     -40.243  52.377 -53.756  1.00  0.00     0.041 A 
HETATM   16 CL   UNL     1     -39.732  50.787 -54.202  1.00  0.00    -0.084 Cl
HETATM   17  C   UNL     1     -40.285  52.782 -52.417  1.00  0.00    -0.040 A 
HETATM   18  C   UNL     1     -39.888  51.874 -51.288  1.00  0.00     0.050 C 
HETATM   19  C   UNL     1     -40.667  54.099 -52.138  1.00  0.00     0.010 A 
HETATM   20  C   UNL     1     -41.034  54.973 -53.169  1.00  0.00     0.024 A 
ENDBRANCH  11  13
ENDBRANCH  10  11
ENDBRANCH   7  10
BRANCH   1  21
HETATM   21  C   UNL     1     -43.318  55.826 -59.227  1.00  0.00     0.293 C 
HETATM   22  O   UNL     1     -42.285  55.883 -59.872  1.00  0.00    -0.259 OA
BRANCH  21  23
HETATM   23  O   UNL     1     -44.377  55.016 -59.478  1.00  0.00    -0.318 OA
BRANCH  23  24
HETATM   24  C   UNL     1     -44.941  55.126 -60.793  1.00  0.00     0.174 C 
HETATM   25  C   UNL     1     -46.238  55.913 -60.756  1.00  0.00     0.034 C 
ENDBRANCH  23  24
ENDBRANCH  21  23
ENDBRANCH   1  21
BRANCH   2  26
HETATM   26  C   UNL     1     -43.581  58.899 -59.189  1.00  0.00    -0.031 A 
HETATM   27  C   UNL     1     -42.436  59.550 -58.701  1.00  0.00     0.011 A 
HETATM   28  C   UNL     1     -41.744  60.466 -59.498  1.00  0.00     0.024 A 
HETATM   29  C   UNL     1     -42.189  60.737 -60.790  1.00  0.00     0.034 A 
HETATM   30 CL   UNL     1     -41.340  61.870 -61.767  1.00  0.00    -0.084 Cl
HETATM   31  C   UNL     1     -43.319  60.098 -61.294  1.00  0.00     0.024 A 
HETATM   32  C   UNL     1     -44.013  59.184 -60.498  1.00  0.00     0.011 A 
ENDBRANCH   2  26
TORSDOF 7
ENDMDL
MODEL 6
REMARK VINA RESULT:      -7.9      3.003      7.161
REMARK  7 active torsions:
REMARK  status: ('A' for Active; 'I' for Inactive)
REMARK    1  A    between atoms: C_2  and  O_3 
REMARK    2  A    between atoms: O_3  and  C_4 
REMARK    3  A    between atoms: C_4  and  C_5 
REMARK    4  A    between atoms: C_6  and  C_7 
REMARK    5  A    between atoms: C_18  and  C_19 
REMARK    6  A    between atoms: C_19  and  N_20 
REMARK    7  A    between atoms: N_20  and  C_21 
ROOT
HETATM    1  C   UNL     1     -41.500  58.155 -53.948  1.00  0.00     0.068 A 
HETATM    2  C   UNL     1     -42.490  59.238 -54.264  1.00  0.00     0.161 A 
HETATM    3  N   UNL     1     -43.361  58.859 -55.360  1.00  0.00    -0.330 N 
HETATM    4  C   UNL     1     -43.405  57.638 -55.942  1.00  0.00     0.321 A 
HETATM    5  O   UNL     1     -44.220  57.371 -56.819  1.00  0.00    -0.247 OA
HETATM    6  N   UNL     1     -42.495  56.724 -55.509  1.00  0.00    -0.311 N 
HETATM    7  C   UNL     1     -41.534  56.947 -54.543  1.00  0.00     0.041 A 
HETATM    8  H   UNL     1     -44.060  59.516 -55.682  1.00  0.00     0.165 HD
HETATM    9  H   UNL     1     -42.549  55.826 -55.976  1.00  0.00     0.170 HD
ENDROOT
BRANCH   7  10
HETATM   10  C   UNL     1     -40.600  55.790 -54.256  1.00  0.00     0.150 C 
BRANCH  10  11
HETATM   11  N   UNL     1     -41.397  54.568 -54.247  1.00  0.00    -0.287 NA
HETATM   12  H   UNL     1     -42.378  54.756 -54.058  1.00  0.00     0.128 HD
BRANCH  11  13
HETATM   13  C   UNL     1     -40.922  53.477 -53.506  1.00  0.00     0.010 A 
HETATM   14  C   UNL     1     -40.483  52.334 -54.185  1.00  0.00     0.047 A 
HETATM   15  C   UNL     1     -39.951  51.235 -53.497  1.00  0.00     0.041 A 
HETATM   16 CL   UNL     1     -39.461  49.862 -54.426  1.00  0.00    -0.084 Cl
HETATM   17  C   UNL     1     -39.817  51.260 -52.104  1.00  0.00    -0.040 A 
HETATM   18  C   UNL     1     -39.240  50.110 -51.330  1.00  0.00     0.050 C 
HETATM   19  C   UNL     1     -40.195  52.424 -51.426  1.00  0.00     0.010 A 
HETATM   20  C   UNL     1     -40.727  53.518 -52.121  1.00  0.00     0.024 A 
ENDBRANCH  11  13
ENDBRANCH  10  11
ENDBRANCH   7  10
BRANCH   1  21
HETATM   21  C   UNL     1     -40.471  58.478 -52.935  1.00  0.00     0.293 C 
HETATM   22  O   UNL     1     -39.466  59.133 -53.155  1.00  0.00    -0.259 OA
BRANCH  21  23
HETATM   23  O   UNL     1     -40.821  57.920 -51.748  1.00  0.00    -0.318 OA
BRANCH  23  24
HETATM   24  C   UNL     1     -40.193  58.488 -50.590  1.00  0.00     0.174 C 
HETATM   25  C   UNL     1     -41.035  59.614 -50.020  1.00  0.00     0.034 C 
ENDBRANCH  23  24
ENDBRANCH  21  23
ENDBRANCH   1  21
BRANCH   2  26
HETATM   26  C   UNL     1     -43.329  59.630 -53.054  1.00  0.00    -0.031 A 
HETATM   27  C   UNL     1     -43.299  60.949 -52.571  1.00  0.00     0.011 A 
HETATM   28  C   UNL     1     -44.029  61.307 -51.434  1.00  0.00     0.024 A 
HETATM   29  C   UNL     1     -44.795  60.351 -50.772  1.00  0.00     0.034 A 
HETATM   30 CL   UNL     1     -45.687  60.792 -49.368  1.00  0.00    -0.084 Cl
HETATM   31  C   UNL     1     -44.842  59.039 -51.237  1.00  0.00     0.024 A 
HETATM   32  C   UNL     1     -44.112  58.679 -52.373  1.00  0.00     0.011 A 
ENDBRANCH   2  26
TORSDOF 7
ENDMDL
MODEL 7
REMARK VINA RESULT:      -7.8      2.300      7.096
REMARK  7 active torsions:
REMARK  status: ('A' for Active; 'I' for Inactive)
REMARK    1  A    between atoms: C_2  and  O_3 
REMARK    2  A    between atoms: O_3  and  C_4 
REMARK    3  A    between atoms: C_4  and  C_5 
REMARK    4  A    between atoms: C_6  and  C_7 
REMARK    5  A    between atoms: C_18  and  C_19 
REMARK    6  A    between atoms: C_19  and  N_20 
REMARK    7  A    between atoms: N_20  and  C_21 
ROOT
HETATM    1  C   UNL     1     -42.986  57.798 -53.424  1.00  0.00     0.068 A 
HETATM    2  C   UNL     1     -42.664  59.158 -53.970  1.00  0.00     0.161 A 
HETATM    3  N   UNL     1     -41.298  59.544 -53.670  1.00  0.00    -0.330 N 
HETATM    4  C   UNL     1     -40.362  58.743 -53.109  1.00  0.00     0.321 A 
HETATM    5  O   UNL     1     -39.205  59.117 -52.951  1.00  0.00    -0.247 OA
HETATM    6  N   UNL     1     -40.773  57.504 -52.723  1.00  0.00    -0.311 N 
HETATM    7  C   UNL     1     -42.056  57.011 -52.848  1.00  0.00     0.041 A 
HETATM    8  H   UNL     1     -40.967  60.451 -53.969  1.00  0.00     0.165 HD
HETATM    9  H   UNL     1     -40.048  56.938 -52.296  1.00  0.00     0.170 HD
ENDROOT
BRANCH   7  10
HETATM   10  C   UNL     1     -42.287  55.616 -52.306  1.00  0.00     0.150 C 
BRANCH  10  11
HETATM   11  N   UNL     1     -40.987  55.062 -51.941  1.00  0.00    -0.287 NA
HETATM   12  H   UNL     1     -40.252  55.764 -51.972  1.00  0.00     0.128 HD
BRANCH  11  13
HETATM   13  C   UNL     1     -40.589  53.862 -52.548  1.00  0.00     0.010 A 
HETATM   14  C   UNL     1     -40.206  52.786 -51.738  1.00  0.00     0.047 A 
HETATM   15  C   UNL     1     -39.848  51.548 -52.290  1.00  0.00     0.041 A 
HETATM   16 CL   UNL     1     -39.367  50.291 -51.206  1.00  0.00    -0.084 Cl
HETATM   17  C   UNL     1     -39.889  51.343 -53.674  1.00  0.00    -0.040 A 
HETATM   18  C   UNL     1     -39.527  50.030 -54.304  1.00  0.00     0.050 C 
HETATM   19  C   UNL     1     -40.332  52.396 -54.483  1.00  0.00     0.010 A 
HETATM   20  C   UNL     1     -40.686  53.630 -53.924  1.00  0.00     0.024 A 
ENDBRANCH  11  13
ENDBRANCH  10  11
ENDBRANCH   7  10
BRANCH   1  21
HETATM   21  C   UNL     1     -44.390  57.352 -53.551  1.00  0.00     0.293 C 
HETATM   22  O   UNL     1     -44.763  56.438 -54.268  1.00  0.00    -0.259 OA
BRANCH  21  23
HETATM   23  O   UNL     1     -45.179  58.126 -52.764  1.00  0.00    -0.318 OA
BRANCH  23  24
HETATM   24  C   UNL     1     -45.064  57.892 -51.353  1.00  0.00     0.174 C 
HETATM   25  C   UNL     1     -45.631  59.060 -50.567  1.00  0.00     0.034 C 
ENDBRANCH  23  24
ENDBRANCH  21  23
ENDBRANCH   1  21
BRANCH   2  26
HETATM   26  C   UNL     1     -42.906  59.254 -55.472  1.00  0.00    -0.031 A 
HETATM   27  C   UNL     1     -42.259  58.369 -56.350  1.00  0.00     0.011 A 
HETATM   28  C   UNL     1     -42.439  58.478 -57.731  1.00  0.00     0.024 A 
HETATM   29  C   UNL     1     -43.268  59.473 -58.246  1.00  0.00     0.034 A 
HETATM   30 CL   UNL     1     -43.481  59.610 -59.948  1.00  0.00    -0.084 Cl
HETATM   31  C   UNL     1     -43.922  60.358 -57.392  1.00  0.00     0.024 A 
HETATM   32  C   UNL     1     -43.742  60.250 -56.012  1.00  0.00     0.011 A 
ENDBRANCH   2  26
TORSDOF 7
ENDMDL
MODEL 8
REMARK VINA RESULT:      -7.8      2.683      6.230
REMARK  7 active torsions:
REMARK  status: ('A' for Active; 'I' for Inactive)
REMARK    1  A    between atoms: C_2  and  O_3 
REMARK    2  A    between atoms: O_3  and  C_4 
REMARK    3  A    between atoms: C_4  and  C_5 
REMARK    4  A    between atoms: C_6  and  C_7 
REMARK    5  A    between atoms: C_18  and  C_19 
REMARK    6  A    between atoms: C_19  and  N_20 
REMARK    7  A    between atoms: N_20  and  C_21 
ROOT
HETATM    1  C   UNL     1     -43.330  56.816 -53.101  1.00  0.00     0.068 A 
HETATM    2  C   UNL     1     -43.569  57.594 -51.840  1.00  0.00     0.161 A 
HETATM    3  N   UNL     1     -44.091  56.748 -50.784  1.00  0.00    -0.330 N 
HETATM    4  C   UNL     1     -44.215  55.402 -50.845  1.00  0.00     0.321 A 
HETATM    5  O   UNL     1     -44.600  54.746 -49.883  1.00  0.00    -0.247 OA
HETATM    6  N   UNL     1     -43.896  54.815 -52.030  1.00  0.00    -0.311 N 
HETATM    7  C   UNL     1     -43.473  55.478 -53.164  1.00  0.00     0.041 A 
HETATM    8  H   UNL     1     -44.313  57.162 -49.888  1.00  0.00     0.165 HD
HETATM    9  H   UNL     1     -44.012  53.808 -52.043  1.00  0.00     0.170 HD
ENDROOT
BRANCH   7  10
HETATM   10  C   UNL     1     -43.218  54.615 -54.383  1.00  0.00     0.150 C 
BRANCH  10  11
HETATM   11  N   UNL     1     -41.774  54.453 -54.517  1.00  0.00    -0.287 NA
HETATM   12  H   UNL     1     -41.482  54.438 -55.491  1.00  0.00     0.128 HD
BRANCH  11  13
HETATM   13  C   UNL     1     -41.153  53.442 -53.770  1.00  0.00     0.010 A 
HETATM   14  C   UNL     1     -40.809  52.243 -54.406  1.00  0.00     0.047 A 
HETATM   15  C   UNL     1     -40.139  51.219 -53.720  1.00  0.00     0.041 A 
HETATM   16 CL   UNL     1     -39.782  49.767 -54.588  1.00  0.00    -0.084 Cl
HETATM   17  C   UNL     1     -39.770  51.378 -52.380  1.00  0.00    -0.040 A 
HETATM   18  C   UNL     1     -39.041  50.313 -51.613  1.00  0.00     0.050 C 
HETATM   19  C   UNL     1     -40.055  52.599 -51.758  1.00  0.00     0.010 A 
HETATM   20  C   UNL     1     -40.726  53.617 -52.449  1.00  0.00     0.024 A 
ENDBRANCH  11  13
ENDBRANCH  10  11
ENDBRANCH   7  10
BRANCH   1  21
HETATM   21  C   UNL     1     -42.922  57.597 -54.290  1.00  0.00     0.293 C 
HETATM   22  O   UNL     1     -41.794  57.613 -54.753  1.00  0.00    -0.259 OA
BRANCH  21  23
HETATM   23  O   UNL     1     -43.991  58.291 -54.757  1.00  0.00    -0.318 OA
BRANCH  23  24
HETATM   24  C   UNL     1     -44.517  57.842 -56.014  1.00  0.00     0.174 C 
HETATM   25  C   UNL     1     -44.275  58.877 -57.098  1.00  0.00     0.034 C 
ENDBRANCH  23  24
ENDBRANCH  21  23
ENDBRANCH   1  21
BRANCH   2  26
HETATM   26  C   UNL     1     -42.314  58.308 -51.352  1.00  0.00    -0.031 A 
HETATM   27  C   UNL     1     -41.100  57.609 -51.243  1.00  0.00     0.011 A 
HETATM   28  C   UNL     1     -39.955  58.243 -50.752  1.00  0.00     0.024 A 
HETATM   29  C   UNL     1     -40.014  59.581 -50.367  1.00  0.00     0.034 A 
HETATM   30 CL   UNL     1     -38.606  60.357 -49.756  1.00  0.00    -0.084 Cl
HETATM   31  C   UNL     1     -41.207  60.292 -50.471  1.00  0.00     0.024 A 
HETATM   32  C   UNL     1     -42.352  59.659 -50.961  1.00  0.00     0.011 A 
ENDBRANCH   2  26
TORSDOF 7
ENDMDL
MODEL 9
REMARK VINA RESULT:      -7.8      3.042      7.967
REMARK  7 active torsions:
REMARK  status: ('A' for Active; 'I' for Inactive)
REMARK    1  A    between atoms: C_2  and  O_3 
REMARK    2  A    between atoms: O_3  and  C_4 
REMARK    3  A    between atoms: C_4  and  C_5 
REMARK    4  A    between atoms: C_6  and  C_7 
REMARK    5  A    between atoms: C_18  and  C_19 
REMARK    6  A    between atoms: C_19  and  N_20 
REMARK    7  A    between atoms: N_20  and  C_21 
ROOT
HETATM    1  C   UNL     1     -43.255  57.331 -56.601  1.00  0.00     0.068 A 
HETATM    2  C   UNL     1     -43.422  58.411 -57.630  1.00  0.00     0.161 A 
HETATM    3  N   UNL     1     -42.955  57.980 -58.934  1.00  0.00    -0.330 N 
HETATM    4  C   UNL     1     -42.558  56.726 -59.250  1.00  0.00     0.321 A 
HETATM    5  O   UNL     1     -42.243  56.419 -60.395  1.00  0.00    -0.247 OA
HETATM    6  N   UNL     1     -42.520  55.824 -58.232  1.00  0.00    -0.311 N 
HETATM    7  C   UNL     1     -42.841  56.089 -56.916  1.00  0.00     0.041 A 
HETATM    8  H   UNL     1     -42.996  58.628 -59.709  1.00  0.00     0.165 HD
HETATM    9  H   UNL     1     -42.206  54.899 -58.504  1.00  0.00     0.170 HD
ENDROOT
BRANCH   7  10
HETATM   10  C   UNL     1     -42.680  54.935 -55.948  1.00  0.00     0.150 C 
BRANCH  10  11
HETATM   11  N   UNL     1     -41.277  54.880 -55.553  1.00  0.00    -0.287 NA
HETATM   12  H   UNL     1     -40.659  54.785 -56.356  1.00  0.00     0.128 HD
BRANCH  11  13
HETATM   13  C   UNL     1     -40.918  54.011 -54.513  1.00  0.00     0.010 A 
HETATM   14  C   UNL     1     -40.503  52.711 -54.828  1.00  0.00     0.047 A 
HETATM   15  C   UNL     1     -40.085  51.818 -53.832  1.00  0.00     0.041 A 
HETATM   16 CL   UNL     1     -39.615  50.227 -54.320  1.00  0.00    -0.084 Cl
HETATM   17  C   UNL     1     -40.044  52.210 -52.489  1.00  0.00    -0.040 A 
HETATM   18  C   UNL     1     -39.589  51.289 -51.394  1.00  0.00     0.050 C 
HETATM   19  C   UNL     1     -40.397  53.528 -52.177  1.00  0.00     0.010 A 
HETATM   20  C   UNL     1     -40.816  54.415 -53.178  1.00  0.00     0.024 A 
ENDBRANCH  11  13
ENDBRANCH  10  11
ENDBRANCH   7  10
BRANCH   1  21
HETATM   21  C   UNL     1     -43.573  57.698 -55.203  1.00  0.00     0.293 C 
HETATM   22  O   UNL     1     -44.602  57.391 -54.625  1.00  0.00    -0.259 OA
BRANCH  21  23
HETATM   23  O   UNL     1     -42.554  58.433 -54.690  1.00  0.00    -0.318 OA
BRANCH  23  24
HETATM   24  C   UNL     1     -42.073  58.010 -53.406  1.00  0.00     0.174 C 
HETATM   25  C   UNL     1     -40.567  58.168 -53.318  1.00  0.00     0.034 C 
ENDBRANCH  23  24
ENDBRANCH  21  23
ENDBRANCH   1  21
BRANCH   2  26
HETATM   26  C   UNL     1     -44.864  58.895 -57.735  1.00  0.00    -0.031 A 
HETATM   27  C   UNL     1     -45.187  60.225 -57.419  1.00  0.00     0.011 A 
HETATM   28  C   UNL     1     -46.512  60.666 -57.468  1.00  0.00     0.024 A 
HETATM   29  C   UNL     1     -47.525  59.782 -57.834  1.00  0.00     0.034 A 
HETATM   30 CL   UNL     1     -49.156  60.325 -57.886  1.00  0.00    -0.084 Cl
HETATM   31  C   UNL     1     -47.224  58.460 -58.156  1.00  0.00     0.024 A 
HETATM   32  C   UNL     1     -45.900  58.018 -58.106  1.00  0.00     0.011 A 
ENDBRANCH   2  26
TORSDOF 7
ENDMDL
MODEL 10
REMARK VINA RESULT:      -7.7     15.308     17.155
REMARK  7 active torsions:
REMARK  status: ('A' for Active; 'I' for Inactive)
REMARK    1  A    between atoms: C_2  and  O_3 
REMARK    2  A    between atoms: O_3  and  C_4 
REMARK    3  A    between atoms: C_4  and  C_5 
REMARK    4  A    between atoms: C_6  and  C_7 
REMARK    5  A    between atoms: C_18  and  C_19 
REMARK    6  A    between atoms: C_19  and  N_20 
REMARK    7  A    between atoms: N_20  and  C_21 
ROOT
HETATM    1  C   UNL     1     -35.213  40.705 -54.161  1.00  0.00     0.068 A 
HETATM    2  C   UNL     1     -34.651  39.426 -53.611  1.00  0.00     0.161 A 
HETATM    3  N   UNL     1     -33.764  38.782 -54.561  1.00  0.00    -0.330 N 
HETATM    4  C   UNL     1     -33.353  39.314 -55.736  1.00  0.00     0.321 A 
HETATM    5  O   UNL     1     -32.544  38.738 -56.456  1.00  0.00    -0.247 OA
HETATM    6  N   UNL     1     -33.889  40.516 -56.081  1.00  0.00    -0.311 N 
HETATM    7  C   UNL     1     -34.816  41.221 -55.340  1.00  0.00     0.041 A 
HETATM    8  H   UNL     1     -33.337  37.899 -54.314  1.00  0.00     0.165 HD
HETATM    9  H   UNL     1     -33.568  40.877 -56.972  1.00  0.00     0.170 HD
ENDROOT
BRANCH   7  10
HETATM   10  C   UNL     1     -35.303  42.520 -55.948  1.00  0.00     0.150 C 
BRANCH  10  11
HETATM   11  N   UNL     1     -36.696  42.331 -56.337  1.00  0.00    -0.287 NA
HETATM   12  H   UNL     1     -37.271  42.020 -55.558  1.00  0.00     0.128 HD
BRANCH  11  13
HETATM   13  C   UNL     1     -36.962  41.601 -57.504  1.00  0.00     0.010 A 
HETATM   14  C   UNL     1     -37.444  40.291 -57.390  1.00  0.00     0.047 A 
HETATM   15  C   UNL     1     -37.775  39.534 -58.523  1.00  0.00     0.041 A 
HETATM   16 CL   UNL     1     -38.338  37.918 -58.277  1.00  0.00    -0.084 Cl
HETATM   17  C   UNL     1     -37.657  40.078 -59.807  1.00  0.00    -0.040 A 
HETATM   18  C   UNL     1     -38.012  39.306 -61.045  1.00  0.00     0.050 C 
HETATM   19  C   UNL     1     -37.236  41.407 -59.923  1.00  0.00     0.010 A 
HETATM   20  C   UNL     1     -36.906  42.157 -58.787  1.00  0.00     0.024 A 
ENDBRANCH  11  13
ENDBRANCH  10  11
ENDBRANCH   7  10
BRANCH   1  21
HETATM   21  C   UNL     1     -36.235  41.385 -53.335  1.00  0.00     0.293 C 
HETATM   22  O   UNL     1     -35.998  42.278 -52.539  1.00  0.00    -0.259 OA
BRANCH  21  23
HETATM   23  O   UNL     1     -37.452  40.845 -53.595  1.00  0.00    -0.318 OA
BRANCH  23  24
HETATM   24  C   UNL     1     -38.367  40.824 -52.491  1.00  0.00     0.174 C 
HETATM   25  C   UNL     1     -38.084  39.642 -51.581  1.00  0.00     0.034 C 
ENDBRANCH  23  24
ENDBRANCH  21  23
ENDBRANCH   1  21
BRANCH   2  26
HETATM   26  C   UNL     1     -33.923  39.632 -52.288  1.00  0.00    -0.031 A 
HETATM   27  C   UNL     1     -32.639  40.202 -52.269  1.00  0.00     0.011 A 
HETATM   28  C   UNL     1     -31.945  40.352 -51.066  1.00  0.00     0.024 A 
HETATM   29  C   UNL     1     -32.529  39.936 -49.871  1.00  0.00     0.034 A 
HETATM   30 CL   UNL     1     -31.669  40.115 -48.392  1.00  0.00    -0.084 Cl
HETATM   31  C   UNL     1     -33.802  39.372 -49.868  1.00  0.00     0.024 A 
HETATM   32  C   UNL     1     -34.497  39.221 -51.070  1.00  0.00     0.011 A 
ENDBRANCH   2  26
TORSDOF 7
ENDMDL
