MODEL 1
REMARK VINA RESULT:      -7.9      0.000      0.000
REMARK  3 active torsions:
REMARK  status: ('A' for Active; 'I' for Inactive)
REMARK    1  A    between atoms: C_8  and  C_9 
REMARK    2  A    between atoms: C_10  and  O_11 
REMARK    3  A    between atoms: C_24  and  N_25 
ROOT
HETATM    1  C   UNL     1     -44.055  55.213 -50.447  1.00  0.00     0.073 C 
HETATM    2  C   UNL     1     -44.265  56.596 -50.943  1.00  0.00     0.062 A 
HETATM    3  N   UNL     1     -45.479  57.167 -50.863  1.00  0.00    -0.177 NA
HETATM    4  N   UNL     1     -45.303  58.400 -51.379  1.00  0.00    -0.256 N 
HETATM    5  H   UNL     1     -46.096  59.029 -51.426  1.00  0.00     0.191 HD
HETATM    6  C   UNL     1     -44.023  58.628 -51.764  1.00  0.00     0.175 A 
HETATM    7  C   UNL     1     -43.321  57.475 -51.523  1.00  0.00     0.034 A 
HETATM    8  C   UNL     1     -41.862  57.427 -51.817  1.00  0.00     0.109 A 
HETATM    9  C   UNL     1     -41.388  58.737 -52.451  1.00  0.00     0.081 A 
HETATM   10  C   UNL     1     -40.004  58.824 -52.782  1.00  0.00     0.100 C 
HETATM   11  N   UNL     1     -38.873  58.925 -53.024  1.00  0.00    -0.191 NA
HETATM   12  C   UNL     1     -42.214  59.804 -52.641  1.00  0.00     0.140 A 
HETATM   13  O   UNL     1     -43.576  59.766 -52.283  1.00  0.00    -0.279 OA
ENDROOT
BRANCH   8  14
HETATM   14  C   UNL     1     -41.581  56.158 -52.632  1.00  0.00     0.000 A 
HETATM   15  C   UNL     1     -41.986  56.161 -53.995  1.00  0.00     0.076 A 
HETATM   16  C   UNL     1     -41.759  55.049 -54.805  1.00  0.00     0.038 A 
HETATM   17  C   UNL     1     -41.161  53.911 -54.280  1.00  0.00     0.015 A 
HETATM   18  C   UNL     1     -40.772  53.852 -52.940  1.00  0.00    -0.025 A 
HETATM   19  C   UNL     1     -40.973  54.970 -52.086  1.00  0.00    -0.016 A 
HETATM   20  C   UNL     1     -40.182  52.670 -52.460  1.00  0.00     0.012 A 
HETATM   21  C   UNL     1     -40.546  54.804 -50.743  1.00  0.00     0.013 A 
HETATM   22  C   UNL     1     -39.961  53.622 -50.275  1.00  0.00     0.001 A 
HETATM   23  C   UNL     1     -39.778  52.553 -51.135  1.00  0.00     0.001 A 
BRANCH  15  24
HETATM   24  O   UNL     1     -42.569  57.312 -54.465  1.00  0.00    -0.355 OA
HETATM   25  C   UNL     1     -43.764  57.173 -55.227  1.00  0.00     0.210 C 
ENDBRANCH  15  24
ENDBRANCH   8  14
BRANCH  12  26
HETATM   26  N   UNL     1     -41.846  61.014 -53.184  1.00  0.00    -0.282 NA
HETATM   27  H   UNL     1     -42.367  61.822 -52.850  1.00  0.00     0.126 HD
HETATM   28  H   UNL     1     -41.778  60.974 -54.198  1.00  0.00     0.126 HD
ENDBRANCH  12  26
TORSDOF 3
ENDMDL
MODEL 2
REMARK VINA RESULT:      -7.9      1.210      3.040
REMARK  3 active torsions:
REMARK  status: ('A' for Active; 'I' for Inactive)
REMARK    1  A    between atoms: C_8  and  C_9 
REMARK    2  A    between atoms: C_10  and  O_11 
REMARK    3  A    between atoms: C_24  and  N_25 
ROOT
HETATM    1  C   UNL     1     -44.236  55.544 -50.222  1.00  0.00     0.073 C 
HETATM    2  C   UNL     1     -44.429  56.861 -50.877  1.00  0.00     0.062 A 
HETATM    3  N   UNL     1     -45.650  57.421 -50.926  1.00  0.00    -0.177 NA
HETATM    4  N   UNL     1     -45.455  58.592 -51.564  1.00  0.00    -0.256 N 
HETATM    5  H   UNL     1     -46.249  59.201 -51.723  1.00  0.00     0.191 HD
HETATM    6  C   UNL     1     -44.157  58.794 -51.904  1.00  0.00     0.175 A 
HETATM    7  C   UNL     1     -43.461  57.684 -51.499  1.00  0.00     0.034 A 
HETATM    8  C   UNL     1     -41.988  57.624 -51.708  1.00  0.00     0.109 A 
HETATM    9  C   UNL     1     -41.489  58.863 -52.456  1.00  0.00     0.081 A 
HETATM   10  C   UNL     1     -40.090  58.931 -52.720  1.00  0.00     0.100 C 
HETATM   11  N   UNL     1     -38.948  59.020 -52.910  1.00  0.00    -0.191 NA
HETATM   12  C   UNL     1     -42.312  59.890 -52.806  1.00  0.00     0.140 A 
HETATM   13  O   UNL     1     -43.692  59.874 -52.520  1.00  0.00    -0.279 OA
ENDROOT
BRANCH   8  14
HETATM   14  C   UNL     1     -41.653  56.277 -52.362  1.00  0.00     0.000 A 
HETATM   15  C   UNL     1     -40.941  55.332 -51.572  1.00  0.00     0.076 A 
HETATM   16  C   UNL     1     -40.607  54.083 -52.090  1.00  0.00     0.038 A 
HETATM   17  C   UNL     1     -40.938  53.756 -53.399  1.00  0.00     0.015 A 
HETATM   18  C   UNL     1     -41.611  54.662 -54.221  1.00  0.00    -0.025 A 
HETATM   19  C   UNL     1     -41.983  55.941 -53.724  1.00  0.00    -0.016 A 
HETATM   20  C   UNL     1     -41.910  54.282 -55.540  1.00  0.00     0.012 A 
HETATM   21  C   UNL     1     -42.660  56.784 -54.643  1.00  0.00     0.013 A 
HETATM   22  C   UNL     1     -42.951  56.397 -55.955  1.00  0.00     0.001 A 
HETATM   23  C   UNL     1     -42.576  55.143 -56.405  1.00  0.00     0.001 A 
BRANCH  15  24
HETATM   24  O   UNL     1     -40.642  55.704 -50.284  1.00  0.00    -0.355 OA
HETATM   25  C   UNL     1     -40.751  54.704 -49.276  1.00  0.00     0.210 C 
ENDBRANCH  15  24
ENDBRANCH   8  14
BRANCH  12  26
HETATM   26  N   UNL     1     -41.924  61.039 -53.459  1.00  0.00    -0.282 NA
HETATM   27  H   UNL     1     -40.963  61.051 -53.794  1.00  0.00     0.126 HD
HETATM   28  H   UNL     1     -42.177  61.877 -52.941  1.00  0.00     0.126 HD
ENDBRANCH  12  26
TORSDOF 3
ENDMDL
MODEL 3
REMARK VINA RESULT:      -7.8      1.971      3.976
REMARK  3 active torsions:
REMARK  status: ('A' for Active; 'I' for Inactive)
REMARK    1  A    between atoms: C_8  and  C_9 
REMARK    2  A    between atoms: C_10  and  O_11 
REMARK    3  A    between atoms: C_24  and  N_25 
ROOT
HETATM    1  C   UNL     1     -41.700  58.905 -54.661  1.00  0.00     0.073 C 
HETATM    2  C   UNL     1     -41.051  58.631 -53.355  1.00  0.00     0.062 A 
HETATM    3  N   UNL     1     -39.937  59.294 -53.001  1.00  0.00    -0.177 NA
HETATM    4  N   UNL     1     -39.638  58.815 -51.776  1.00  0.00    -0.256 N 
HETATM    5  H   UNL     1     -38.821  59.173 -51.297  1.00  0.00     0.191 HD
HETATM    6  C   UNL     1     -40.531  57.889 -51.345  1.00  0.00     0.175 A 
HETATM    7  C   UNL     1     -41.450  57.721 -52.349  1.00  0.00     0.034 A 
HETATM    8  C   UNL     1     -42.587  56.779 -52.154  1.00  0.00     0.109 A 
HETATM    9  C   UNL     1     -42.480  56.061 -50.807  1.00  0.00     0.081 A 
HETATM   10  C   UNL     1     -43.511  55.128 -50.494  1.00  0.00     0.100 C 
HETATM   11  N   UNL     1     -44.363  54.394 -50.208  1.00  0.00    -0.191 NA
HETATM   12  C   UNL     1     -41.492  56.329 -49.908  1.00  0.00     0.140 A 
HETATM   13  O   UNL     1     -40.482  57.278 -50.167  1.00  0.00    -0.279 OA
ENDROOT
BRANCH   8  14
HETATM   14  C   UNL     1     -42.668  55.867 -53.386  1.00  0.00     0.000 A 
HETATM   15  C   UNL     1     -43.677  56.160 -54.344  1.00  0.00     0.076 A 
HETATM   16  C   UNL     1     -43.810  55.384 -55.494  1.00  0.00     0.038 A 
HETATM   17  C   UNL     1     -42.976  54.292 -55.702  1.00  0.00     0.015 A 
HETATM   18  C   UNL     1     -41.990  53.950 -54.775  1.00  0.00    -0.025 A 
HETATM   19  C   UNL     1     -41.813  54.726 -53.597  1.00  0.00    -0.016 A 
HETATM   20  C   UNL     1     -41.184  52.828 -55.032  1.00  0.00     0.012 A 
HETATM   21  C   UNL     1     -40.786  54.288 -52.721  1.00  0.00     0.013 A 
HETATM   22  C   UNL     1     -39.990  53.169 -52.985  1.00  0.00     0.001 A 
HETATM   23  C   UNL     1     -40.188  52.438 -54.144  1.00  0.00     0.001 A 
BRANCH  15  24
HETATM   24  O   UNL     1     -44.471  57.252 -54.091  1.00  0.00    -0.355 OA
HETATM   25  C   UNL     1     -45.213  57.783 -55.184  1.00  0.00     0.210 C 
ENDBRANCH  15  24
ENDBRANCH   8  14
BRANCH  12  26
HETATM   26  N   UNL     1     -41.351  55.736 -48.673  1.00  0.00    -0.282 NA
HETATM   27  H   UNL     1     -42.059  55.045 -48.434  1.00  0.00     0.126 HD
HETATM   28  H   UNL     1     -41.195  56.420 -47.936  1.00  0.00     0.126 HD
ENDBRANCH  12  26
TORSDOF 3
ENDMDL
MODEL 4
REMARK VINA RESULT:      -7.5      1.563      3.302
REMARK  3 active torsions:
REMARK  status: ('A' for Active; 'I' for Inactive)
REMARK    1  A    between atoms: C_8  and  C_9 
REMARK    2  A    between atoms: C_10  and  O_11 
REMARK    3  A    between atoms: C_24  and  N_25 
ROOT
HETATM    1  C   UNL     1     -38.994  58.755 -52.599  1.00  0.00     0.073 C 
HETATM    2  C   UNL     1     -40.169  59.162 -51.788  1.00  0.00     0.062 A 
HETATM    3  N   UNL     1     -40.002  59.904 -50.680  1.00  0.00    -0.177 NA
HETATM    4  N   UNL     1     -41.254  60.096 -50.216  1.00  0.00    -0.256 N 
HETATM    5  H   UNL     1     -41.384  60.637 -49.369  1.00  0.00     0.191 HD
HETATM    6  C   UNL     1     -42.197  59.516 -50.999  1.00  0.00     0.175 A 
HETATM    7  C   UNL     1     -41.536  58.878 -52.017  1.00  0.00     0.034 A 
HETATM    8  C   UNL     1     -42.314  58.169 -53.069  1.00  0.00     0.109 A 
HETATM    9  C   UNL     1     -43.814  58.216 -52.767  1.00  0.00     0.081 A 
HETATM   10  C   UNL     1     -44.677  57.572 -53.702  1.00  0.00     0.100 C 
HETATM   11  N   UNL     1     -45.395  57.085 -54.473  1.00  0.00    -0.191 NA
HETATM   12  C   UNL     1     -44.328  58.887 -51.698  1.00  0.00     0.140 A 
HETATM   13  O   UNL     1     -43.506  59.572 -50.780  1.00  0.00    -0.279 OA
ENDROOT
BRANCH   8  14
HETATM   14  C   UNL     1     -41.718  56.765 -53.241  1.00  0.00     0.000 A 
HETATM   15  C   UNL     1     -41.386  56.359 -54.562  1.00  0.00     0.076 A 
HETATM   16  C   UNL     1     -40.832  55.103 -54.801  1.00  0.00     0.038 A 
HETATM   17  C   UNL     1     -40.626  54.218 -53.750  1.00  0.00     0.015 A 
HETATM   18  C   UNL     1     -40.963  54.562 -52.439  1.00  0.00    -0.025 A 
HETATM   19  C   UNL     1     -41.516  55.840 -52.154  1.00  0.00    -0.016 A 
HETATM   20  C   UNL     1     -40.743  53.623 -51.418  1.00  0.00     0.012 A 
HETATM   21  C   UNL     1     -41.825  56.086 -50.791  1.00  0.00     0.013 A 
HETATM   22  C   UNL     1     -41.605  55.143 -49.782  1.00  0.00     0.001 A 
HETATM   23  C   UNL     1     -41.061  53.909 -50.095  1.00  0.00     0.001 A 
BRANCH  15  24
HETATM   24  O   UNL     1     -41.606  57.274 -55.564  1.00  0.00    -0.355 OA
HETATM   25  C   UNL     1     -42.457  56.874 -56.634  1.00  0.00     0.210 C 
ENDBRANCH  15  24
ENDBRANCH   8  14
BRANCH  12  26
HETATM   26  N   UNL     1     -45.664  58.986 -51.383  1.00  0.00    -0.282 NA
HETATM   27  H   UNL     1     -45.919  58.681 -50.447  1.00  0.00     0.126 HD
HETATM   28  H   UNL     1     -46.259  58.590 -52.108  1.00  0.00     0.126 HD
ENDBRANCH  12  26
TORSDOF 3
ENDMDL
MODEL 5
REMARK VINA RESULT:      -7.3      2.571      4.797
REMARK  3 active torsions:
REMARK  status: ('A' for Active; 'I' for Inactive)
REMARK    1  A    between atoms: C_8  and  C_9 
REMARK    2  A    between atoms: C_10  and  O_11 
REMARK    3  A    between atoms: C_24  and  N_25 
ROOT
HETATM    1  C   UNL     1     -44.354  55.303 -50.415  1.00  0.00     0.073 C 
HETATM    2  C   UNL     1     -43.088  54.779 -50.985  1.00  0.00     0.062 A 
HETATM    3  N   UNL     1     -42.344  53.903 -50.287  1.00  0.00    -0.177 NA
HETATM    4  N   UNL     1     -41.298  53.635 -51.096  1.00  0.00    -0.256 N 
HETATM    5  H   UNL     1     -40.587  52.987 -50.778  1.00  0.00     0.191 HD
HETATM    6  C   UNL     1     -41.368  54.298 -52.278  1.00  0.00     0.175 A 
HETATM    7  C   UNL     1     -42.499  55.071 -52.237  1.00  0.00     0.034 A 
HETATM    8  C   UNL     1     -42.867  55.898 -53.420  1.00  0.00     0.109 A 
HETATM    9  C   UNL     1     -41.804  55.791 -54.515  1.00  0.00     0.081 A 
HETATM   10  C   UNL     1     -42.036  56.537 -55.708  1.00  0.00     0.100 C 
HETATM   11  N   UNL     1     -42.228  57.109 -56.699  1.00  0.00    -0.191 NA
HETATM   12  C   UNL     1     -40.714  54.981 -54.406  1.00  0.00     0.140 A 
HETATM   13  O   UNL     1     -40.479  54.195 -53.260  1.00  0.00    -0.279 OA
ENDROOT
BRANCH   8  14
HETATM   14  C   UNL     1     -43.172  57.320 -52.930  1.00  0.00     0.000 A 
HETATM   15  C   UNL     1     -44.375  57.920 -53.393  1.00  0.00     0.076 A 
HETATM   16  C   UNL     1     -44.728  59.207 -52.988  1.00  0.00     0.038 A 
HETATM   17  C   UNL     1     -43.890  59.931 -52.150  1.00  0.00     0.015 A 
HETATM   18  C   UNL     1     -42.685  59.393 -51.693  1.00  0.00    -0.025 A 
HETATM   19  C   UNL     1     -42.298  58.079 -52.072  1.00  0.00    -0.016 A 
HETATM   20  C   UNL     1     -41.872  60.176 -50.856  1.00  0.00     0.012 A 
HETATM   21  C   UNL     1     -41.054  57.632 -51.555  1.00  0.00     0.013 A 
HETATM   22  C   UNL     1     -40.251  58.420 -50.724  1.00  0.00     0.001 A 
HETATM   23  C   UNL     1     -40.661  59.695 -50.373  1.00  0.00     0.001 A 
BRANCH  15  24
HETATM   24  O   UNL     1     -45.169  57.159 -54.217  1.00  0.00    -0.355 OA
HETATM   25  C   UNL     1     -45.576  57.745 -55.450  1.00  0.00     0.210 C 
ENDBRANCH  15  24
ENDBRANCH   8  14
BRANCH  12  26
HETATM   26  N   UNL     1     -39.735  54.822 -55.361  1.00  0.00    -0.282 NA
HETATM   27  H   UNL     1     -38.795  55.081 -55.073  1.00  0.00     0.126 HD
HETATM   28  H   UNL     1     -40.005  55.226 -56.256  1.00  0.00     0.126 HD
ENDBRANCH  12  26
TORSDOF 3
ENDMDL
MODEL 6
REMARK VINA RESULT:      -7.3      3.205      5.969
REMARK  3 active torsions:
REMARK  status: ('A' for Active; 'I' for Inactive)
REMARK    1  A    between atoms: C_8  and  C_9 
REMARK    2  A    between atoms: C_10  and  O_11 
REMARK    3  A    between atoms: C_24  and  N_25 
ROOT
HETATM    1  C   UNL     1     -40.653  56.430 -54.517  1.00  0.00     0.073 C 
HETATM    2  C   UNL     1     -40.626  55.007 -54.095  1.00  0.00     0.062 A 
HETATM    3  N   UNL     1     -40.554  54.030 -55.014  1.00  0.00    -0.177 NA
HETATM    4  N   UNL     1     -40.534  52.892 -54.290  1.00  0.00    -0.256 N 
HETATM    5  H   UNL     1     -40.482  52.004 -54.775  1.00  0.00     0.191 HD
HETATM    6  C   UNL     1     -40.575  53.121 -52.954  1.00  0.00     0.175 A 
HETATM    7  C   UNL     1     -40.662  54.479 -52.783  1.00  0.00     0.034 A 
HETATM    8  C   UNL     1     -40.691  55.047 -51.407  1.00  0.00     0.109 A 
HETATM    9  C   UNL     1     -40.697  53.935 -50.355  1.00  0.00     0.081 A 
HETATM   10  C   UNL     1     -40.723  54.344 -48.990  1.00  0.00     0.100 C 
HETATM   11  N   UNL     1     -40.706  54.661 -47.874  1.00  0.00    -0.191 NA
HETATM   12  C   UNL     1     -40.618  52.614 -50.682  1.00  0.00     0.140 A 
HETATM   13  O   UNL     1     -40.545  52.178 -52.020  1.00  0.00    -0.279 OA
ENDROOT
BRANCH   8  14
HETATM   14  C   UNL     1     -41.857  56.041 -51.325  1.00  0.00     0.000 A 
HETATM   15  C   UNL     1     -43.169  55.514 -51.475  1.00  0.00     0.076 A 
HETATM   16  C   UNL     1     -44.282  56.350 -51.406  1.00  0.00     0.038 A 
HETATM   17  C   UNL     1     -44.120  57.717 -51.219  1.00  0.00     0.015 A 
HETATM   18  C   UNL     1     -42.849  58.283 -51.095  1.00  0.00    -0.025 A 
HETATM   19  C   UNL     1     -41.691  57.462 -51.146  1.00  0.00    -0.016 A 
HETATM   20  C   UNL     1     -42.745  59.673 -50.920  1.00  0.00     0.012 A 
HETATM   21  C   UNL     1     -40.451  58.138 -51.013  1.00  0.00     0.013 A 
HETATM   22  C   UNL     1     -40.358  59.524 -50.841  1.00  0.00     0.001 A 
HETATM   23  C   UNL     1     -41.507  60.293 -50.793  1.00  0.00     0.001 A 
BRANCH  15  24
HETATM   24  O   UNL     1     -43.273  54.156 -51.653  1.00  0.00    -0.355 OA
HETATM   25  C   UNL     1     -44.268  53.475 -50.896  1.00  0.00     0.210 C 
ENDBRANCH  15  24
ENDBRANCH   8  14
BRANCH  12  26
HETATM   26  N   UNL     1     -40.597  51.568 -49.786  1.00  0.00    -0.282 NA
HETATM   27  H   UNL     1     -40.262  51.796 -48.853  1.00  0.00     0.126 HD
HETATM   28  H   UNL     1     -40.157  50.739 -50.177  1.00  0.00     0.126 HD
ENDBRANCH  12  26
TORSDOF 3
ENDMDL
MODEL 7
REMARK VINA RESULT:      -7.2      4.622      6.859
REMARK  3 active torsions:
REMARK  status: ('A' for Active; 'I' for Inactive)
REMARK    1  A    between atoms: C_8  and  C_9 
REMARK    2  A    between atoms: C_10  and  O_11 
REMARK    3  A    between atoms: C_24  and  N_25 
ROOT
HETATM    1  C   UNL     1     -47.446  57.755 -58.216  1.00  0.00     0.073 C 
HETATM    2  C   UNL     1     -46.378  57.247 -59.112  1.00  0.00     0.062 A 
HETATM    3  N   UNL     1     -46.663  56.331 -60.053  1.00  0.00    -0.177 NA
HETATM    4  N   UNL     1     -45.487  56.115 -60.676  1.00  0.00    -0.256 N 
HETATM    5  H   UNL     1     -45.452  55.449 -61.438  1.00  0.00     0.191 HD
HETATM    6  C   UNL     1     -44.481  56.872 -60.171  1.00  0.00     0.175 A 
HETATM    7  C   UNL     1     -45.009  57.602 -59.138  1.00  0.00     0.034 A 
HETATM    8  C   UNL     1     -44.144  58.563 -58.398  1.00  0.00     0.109 A 
HETATM    9  C   UNL     1     -42.702  58.506 -58.908  1.00  0.00     0.081 A 
HETATM   10  C   UNL     1     -41.767  59.381 -58.282  1.00  0.00     0.100 C 
HETATM   11  N   UNL     1     -41.001  60.114 -57.809  1.00  0.00    -0.191 NA
HETATM   12  C   UNL     1     -42.321  57.713 -59.948  1.00  0.00     0.140 A 
HETATM   13  O   UNL     1     -43.230  56.869 -60.617  1.00  0.00    -0.279 OA
ENDROOT
BRANCH   8  14
HETATM   14  C   UNL     1     -44.326  58.310 -56.896  1.00  0.00     0.000 A 
HETATM   15  C   UNL     1     -44.937  59.343 -56.134  1.00  0.00     0.076 A 
HETATM   16  C   UNL     1     -45.145  59.187 -54.765  1.00  0.00     0.038 A 
HETATM   17  C   UNL     1     -44.727  58.029 -54.121  1.00  0.00     0.015 A 
HETATM   18  C   UNL     1     -44.097  57.000 -54.823  1.00  0.00    -0.025 A 
HETATM   19  C   UNL     1     -43.881  57.115 -56.223  1.00  0.00    -0.016 A 
HETATM   20  C   UNL     1     -43.686  55.856 -54.117  1.00  0.00     0.012 A 
HETATM   21  C   UNL     1     -43.229  56.014 -56.837  1.00  0.00     0.013 A 
HETATM   22  C   UNL     1     -42.821  54.881 -56.125  1.00  0.00     0.001 A 
HETATM   23  C   UNL     1     -43.051  54.801 -54.763  1.00  0.00     0.001 A 
BRANCH  15  24
HETATM   24  O   UNL     1     -45.334  60.465 -56.820  1.00  0.00    -0.355 OA
HETATM   25  C   UNL     1     -44.685  61.690 -56.495  1.00  0.00     0.210 C 
ENDBRANCH  15  24
ENDBRANCH   8  14
BRANCH  12  26
HETATM   26  N   UNL     1     -41.048  57.631 -60.467  1.00  0.00    -0.282 NA
HETATM   27  H   UNL     1     -40.874  56.841 -61.083  1.00  0.00     0.126 HD
HETATM   28  H   UNL     1     -40.335  57.744 -59.751  1.00  0.00     0.126 HD
ENDBRANCH  12  26
TORSDOF 3
ENDMDL
MODEL 8
REMARK VINA RESULT:      -7.1     16.566     18.611
REMARK  3 active torsions:
REMARK  status: ('A' for Active; 'I' for Inactive)
REMARK    1  A    between atoms: C_8  and  C_9 
REMARK    2  A    between atoms: C_10  and  O_11 
REMARK    3  A    between atoms: C_24  and  N_25 
ROOT
HETATM    1  C   UNL     1     -33.123  40.907 -56.608  1.00  0.00     0.073 C 
HETATM    2  C   UNL     1     -33.172  40.663 -55.145  1.00  0.00     0.062 A 
HETATM    3  N   UNL     1     -32.041  40.420 -54.462  1.00  0.00    -0.177 NA
HETATM    4  N   UNL     1     -32.450  40.264 -53.186  1.00  0.00    -0.256 N 
HETATM    5  H   UNL     1     -31.759  40.067 -52.471  1.00  0.00     0.191 HD
HETATM    6  C   UNL     1     -33.790  40.415 -53.044  1.00  0.00     0.175 A 
HETATM    7  C   UNL     1     -34.301  40.650 -54.294  1.00  0.00     0.034 A 
HETATM    8  C   UNL     1     -35.762  40.891 -54.458  1.00  0.00     0.109 A 
HETATM    9  C   UNL     1     -36.494  40.750 -53.121  1.00  0.00     0.081 A 
HETATM   10  C   UNL     1     -37.904  40.959 -53.138  1.00  0.00     0.100 C 
HETATM   11  N   UNL     1     -39.047  41.162 -53.129  1.00  0.00    -0.191 NA
HETATM   12  C   UNL     1     -35.844  40.500 -51.950  1.00  0.00     0.140 A 
HETATM   13  O   UNL     1     -34.446  40.334 -51.891  1.00  0.00    -0.279 OA
ENDROOT
BRANCH   8  14
HETATM   14  C   UNL     1     -36.271  39.989 -55.590  1.00  0.00     0.000 A 
HETATM   15  C   UNL     1     -36.312  38.591 -55.334  1.00  0.00     0.076 A 
HETATM   16  C   UNL     1     -36.770  37.705 -56.308  1.00  0.00     0.038 A 
HETATM   17  C   UNL     1     -37.162  38.176 -57.555  1.00  0.00     0.015 A 
HETATM   18  C   UNL     1     -37.111  39.538 -57.860  1.00  0.00    -0.025 A 
HETATM   19  C   UNL     1     -36.665  40.474 -56.889  1.00  0.00    -0.016 A 
HETATM   20  C   UNL     1     -37.509  39.956 -59.141  1.00  0.00     0.012 A 
HETATM   21  C   UNL     1     -36.649  41.831 -57.304  1.00  0.00     0.013 A 
HETATM   22  C   UNL     1     -37.045  42.237 -58.583  1.00  0.00     0.001 A 
HETATM   23  C   UNL     1     -37.478  41.298 -59.503  1.00  0.00     0.001 A 
BRANCH  15  24
HETATM   24  O   UNL     1     -35.917  38.178 -54.085  1.00  0.00    -0.355 OA
HETATM   25  C   UNL     1     -35.115  37.004 -54.011  1.00  0.00     0.210 C 
ENDBRANCH  15  24
ENDBRANCH   8  14
BRANCH  12  26
HETATM   26  N   UNL     1     -36.440  40.384 -50.714  1.00  0.00    -0.282 NA
HETATM   27  H   UNL     1     -37.414  40.673 -50.667  1.00  0.00     0.126 HD
HETATM   28  H   UNL     1     -35.868  40.785 -49.975  1.00  0.00     0.126 HD
ENDBRANCH  12  26
TORSDOF 3
ENDMDL
MODEL 9
REMARK VINA RESULT:      -7.1      2.806      5.876
REMARK  3 active torsions:
REMARK  status: ('A' for Active; 'I' for Inactive)
REMARK    1  A    between atoms: C_8  and  C_9 
REMARK    2  A    between atoms: C_10  and  O_11 
REMARK    3  A    between atoms: C_24  and  N_25 
ROOT
HETATM    1  C   UNL     1     -41.877  59.357 -54.927  1.00  0.00     0.073 C 
HETATM    2  C   UNL     1     -42.567  58.055 -54.747  1.00  0.00     0.062 A 
HETATM    3  N   UNL     1     -43.319  57.546 -55.737  1.00  0.00    -0.177 NA
HETATM    4  N   UNL     1     -43.770  56.374 -55.245  1.00  0.00    -0.256 N 
HETATM    5  H   UNL     1     -44.371  55.799 -55.823  1.00  0.00     0.191 HD
HETATM    6  C   UNL     1     -43.316  56.125 -53.991  1.00  0.00     0.175 A 
HETATM    7  C   UNL     1     -42.553  57.202 -53.620  1.00  0.00     0.034 A 
HETATM    8  C   UNL     1     -41.884  57.205 -52.289  1.00  0.00     0.109 A 
HETATM    9  C   UNL     1     -42.254  55.956 -51.487  1.00  0.00     0.081 A 
HETATM   10  C   UNL     1     -41.678  55.834 -50.188  1.00  0.00     0.100 C 
HETATM   11  N   UNL     1     -41.187  55.702 -49.145  1.00  0.00    -0.191 NA
HETATM   12  C   UNL     1     -43.043  54.965 -51.990  1.00  0.00     0.140 A 
HETATM   13  O   UNL     1     -43.592  55.033 -53.286  1.00  0.00    -0.279 OA
ENDROOT
BRANCH   8  14
HETATM   14  C   UNL     1     -42.189  58.545 -51.605  1.00  0.00     0.000 A 
HETATM   15  C   UNL     1     -41.077  59.358 -51.251  1.00  0.00     0.076 A 
HETATM   16  C   UNL     1     -41.270  60.593 -50.634  1.00  0.00     0.038 A 
HETATM   17  C   UNL     1     -42.553  61.031 -50.329  1.00  0.00     0.015 A 
HETATM   18  C   UNL     1     -43.672  60.253 -50.633  1.00  0.00    -0.025 A 
HETATM   19  C   UNL     1     -43.518  58.995 -51.275  1.00  0.00    -0.016 A 
HETATM   20  C   UNL     1     -44.945  60.741 -50.290  1.00  0.00     0.012 A 
HETATM   21  C   UNL     1     -44.719  58.285 -51.535  1.00  0.00     0.013 A 
HETATM   22  C   UNL     1     -45.981  58.779 -51.187  1.00  0.00     0.001 A 
HETATM   23  C   UNL     1     -46.095  60.010 -50.565  1.00  0.00     0.001 A 
BRANCH  15  24
HETATM   24  O   UNL     1     -39.832  58.880 -51.579  1.00  0.00    -0.355 OA
HETATM   25  C   UNL     1     -38.735  59.329 -50.789  1.00  0.00     0.210 C 
ENDBRANCH  15  24
ENDBRANCH   8  14
BRANCH  12  26
HETATM   26  N   UNL     1     -43.395  53.809 -51.330  1.00  0.00    -0.282 NA
HETATM   27  H   UNL     1     -43.705  53.042 -51.923  1.00  0.00     0.126 HD
HETATM   28  H   UNL     1     -44.022  53.990 -50.550  1.00  0.00     0.126 HD
ENDBRANCH  12  26
TORSDOF 3
ENDMDL
MODEL 10
REMARK VINA RESULT:      -6.8      2.261      4.391
REMARK  3 active torsions:
REMARK  status: ('A' for Active; 'I' for Inactive)
REMARK    1  A    between atoms: C_8  and  C_9 
REMARK    2  A    between atoms: C_10  and  O_11 
REMARK    3  A    between atoms: C_24  and  N_25 
ROOT
HETATM    1  C   UNL     1     -41.782  56.334 -54.828  1.00  0.00     0.073 C 
HETATM    2  C   UNL     1     -42.623  57.515 -55.145  1.00  0.00     0.062 A 
HETATM    3  N   UNL     1     -42.546  58.095 -56.355  1.00  0.00    -0.177 NA
HETATM    4  N   UNL     1     -43.438  59.104 -56.299  1.00  0.00    -0.256 N 
HETATM    5  H   UNL     1     -43.559  59.697 -57.112  1.00  0.00     0.191 HD
HETATM    6  C   UNL     1     -44.081  59.169 -55.105  1.00  0.00     0.175 A 
HETATM    7  C   UNL     1     -43.563  58.172 -54.319  1.00  0.00     0.034 A 
HETATM    8  C   UNL     1     -44.099  57.968 -52.944  1.00  0.00     0.109 A 
HETATM    9  C   UNL     1     -45.150  59.027 -52.603  1.00  0.00     0.081 A 
HETATM   10  C   UNL     1     -45.746  58.945 -51.310  1.00  0.00     0.100 C 
HETATM   11  N   UNL     1     -46.267  58.869 -50.276  1.00  0.00    -0.191 NA
HETATM   12  C   UNL     1     -45.557  59.973 -53.495  1.00  0.00     0.140 A 
HETATM   13  O   UNL     1     -45.021  60.054 -54.795  1.00  0.00    -0.279 OA
ENDROOT
BRANCH   8  14
HETATM   14  C   UNL     1     -42.911  57.878 -51.977  1.00  0.00     0.000 A 
HETATM   15  C   UNL     1     -42.155  59.064 -51.769  1.00  0.00     0.076 A 
HETATM   16  C   UNL     1     -41.065  59.068 -50.900  1.00  0.00     0.038 A 
HETATM   17  C   UNL     1     -40.685  57.901 -50.249  1.00  0.00     0.015 A 
HETATM   18  C   UNL     1     -41.381  56.706 -50.444  1.00  0.00    -0.025 A 
HETATM   19  C   UNL     1     -42.507  56.666 -51.311  1.00  0.00    -0.016 A 
HETATM   20  C   UNL     1     -40.945  55.554 -49.768  1.00  0.00     0.012 A 
HETATM   21  C   UNL     1     -43.138  55.402 -51.441  1.00  0.00     0.013 A 
HETATM   22  C   UNL     1     -42.694  54.260 -50.765  1.00  0.00     0.001 A 
HETATM   23  C   UNL     1     -41.596  54.336 -49.926  1.00  0.00     0.001 A 
BRANCH  15  24
HETATM   24  O   UNL     1     -42.575  60.191 -52.434  1.00  0.00    -0.355 OA
HETATM   25  C   UNL     1     -42.704  61.386 -51.672  1.00  0.00     0.210 C 
ENDBRANCH  15  24
ENDBRANCH   8  14
BRANCH  12  26
HETATM   26  N   UNL     1     -46.511  60.938 -53.258  1.00  0.00    -0.282 NA
HETATM   27  H   UNL     1     -47.203  61.061 -53.994  1.00  0.00     0.126 HD
HETATM   28  H   UNL     1     -46.099  61.814 -52.946  1.00  0.00     0.126 HD
ENDBRANCH  12  26
TORSDOF 3
ENDMDL
