MODEL 1
REMARK VINA RESULT:      -7.4      0.000      0.000
REMARK  9 active torsions:
REMARK  status: ('A' for Active; 'I' for Inactive)
REMARK    1  A    between atoms: C_2  and  O_3 
REMARK    2  A    between atoms: O_3  and  C_4 
REMARK    3  A    between atoms: C_4  and  C_5 
REMARK    4  A    between atoms: C_7  and  C_8 
REMARK       I    between atoms: C_8  and  N_9 
REMARK    5  A    between atoms: N_9  and  N_10 
REMARK    6  A    between atoms: N_10  and  C_11 
REMARK    7  A    between atoms: C_11  and  N_12 
REMARK    8  A    between atoms: N_12  and  C_13 
REMARK    9  A    between atoms: C_13  and  C_14 
ROOT
HETATM    1  C   UNL     1     -44.426  57.468 -51.759  1.00  0.00     0.293 C 
HETATM    2  N   UNL     1     -44.759  56.983 -53.017  1.00  0.00    -0.262 N 
HETATM    3  O   UNL     1     -45.352  57.927 -51.087  1.00  0.00    -0.264 OA
HETATM    4  H   UNL     1     -45.772  56.959 -53.133  1.00  0.00     0.190 HD
ENDROOT
BRANCH   1   5
HETATM    5  C   UNL     1     -43.045  57.492 -51.315  1.00  0.00     0.145 A 
HETATM    6  O   UNL     1     -42.482  56.276 -51.002  1.00  0.00    -0.307 OA
HETATM    7  C   UNL     1     -41.225  56.495 -50.530  1.00  0.00     0.078 A 
HETATM    8  C   UNL     1     -40.947  57.843 -50.556  1.00  0.00     0.038 A 
HETATM    9  C   UNL     1     -42.111  58.480 -51.058  1.00  0.00     0.045 A 
BRANCH   7  10
HETATM   10  C   UNL     1     -40.460  55.296 -50.099  1.00  0.00     0.240 C 
BRANCH  10  11
HETATM   11  O   UNL     1     -41.301  54.169 -50.346  1.00  0.00    -0.345 OA
BRANCH  11  12
HETATM   12  C   UNL     1     -40.807  53.193 -51.166  1.00  0.00     0.069 A 
HETATM   13  C   UNL     1     -40.098  52.061 -50.762  1.00  0.00     0.038 A 
HETATM   14  C   UNL     1     -39.658  51.131 -51.712  1.00  0.00     0.022 A 
HETATM   15  C   UNL     1     -39.929  51.335 -53.064  1.00  0.00     0.011 A 
HETATM   16  C   UNL     1     -40.635  52.460 -53.477  1.00  0.00     0.022 A 
HETATM   17 BR   UNL     1     -39.336  50.075 -54.341  1.00  0.00    -0.051 Br
HETATM   18  C   UNL     1     -41.074  53.385 -52.525  1.00  0.00     0.038 A 
ENDBRANCH  11  12
ENDBRANCH  10  11
ENDBRANCH   7  10
ENDBRANCH   1   5
BRANCH   2  19
HETATM   19  N   UNL     1     -44.091  55.898 -53.641  1.00  0.00    -0.274 N 
HETATM   20  H   UNL     1     -43.774  55.172 -52.995  1.00  0.00     0.189 HD
BRANCH  19  21
HETATM   21  C   UNL     1     -43.270  56.176 -54.708  1.00  0.00     0.186 C 
HETATM   22  S   UNL     1     -41.623  56.462 -54.605  1.00  0.00    -0.040 SA
BRANCH  21  23
HETATM   23  N   UNL     1     -43.828  56.226 -55.945  1.00  0.00    -0.364 N 
HETATM   24  H   UNL     1     -44.057  55.304 -56.305  1.00  0.00     0.162 HD
BRANCH  23  25
HETATM   25  C   UNL     1     -43.971  57.336 -56.884  1.00  0.00     0.154 C 
BRANCH  25  26
HETATM   26  C   UNL     1     -43.451  57.036 -58.296  1.00  0.00     0.139 C 
HETATM   27  O   UNL     1     -43.218  55.612 -58.418  1.00  0.00    -0.384 OA
HETATM   28  C   UNL     1     -44.031  55.115 -59.491  1.00  0.00     0.168 C 
HETATM   29  C   UNL     1     -44.280  56.299 -60.393  1.00  0.00     0.029 C 
HETATM   30  C   UNL     1     -44.450  57.410 -59.387  1.00  0.00     0.035 C 
ENDBRANCH  25  26
ENDBRANCH  23  25
ENDBRANCH  21  23
ENDBRANCH  19  21
ENDBRANCH   2  19
TORSDOF 9
ENDMDL
MODEL 2
REMARK VINA RESULT:      -7.1      2.720      4.693
REMARK  9 active torsions:
REMARK  status: ('A' for Active; 'I' for Inactive)
REMARK    1  A    between atoms: C_2  and  O_3 
REMARK    2  A    between atoms: O_3  and  C_4 
REMARK    3  A    between atoms: C_4  and  C_5 
REMARK    4  A    between atoms: C_7  and  C_8 
REMARK       I    between atoms: C_8  and  N_9 
REMARK    5  A    between atoms: N_9  and  N_10 
REMARK    6  A    between atoms: N_10  and  C_11 
REMARK    7  A    between atoms: C_11  and  N_12 
REMARK    8  A    between atoms: N_12  and  C_13 
REMARK    9  A    between atoms: C_13  and  C_14 
ROOT
HETATM    1  C   UNL     1     -41.446  58.726 -53.805  1.00  0.00     0.293 C 
HETATM    2  N   UNL     1     -41.978  57.890 -54.778  1.00  0.00    -0.262 N 
HETATM    3  O   UNL     1     -41.132  59.861 -54.169  1.00  0.00    -0.264 OA
HETATM    4  H   UNL     1     -42.156  58.412 -55.636  1.00  0.00     0.190 HD
ENDROOT
BRANCH   1   5
HETATM    5  C   UNL     1     -41.212  58.239 -52.458  1.00  0.00     0.145 A 
HETATM    6  O   UNL     1     -41.496  56.912 -52.229  1.00  0.00    -0.307 OA
HETATM    7  C   UNL     1     -41.300  56.653 -50.908  1.00  0.00     0.078 A 
HETATM    8  C   UNL     1     -40.863  57.793 -50.271  1.00  0.00     0.038 A 
HETATM    9  C   UNL     1     -40.808  58.806 -51.262  1.00  0.00     0.045 A 
BRANCH   7  10
HETATM   10  C   UNL     1     -41.592  55.270 -50.452  1.00  0.00     0.240 C 
BRANCH  10  11
HETATM   11  O   UNL     1     -40.363  54.547 -50.539  1.00  0.00    -0.345 OA
BRANCH  11  12
HETATM   12  C   UNL     1     -40.279  53.578 -51.499  1.00  0.00     0.069 A 
HETATM   13  C   UNL     1     -40.696  53.697 -52.826  1.00  0.00     0.038 A 
HETATM   14  C   UNL     1     -40.538  52.624 -53.711  1.00  0.00     0.022 A 
HETATM   15  C   UNL     1     -39.963  51.434 -53.268  1.00  0.00     0.011 A 
HETATM   16  C   UNL     1     -39.545  51.305 -51.947  1.00  0.00     0.022 A 
HETATM   17 BR   UNL     1     -39.751  49.989 -54.467  1.00  0.00    -0.051 Br
HETATM   18  C   UNL     1     -39.702  52.379 -51.068  1.00  0.00     0.038 A 
ENDBRANCH  11  12
ENDBRANCH  10  11
ENDBRANCH   7  10
ENDBRANCH   1   5
BRANCH   2  19
HETATM   19  N   UNL     1     -42.951  56.892 -54.509  1.00  0.00    -0.274 N 
HETATM   20  H   UNL     1     -42.839  56.037 -55.056  1.00  0.00     0.189 HD
BRANCH  19  21
HETATM   21  C   UNL     1     -44.240  57.302 -54.261  1.00  0.00     0.186 C 
HETATM   22  S   UNL     1     -45.177  58.213 -55.308  1.00  0.00    -0.040 SA
BRANCH  21  23
HETATM   23  N   UNL     1     -44.805  56.946 -53.078  1.00  0.00    -0.364 N 
HETATM   24  H   UNL     1     -45.496  56.210 -53.185  1.00  0.00     0.162 HD
BRANCH  23  25
HETATM   25  C   UNL     1     -44.720  57.562 -51.757  1.00  0.00     0.154 C 
BRANCH  25  26
HETATM   26  C   UNL     1     -45.420  58.924 -51.651  1.00  0.00     0.139 C 
HETATM   27  O   UNL     1     -46.043  59.032 -50.348  1.00  0.00    -0.384 OA
HETATM   28  C   UNL     1     -45.490  60.177 -49.681  1.00  0.00     0.168 C 
HETATM   29  C   UNL     1     -45.005  61.091 -50.780  1.00  0.00     0.029 C 
HETATM   30  C   UNL     1     -44.454  60.098 -51.772  1.00  0.00     0.035 C 
ENDBRANCH  25  26
ENDBRANCH  23  25
ENDBRANCH  21  23
ENDBRANCH  19  21
ENDBRANCH   2  19
TORSDOF 9
ENDMDL
MODEL 3
REMARK VINA RESULT:      -7.0      2.769      5.868
REMARK  9 active torsions:
REMARK  status: ('A' for Active; 'I' for Inactive)
REMARK    1  A    between atoms: C_2  and  O_3 
REMARK    2  A    between atoms: O_3  and  C_4 
REMARK    3  A    between atoms: C_4  and  C_5 
REMARK    4  A    between atoms: C_7  and  C_8 
REMARK       I    between atoms: C_8  and  N_9 
REMARK    5  A    between atoms: N_9  and  N_10 
REMARK    6  A    between atoms: N_10  and  C_11 
REMARK    7  A    between atoms: C_11  and  N_12 
REMARK    8  A    between atoms: N_12  and  C_13 
REMARK    9  A    between atoms: C_13  and  C_14 
ROOT
HETATM    1  C   UNL     1     -45.313  58.939 -51.293  1.00  0.00     0.293 C 
HETATM    2  N   UNL     1     -44.208  58.726 -50.480  1.00  0.00    -0.262 N 
HETATM    3  O   UNL     1     -46.403  59.025 -50.723  1.00  0.00    -0.264 OA
HETATM    4  H   UNL     1     -44.466  58.814 -49.497  1.00  0.00     0.190 HD
ENDROOT
BRANCH   1   5
HETATM    5  C   UNL     1     -45.175  58.977 -52.736  1.00  0.00     0.145 A 
HETATM    6  O   UNL     1     -44.557  57.896 -53.321  1.00  0.00    -0.307 OA
HETATM    7  C   UNL     1     -44.439  58.138 -54.654  1.00  0.00     0.078 A 
HETATM    8  C   UNL     1     -45.000  59.358 -54.956  1.00  0.00     0.038 A 
HETATM    9  C   UNL     1     -45.469  59.895 -53.730  1.00  0.00     0.045 A 
BRANCH   7  10
HETATM   10  C   UNL     1     -43.758  57.092 -55.461  1.00  0.00     0.240 C 
BRANCH  10  11
HETATM   11  O   UNL     1     -42.466  56.909 -54.880  1.00  0.00    -0.345 OA
BRANCH  11  12
HETATM   12  C   UNL     1     -42.043  55.622 -54.698  1.00  0.00     0.069 A 
HETATM   13  C   UNL     1     -42.856  54.522 -54.421  1.00  0.00     0.038 A 
HETATM   14  C   UNL     1     -42.289  53.250 -54.270  1.00  0.00     0.022 A 
HETATM   15  C   UNL     1     -40.911  53.082 -54.396  1.00  0.00     0.011 A 
HETATM   16  C   UNL     1     -40.093  54.173 -54.673  1.00  0.00     0.022 A 
HETATM   17 BR   UNL     1     -40.152  51.364 -54.194  1.00  0.00    -0.051 Br
HETATM   18  C   UNL     1     -40.663  55.440 -54.825  1.00  0.00     0.038 A 
ENDBRANCH  11  12
ENDBRANCH  10  11
ENDBRANCH   7  10
ENDBRANCH   1   5
BRANCH   2  19
HETATM   19  N   UNL     1     -42.911  59.226 -50.772  1.00  0.00    -0.274 N 
HETATM   20  H   UNL     1     -42.907  60.105 -51.293  1.00  0.00     0.189 HD
BRANCH  19  21
HETATM   21  C   UNL     1     -41.929  58.317 -51.086  1.00  0.00     0.186 C 
HETATM   22  S   UNL     1     -40.695  58.576 -52.189  1.00  0.00    -0.040 SA
BRANCH  21  23
HETATM   23  N   UNL     1     -41.951  57.113 -50.458  1.00  0.00    -0.364 N 
HETATM   24  H   UNL     1     -41.297  57.068 -49.682  1.00  0.00     0.162 HD
BRANCH  23  25
HETATM   25  C   UNL     1     -42.599  55.857 -50.825  1.00  0.00     0.154 C 
BRANCH  25  26
HETATM   26  C   UNL     1     -42.066  54.630 -50.072  1.00  0.00     0.139 C 
HETATM   27  O   UNL     1     -41.275  53.828 -50.983  1.00  0.00    -0.384 OA
HETATM   28  C   UNL     1     -39.948  53.720 -50.448  1.00  0.00     0.168 C 
HETATM   29  C   UNL     1     -40.092  53.927 -48.960  1.00  0.00     0.029 C 
HETATM   30  C   UNL     1     -41.150  55.000 -48.910  1.00  0.00     0.035 C 
ENDBRANCH  25  26
ENDBRANCH  23  25
ENDBRANCH  21  23
ENDBRANCH  19  21
ENDBRANCH   2  19
TORSDOF 9
ENDMDL
MODEL 4
REMARK VINA RESULT:      -6.9      3.329      7.013
REMARK  9 active torsions:
REMARK  status: ('A' for Active; 'I' for Inactive)
REMARK    1  A    between atoms: C_2  and  O_3 
REMARK    2  A    between atoms: O_3  and  C_4 
REMARK    3  A    between atoms: C_4  and  C_5 
REMARK    4  A    between atoms: C_7  and  C_8 
REMARK       I    between atoms: C_8  and  N_9 
REMARK    5  A    between atoms: N_9  and  N_10 
REMARK    6  A    between atoms: N_10  and  C_11 
REMARK    7  A    between atoms: C_11  and  N_12 
REMARK    8  A    between atoms: N_12  and  C_13 
REMARK    9  A    between atoms: C_13  and  C_14 
ROOT
HETATM    1  C   UNL     1     -41.388  57.872 -50.958  1.00  0.00     0.293 C 
HETATM    2  N   UNL     1     -41.681  56.836 -50.080  1.00  0.00    -0.262 N 
HETATM    3  O   UNL     1     -40.596  58.726 -50.554  1.00  0.00    -0.264 OA
HETATM    4  H   UNL     1     -41.067  56.876 -49.266  1.00  0.00     0.190 HD
ENDROOT
BRANCH   1   5
HETATM    5  C   UNL     1     -42.053  57.962 -52.245  1.00  0.00     0.145 A 
HETATM    6  O   UNL     1     -41.802  56.944 -53.135  1.00  0.00    -0.307 OA
HETATM    7  C   UNL     1     -42.433  57.233 -54.305  1.00  0.00     0.078 A 
HETATM    8  C   UNL     1     -43.120  58.420 -54.183  1.00  0.00     0.038 A 
HETATM    9  C   UNL     1     -42.875  58.886 -52.865  1.00  0.00     0.045 A 
BRANCH   7  10
HETATM   10  C   UNL     1     -42.252  56.261 -55.415  1.00  0.00     0.240 C 
BRANCH  10  11
HETATM   11  O   UNL     1     -42.163  57.029 -56.616  1.00  0.00    -0.345 OA
BRANCH  11  12
HETATM   12  C   UNL     1     -43.197  56.917 -57.502  1.00  0.00     0.069 A 
HETATM   13  C   UNL     1     -44.277  57.793 -57.619  1.00  0.00     0.038 A 
HETATM   14  C   UNL     1     -45.265  57.565 -58.585  1.00  0.00     0.022 A 
HETATM   15  C   UNL     1     -45.171  56.461 -59.431  1.00  0.00     0.011 A 
HETATM   16  C   UNL     1     -44.098  55.582 -59.322  1.00  0.00     0.022 A 
HETATM   17 BR   UNL     1     -46.506  56.159 -60.733  1.00  0.00    -0.051 Br
HETATM   18  C   UNL     1     -43.113  55.814 -58.358  1.00  0.00     0.038 A 
ENDBRANCH  11  12
ENDBRANCH  10  11
ENDBRANCH   7  10
ENDBRANCH   1   5
BRANCH   2  19
HETATM   19  N   UNL     1     -41.982  55.514 -50.500  1.00  0.00    -0.274 N 
HETATM   20  H   UNL     1     -42.831  55.125 -50.086  1.00  0.00     0.189 HD
BRANCH  19  21
HETATM   21  C   UNL     1     -40.933  54.646 -50.689  1.00  0.00     0.186 C 
HETATM   22  S   UNL     1     -39.992  53.993 -49.466  1.00  0.00    -0.040 SA
BRANCH  21  23
HETATM   23  N   UNL     1     -40.627  54.284 -51.962  1.00  0.00    -0.364 N 
HETATM   24  H   UNL     1     -40.092  54.996 -52.450  1.00  0.00     0.162 HD
BRANCH  23  25
HETATM   25  C   UNL     1     -41.092  53.162 -52.773  1.00  0.00     0.154 C 
BRANCH  25  26
HETATM   26  C   UNL     1     -39.970  52.251 -53.288  1.00  0.00     0.139 C 
HETATM   27  O   UNL     1     -39.482  51.439 -52.192  1.00  0.00    -0.384 OA
HETATM   28  C   UNL     1     -39.657  50.059 -52.544  1.00  0.00     0.168 C 
HETATM   29  C   UNL     1     -39.675  50.025 -54.053  1.00  0.00     0.029 C 
HETATM   30  C   UNL     1     -40.440  51.285 -54.371  1.00  0.00     0.035 C 
ENDBRANCH  25  26
ENDBRANCH  23  25
ENDBRANCH  21  23
ENDBRANCH  19  21
ENDBRANCH   2  19
TORSDOF 9
ENDMDL
MODEL 5
REMARK VINA RESULT:      -6.9      4.023      7.182
REMARK  9 active torsions:
REMARK  status: ('A' for Active; 'I' for Inactive)
REMARK    1  A    between atoms: C_2  and  O_3 
REMARK    2  A    between atoms: O_3  and  C_4 
REMARK    3  A    between atoms: C_4  and  C_5 
REMARK    4  A    between atoms: C_7  and  C_8 
REMARK       I    between atoms: C_8  and  N_9 
REMARK    5  A    between atoms: N_9  and  N_10 
REMARK    6  A    between atoms: N_10  and  C_11 
REMARK    7  A    between atoms: C_11  and  N_12 
REMARK    8  A    between atoms: N_12  and  C_13 
REMARK    9  A    between atoms: C_13  and  C_14 
ROOT
HETATM    1  C   UNL     1     -45.672  58.743 -50.637  1.00  0.00     0.293 C 
HETATM    2  N   UNL     1     -45.256  59.591 -49.619  1.00  0.00    -0.262 N 
HETATM    3  O   UNL     1     -46.880  58.508 -50.696  1.00  0.00    -0.264 OA
HETATM    4  H   UNL     1     -46.062  60.006 -49.151  1.00  0.00     0.190 HD
ENDROOT
BRANCH   1   5
HETATM    5  C   UNL     1     -44.706  58.119 -51.522  1.00  0.00     0.145 A 
HETATM    6  O   UNL     1     -43.928  57.124 -50.974  1.00  0.00    -0.307 OA
HETATM    7  C   UNL     1     -43.031  56.716 -51.913  1.00  0.00     0.078 A 
HETATM    8  C   UNL     1     -43.231  57.415 -53.082  1.00  0.00     0.038 A 
HETATM    9  C   UNL     1     -44.301  58.312 -52.831  1.00  0.00     0.045 A 
BRANCH   7  10
HETATM   10  C   UNL     1     -42.070  55.662 -51.497  1.00  0.00     0.240 C 
BRANCH  10  11
HETATM   11  O   UNL     1     -41.073  55.598 -52.517  1.00  0.00    -0.345 OA
BRANCH  11  12
HETATM   12  C   UNL     1     -40.759  54.359 -53.003  1.00  0.00     0.069 A 
HETATM   13  C   UNL     1     -40.779  53.973 -54.344  1.00  0.00     0.038 A 
HETATM   14  C   UNL     1     -40.420  52.669 -54.705  1.00  0.00     0.022 A 
HETATM   15  C   UNL     1     -40.043  51.753 -53.723  1.00  0.00     0.011 A 
HETATM   16  C   UNL     1     -40.021  52.129 -52.384  1.00  0.00     0.022 A 
HETATM   17 BR   UNL     1     -39.559  49.995 -54.216  1.00  0.00    -0.051 Br
HETATM   18  C   UNL     1     -40.377  53.432 -52.028  1.00  0.00     0.038 A 
ENDBRANCH  11  12
ENDBRANCH  10  11
ENDBRANCH   7  10
ENDBRANCH   1   5
BRANCH   2  19
HETATM   19  N   UNL     1     -44.151  60.473 -49.735  1.00  0.00    -0.274 N 
HETATM   20  H   UNL     1     -43.499  60.438 -48.948  1.00  0.00     0.189 HD
BRANCH  19  21
HETATM   21  C   UNL     1     -44.371  61.707 -50.300  1.00  0.00     0.186 C 
HETATM   22  S   UNL     1     -43.960  62.135 -51.866  1.00  0.00    -0.040 SA
BRANCH  21  23
HETATM   23  N   UNL     1     -44.966  62.660 -49.537  1.00  0.00    -0.364 N 
HETATM   24  H   UNL     1     -44.295  63.296 -49.116  1.00  0.00     0.162 HD
BRANCH  23  25
HETATM   25  C   UNL     1     -46.349  62.795 -49.086  1.00  0.00     0.154 C 
BRANCH  25  26
HETATM   26  C   UNL     1     -46.560  62.480 -47.599  1.00  0.00     0.139 C 
HETATM   27  O   UNL     1     -46.257  61.082 -47.368  1.00  0.00    -0.384 OA
HETATM   28  C   UNL     1     -45.201  61.007 -46.398  1.00  0.00     0.168 C 
HETATM   29  C   UNL     1     -45.284  62.290 -45.608  1.00  0.00     0.029 C 
HETATM   30  C   UNL     1     -45.638  63.282 -46.686  1.00  0.00     0.035 C 
ENDBRANCH  25  26
ENDBRANCH  23  25
ENDBRANCH  21  23
ENDBRANCH  19  21
ENDBRANCH   2  19
TORSDOF 9
ENDMDL
MODEL 6
REMARK VINA RESULT:      -6.9     15.664     18.424
REMARK  9 active torsions:
REMARK  status: ('A' for Active; 'I' for Inactive)
REMARK    1  A    between atoms: C_2  and  O_3 
REMARK    2  A    between atoms: O_3  and  C_4 
REMARK    3  A    between atoms: C_4  and  C_5 
REMARK    4  A    between atoms: C_7  and  C_8 
REMARK       I    between atoms: C_8  and  N_9 
REMARK    5  A    between atoms: N_9  and  N_10 
REMARK    6  A    between atoms: N_10  and  C_11 
REMARK    7  A    between atoms: C_11  and  N_12 
REMARK    8  A    between atoms: N_12  and  C_13 
REMARK    9  A    between atoms: C_13  and  C_14 
ROOT
HETATM    1  C   UNL     1     -35.797  42.085 -54.069  1.00  0.00     0.293 C 
HETATM    2  N   UNL     1     -34.491  41.613 -54.061  1.00  0.00    -0.262 N 
HETATM    3  O   UNL     1     -36.113  42.838 -53.145  1.00  0.00    -0.264 OA
HETATM    4  H   UNL     1     -33.944  42.089 -53.344  1.00  0.00     0.190 HD
ENDROOT
BRANCH   1   5
HETATM    5  C   UNL     1     -36.740  41.639 -55.077  1.00  0.00     0.145 A 
HETATM    6  O   UNL     1     -36.323  41.725 -56.386  1.00  0.00    -0.307 OA
HETATM    7  C   UNL     1     -37.353  41.349 -57.190  1.00  0.00     0.078 A 
HETATM    8  C   UNL     1     -38.436  40.989 -56.420  1.00  0.00     0.038 A 
HETATM    9  C   UNL     1     -38.044  41.176 -55.070  1.00  0.00     0.045 A 
BRANCH   7  10
HETATM   10  C   UNL     1     -37.108  41.410 -58.655  1.00  0.00     0.240 C 
BRANCH  10  11
HETATM   11  O   UNL     1     -36.702  40.100 -59.053  1.00  0.00    -0.345 OA
BRANCH  11  12
HETATM   12  C   UNL     1     -37.460  39.477 -60.004  1.00  0.00     0.069 A 
HETATM   13  C   UNL     1     -37.137  39.344 -61.355  1.00  0.00     0.038 A 
HETATM   14  C   UNL     1     -38.004  38.667 -62.221  1.00  0.00     0.022 A 
HETATM   15  C   UNL     1     -39.192  38.123 -61.734  1.00  0.00     0.011 A 
HETATM   16  C   UNL     1     -39.523  38.251 -60.389  1.00  0.00     0.022 A 
HETATM   17 BR   UNL     1     -40.357  37.209 -62.907  1.00  0.00    -0.051 Br
HETATM   18  C   UNL     1     -38.654  38.926 -59.527  1.00  0.00     0.038 A 
ENDBRANCH  11  12
ENDBRANCH  10  11
ENDBRANCH   7  10
ENDBRANCH   1   5
BRANCH   2  19
HETATM   19  N   UNL     1     -33.753  41.327 -55.240  1.00  0.00    -0.274 N 
HETATM   20  H   UNL     1     -34.284  41.441 -56.106  1.00  0.00     0.189 HD
BRANCH  19  21
HETATM   21  C   UNL     1     -32.853  40.289 -55.198  1.00  0.00     0.186 C 
HETATM   22  S   UNL     1     -31.730  39.941 -56.391  1.00  0.00    -0.040 SA
BRANCH  21  23
HETATM   23  N   UNL     1     -32.868  39.476 -54.110  1.00  0.00    -0.364 N 
HETATM   24  H   UNL     1     -33.768  39.024 -53.976  1.00  0.00     0.162 HD
BRANCH  23  25
HETATM   25  C   UNL     1     -31.896  39.303 -53.034  1.00  0.00     0.154 C 
BRANCH  25  26
HETATM   26  C   UNL     1     -32.102  40.247 -51.842  1.00  0.00     0.139 C 
HETATM   27  O   UNL     1     -33.520  40.495 -51.680  1.00  0.00    -0.384 OA
HETATM   28  C   UNL     1     -33.902  40.067 -50.364  1.00  0.00     0.168 C 
HETATM   29  C   UNL     1     -32.642  40.130 -49.535  1.00  0.00     0.029 C 
HETATM   30  C   UNL     1     -31.609  39.655 -50.525  1.00  0.00     0.035 C 
ENDBRANCH  25  26
ENDBRANCH  23  25
ENDBRANCH  21  23
ENDBRANCH  19  21
ENDBRANCH   2  19
TORSDOF 9
ENDMDL
MODEL 7
REMARK VINA RESULT:      -6.9      2.757      3.740
REMARK  9 active torsions:
REMARK  status: ('A' for Active; 'I' for Inactive)
REMARK    1  A    between atoms: C_2  and  O_3 
REMARK    2  A    between atoms: O_3  and  C_4 
REMARK    3  A    between atoms: C_4  and  C_5 
REMARK    4  A    between atoms: C_7  and  C_8 
REMARK       I    between atoms: C_8  and  N_9 
REMARK    5  A    between atoms: N_9  and  N_10 
REMARK    6  A    between atoms: N_10  and  C_11 
REMARK    7  A    between atoms: C_11  and  N_12 
REMARK    8  A    between atoms: N_12  and  C_13 
REMARK    9  A    between atoms: C_13  and  C_14 
ROOT
HETATM    1  C   UNL     1     -44.712  58.108 -55.913  1.00  0.00     0.293 C 
HETATM    2  N   UNL     1     -44.704  57.273 -57.022  1.00  0.00    -0.262 N 
HETATM    3  O   UNL     1     -45.818  58.477 -55.512  1.00  0.00    -0.264 OA
HETATM    4  H   UNL     1     -45.654  56.978 -57.253  1.00  0.00     0.190 HD
ENDROOT
BRANCH   1   5
HETATM    5  C   UNL     1     -43.469  58.568 -55.324  1.00  0.00     0.145 A 
HETATM    6  O   UNL     1     -42.684  57.610 -54.725  1.00  0.00    -0.307 OA
HETATM    7  C   UNL     1     -41.611  58.227 -54.159  1.00  0.00     0.078 A 
HETATM    8  C   UNL     1     -41.670  59.580 -54.405  1.00  0.00     0.038 A 
HETATM    9  C   UNL     1     -42.858  59.798 -55.149  1.00  0.00     0.045 A 
BRANCH   7  10
HETATM   10  C   UNL     1     -40.656  57.357 -53.425  1.00  0.00     0.240 C 
BRANCH  10  11
HETATM   11  O   UNL     1     -41.417  56.264 -52.909  1.00  0.00    -0.345 OA
BRANCH  11  12
HETATM   12  C   UNL     1     -41.013  55.006 -53.257  1.00  0.00     0.069 A 
HETATM   13  C   UNL     1     -40.680  54.576 -54.542  1.00  0.00     0.038 A 
HETATM   14  C   UNL     1     -40.267  53.255 -54.757  1.00  0.00     0.022 A 
HETATM   15  C   UNL     1     -40.188  52.367 -53.685  1.00  0.00     0.011 A 
HETATM   16  C   UNL     1     -40.518  52.787 -52.400  1.00  0.00     0.022 A 
HETATM   17 BR   UNL     1     -39.628  50.587 -53.979  1.00  0.00    -0.051 Br
HETATM   18  C   UNL     1     -40.927  54.106 -52.190  1.00  0.00     0.038 A 
ENDBRANCH  11  12
ENDBRANCH  10  11
ENDBRANCH   7  10
ENDBRANCH   1   5
BRANCH   2  19
HETATM   19  N   UNL     1     -43.730  56.263 -57.238  1.00  0.00    -0.274 N 
HETATM   20  H   UNL     1     -43.019  56.202 -56.506  1.00  0.00     0.189 HD
BRANCH  19  21
HETATM   21  C   UNL     1     -43.310  56.041 -58.528  1.00  0.00     0.186 C 
HETATM   22  S   UNL     1     -44.104  55.078 -59.645  1.00  0.00    -0.040 SA
BRANCH  21  23
HETATM   23  N   UNL     1     -42.164  56.644 -58.937  1.00  0.00    -0.364 N 
HETATM   24  H   UNL     1     -41.482  56.730 -58.189  1.00  0.00     0.162 HD
BRANCH  23  25
HETATM   25  C   UNL     1     -41.841  57.333 -60.184  1.00  0.00     0.154 C 
BRANCH  25  26
HETATM   26  C   UNL     1     -42.208  58.823 -60.192  1.00  0.00     0.139 C 
HETATM   27  O   UNL     1     -43.575  58.967 -60.650  1.00  0.00    -0.384 OA
HETATM   28  C   UNL     1     -44.327  59.621 -59.617  1.00  0.00     0.168 C 
HETATM   29  C   UNL     1     -43.316  60.404 -58.814  1.00  0.00     0.029 C 
HETATM   30  C   UNL     1     -42.143  59.457 -58.806  1.00  0.00     0.035 C 
ENDBRANCH  25  26
ENDBRANCH  23  25
ENDBRANCH  21  23
ENDBRANCH  19  21
ENDBRANCH   2  19
TORSDOF 9
ENDMDL
MODEL 8
REMARK VINA RESULT:      -6.8      2.662      5.692
REMARK  9 active torsions:
REMARK  status: ('A' for Active; 'I' for Inactive)
REMARK    1  A    between atoms: C_2  and  O_3 
REMARK    2  A    between atoms: O_3  and  C_4 
REMARK    3  A    between atoms: C_4  and  C_5 
REMARK    4  A    between atoms: C_7  and  C_8 
REMARK       I    between atoms: C_8  and  N_9 
REMARK    5  A    between atoms: N_9  and  N_10 
REMARK    6  A    between atoms: N_10  and  C_11 
REMARK    7  A    between atoms: C_11  and  N_12 
REMARK    8  A    between atoms: N_12  and  C_13 
REMARK    9  A    between atoms: C_13  and  C_14 
ROOT
HETATM    1  C   UNL     1     -42.286  59.552 -55.694  1.00  0.00     0.293 C 
HETATM    2  N   UNL     1     -43.075  60.187 -54.744  1.00  0.00    -0.262 N 
HETATM    3  O   UNL     1     -41.509  60.269 -56.329  1.00  0.00    -0.264 OA
HETATM    4  H   UNL     1     -42.777  61.156 -54.624  1.00  0.00     0.190 HD
ENDROOT
BRANCH   1   5
HETATM    5  C   UNL     1     -42.443  58.135 -55.960  1.00  0.00     0.145 A 
HETATM    6  O   UNL     1     -42.239  57.286 -54.896  1.00  0.00    -0.307 OA
HETATM    7  C   UNL     1     -42.344  56.006 -55.343  1.00  0.00     0.078 A 
HETATM    8  C   UNL     1     -42.643  56.005 -56.686  1.00  0.00     0.038 A 
HETATM    9  C   UNL     1     -42.705  57.366 -57.081  1.00  0.00     0.045 A 
BRANCH   7  10
HETATM   10  C   UNL     1     -42.117  54.933 -54.340  1.00  0.00     0.240 C 
BRANCH  10  11
HETATM   11  O   UNL     1     -41.013  54.162 -54.813  1.00  0.00    -0.345 OA
BRANCH  11  12
HETATM   12  C   UNL     1     -40.613  53.108 -54.039  1.00  0.00     0.069 A 
HETATM   13  C   UNL     1     -40.273  51.835 -54.498  1.00  0.00     0.038 A 
HETATM   14  C   UNL     1     -39.866  50.847 -53.592  1.00  0.00     0.022 A 
HETATM   15  C   UNL     1     -39.800  51.137 -52.230  1.00  0.00     0.011 A 
HETATM   16  C   UNL     1     -40.137  52.403 -51.763  1.00  0.00     0.022 A 
HETATM   17 BR   UNL     1     -39.248  49.801 -51.012  1.00  0.00    -0.051 Br
HETATM   18  C   UNL     1     -40.540  53.386 -52.671  1.00  0.00     0.038 A 
ENDBRANCH  11  12
ENDBRANCH  10  11
ENDBRANCH   7  10
ENDBRANCH   1   5
BRANCH   2  19
HETATM   19  N   UNL     1     -43.498  59.570 -53.537  1.00  0.00    -0.274 N 
HETATM   20  H   UNL     1     -44.510  59.575 -53.395  1.00  0.00     0.189 HD
BRANCH  19  21
HETATM   21  C   UNL     1     -42.717  59.742 -52.420  1.00  0.00     0.186 C 
HETATM   22  S   UNL     1     -42.935  60.939 -51.268  1.00  0.00    -0.040 SA
BRANCH  21  23
HETATM   23  N   UNL     1     -41.685  58.880 -52.225  1.00  0.00    -0.364 N 
HETATM   24  H   UNL     1     -41.217  58.634 -53.092  1.00  0.00     0.162 HD
BRANCH  23  25
HETATM   25  C   UNL     1     -41.278  58.131 -51.040  1.00  0.00     0.154 C 
BRANCH  25  26
HETATM   26  C   UNL     1     -41.451  56.612 -51.166  1.00  0.00     0.139 C 
HETATM   27  O   UNL     1     -40.581  55.959 -50.209  1.00  0.00    -0.384 OA
HETATM   28  C   UNL     1     -41.394  55.161 -49.336  1.00  0.00     0.168 C 
HETATM   29  C   UNL     1     -42.646  54.850 -50.119  1.00  0.00     0.029 C 
HETATM   30  C   UNL     1     -42.870  56.149 -50.852  1.00  0.00     0.035 C 
ENDBRANCH  25  26
ENDBRANCH  23  25
ENDBRANCH  21  23
ENDBRANCH  19  21
ENDBRANCH   2  19
TORSDOF 9
ENDMDL
MODEL 9
REMARK VINA RESULT:      -6.8      2.224      2.500
REMARK  9 active torsions:
REMARK  status: ('A' for Active; 'I' for Inactive)
REMARK    1  A    between atoms: C_2  and  O_3 
REMARK    2  A    between atoms: O_3  and  C_4 
REMARK    3  A    between atoms: C_4  and  C_5 
REMARK    4  A    between atoms: C_7  and  C_8 
REMARK       I    between atoms: C_8  and  N_9 
REMARK    5  A    between atoms: N_9  and  N_10 
REMARK    6  A    between atoms: N_10  and  C_11 
REMARK    7  A    between atoms: C_11  and  N_12 
REMARK    8  A    between atoms: N_12  and  C_13 
REMARK    9  A    between atoms: C_13  and  C_14 
ROOT
HETATM    1  C   UNL     1     -42.170  60.259 -53.584  1.00  0.00     0.293 C 
HETATM    2  N   UNL     1     -42.119  60.147 -54.967  1.00  0.00    -0.262 N 
HETATM    3  O   UNL     1     -42.662  61.297 -53.136  1.00  0.00    -0.264 OA
HETATM    4  H   UNL     1     -42.639  60.907 -55.405  1.00  0.00     0.190 HD
ENDROOT
BRANCH   1   5
HETATM    5  C   UNL     1     -41.598  59.231 -52.736  1.00  0.00     0.145 A 
HETATM    6  O   UNL     1     -42.116  57.964 -52.876  1.00  0.00    -0.307 OA
HETATM    7  C   UNL     1     -41.528  57.155 -51.954  1.00  0.00     0.078 A 
HETATM    8  C   UNL     1     -40.606  57.874 -51.226  1.00  0.00     0.038 A 
HETATM    9  C   UNL     1     -40.652  59.200 -51.726  1.00  0.00     0.045 A 
BRANCH   7  10
HETATM   10  C   UNL     1     -41.986  55.742 -51.922  1.00  0.00     0.240 C 
BRANCH  10  11
HETATM   11  O   UNL     1     -40.933  54.988 -51.320  1.00  0.00    -0.345 OA
BRANCH  11  12
HETATM   12  C   UNL     1     -40.574  53.821 -51.935  1.00  0.00     0.069 A 
HETATM   13  C   UNL     1     -39.761  52.824 -51.394  1.00  0.00     0.038 A 
HETATM   14  C   UNL     1     -39.483  51.667 -52.133  1.00  0.00     0.022 A 
HETATM   15  C   UNL     1     -40.019  51.510 -53.410  1.00  0.00     0.011 A 
HETATM   16  C   UNL     1     -40.830  52.499 -53.958  1.00  0.00     0.022 A 
HETATM   17 BR   UNL     1     -39.642  49.946 -54.401  1.00  0.00    -0.051 Br
HETATM   18  C   UNL     1     -41.107  53.651 -53.217  1.00  0.00     0.038 A 
ENDBRANCH  11  12
ENDBRANCH  10  11
ENDBRANCH   7  10
ENDBRANCH   1   5
BRANCH   2  19
HETATM   19  N   UNL     1     -42.231  58.912 -55.658  1.00  0.00    -0.274 N 
HETATM   20  H   UNL     1     -41.556  58.203 -55.364  1.00  0.00     0.189 HD
BRANCH  19  21
HETATM   21  C   UNL     1     -42.543  58.951 -56.996  1.00  0.00     0.186 C 
HETATM   22  S   UNL     1     -41.861  59.997 -58.113  1.00  0.00    -0.040 SA
BRANCH  21  23
HETATM   23  N   UNL     1     -43.476  58.079 -57.459  1.00  0.00    -0.364 N 
HETATM   24  H   UNL     1     -44.382  58.209 -57.018  1.00  0.00     0.162 HD
BRANCH  23  25
HETATM   25  C   UNL     1     -43.342  56.903 -58.315  1.00  0.00     0.154 C 
BRANCH  25  26
HETATM   26  C   UNL     1     -44.143  56.982 -59.621  1.00  0.00     0.139 C 
HETATM   27  O   UNL     1     -43.675  55.949 -60.523  1.00  0.00    -0.384 OA
HETATM   28  C   UNL     1     -44.785  55.098 -60.844  1.00  0.00     0.168 C 
HETATM   29  C   UNL     1     -46.017  55.946 -60.641  1.00  0.00     0.029 C 
HETATM   30  C   UNL     1     -45.635  56.739 -59.417  1.00  0.00     0.035 C 
ENDBRANCH  25  26
ENDBRANCH  23  25
ENDBRANCH  21  23
ENDBRANCH  19  21
ENDBRANCH   2  19
TORSDOF 9
ENDMDL
MODEL 10
REMARK VINA RESULT:      -6.8      3.318      3.976
REMARK  9 active torsions:
REMARK  status: ('A' for Active; 'I' for Inactive)
REMARK    1  A    between atoms: C_2  and  O_3 
REMARK    2  A    between atoms: O_3  and  C_4 
REMARK    3  A    between atoms: C_4  and  C_5 
REMARK    4  A    between atoms: C_7  and  C_8 
REMARK       I    between atoms: C_8  and  N_9 
REMARK    5  A    between atoms: N_9  and  N_10 
REMARK    6  A    between atoms: N_10  and  C_11 
REMARK    7  A    between atoms: C_11  and  N_12 
REMARK    8  A    between atoms: N_12  and  C_13 
REMARK    9  A    between atoms: C_13  and  C_14 
ROOT
HETATM    1  C   UNL     1     -45.362  58.909 -50.733  1.00  0.00     0.293 C 
HETATM    2  N   UNL     1     -44.719  59.885 -49.984  1.00  0.00    -0.262 N 
HETATM    3  O   UNL     1     -46.567  58.760 -50.521  1.00  0.00    -0.264 OA
HETATM    4  H   UNL     1     -45.399  60.435 -49.458  1.00  0.00     0.190 HD
ENDROOT
BRANCH   1   5
HETATM    5  C   UNL     1     -44.615  58.071 -51.653  1.00  0.00     0.145 A 
HETATM    6  O   UNL     1     -43.420  57.569 -51.191  1.00  0.00    -0.307 OA
HETATM    7  C   UNL     1     -42.823  56.884 -52.203  1.00  0.00     0.078 A 
HETATM    8  C   UNL     1     -43.629  56.907 -53.319  1.00  0.00     0.038 A 
HETATM    9  C   UNL     1     -44.774  57.667 -52.967  1.00  0.00     0.045 A 
BRANCH   7  10
HETATM   10  C   UNL     1     -41.492  56.292 -51.909  1.00  0.00     0.240 C 
BRANCH  10  11
HETATM   11  O   UNL     1     -40.960  55.848 -53.157  1.00  0.00    -0.345 OA
BRANCH  11  12
HETATM   12  C   UNL     1     -40.651  54.522 -53.265  1.00  0.00     0.069 A 
HETATM   13  C   UNL     1     -40.441  53.638 -52.205  1.00  0.00     0.038 A 
HETATM   14  C   UNL     1     -40.141  52.294 -52.460  1.00  0.00     0.022 A 
HETATM   15  C   UNL     1     -40.053  51.837 -53.773  1.00  0.00     0.011 A 
HETATM   16  C   UNL     1     -40.261  52.710 -54.837  1.00  0.00     0.022 A 
HETATM   17 BR   UNL     1     -39.651  50.022 -54.111  1.00  0.00    -0.051 Br
HETATM   18  C   UNL     1     -40.561  54.050 -54.578  1.00  0.00     0.038 A 
ENDBRANCH  11  12
ENDBRANCH  10  11
ENDBRANCH   7  10
ENDBRANCH   1   5
BRANCH   2  19
HETATM   19  N   UNL     1     -43.623  60.649 -50.464  1.00  0.00    -0.274 N 
HETATM   20  H   UNL     1     -42.995  60.988 -49.733  1.00  0.00     0.189 HD
BRANCH  19  21
HETATM   21  C   UNL     1     -43.844  61.490 -51.529  1.00  0.00     0.186 C 
HETATM   22  S   UNL     1     -45.195  62.462 -51.722  1.00  0.00    -0.040 SA
BRANCH  21  23
HETATM   23  N   UNL     1     -42.901  61.544 -52.505  1.00  0.00    -0.364 N 
HETATM   24  H   UNL     1     -42.720  62.493 -52.817  1.00  0.00     0.162 HD
BRANCH  23  25
HETATM   25  C   UNL     1     -42.269  60.481 -53.281  1.00  0.00     0.154 C 
BRANCH  25  26
HETATM   26  C   UNL     1     -42.449  60.619 -54.799  1.00  0.00     0.139 C 
HETATM   27  O   UNL     1     -41.601  59.649 -55.462  1.00  0.00    -0.384 OA
HETATM   28  C   UNL     1     -42.435  58.796 -56.260  1.00  0.00     0.168 C 
HETATM   29  C   UNL     1     -43.673  59.605 -56.559  1.00  0.00     0.029 C 
HETATM   30  C   UNL     1     -43.876  60.334 -55.255  1.00  0.00     0.035 C 
ENDBRANCH  25  26
ENDBRANCH  23  25
ENDBRANCH  21  23
ENDBRANCH  19  21
ENDBRANCH   2  19
TORSDOF 9
ENDMDL
