MODEL 1
REMARK VINA RESULT:      -8.1      0.000      0.000
REMARK  10 active torsions:
REMARK  status: ('A' for Active; 'I' for Inactive)
REMARK    1  A    between atoms: C_2  and  N_3 
REMARK    2  A    between atoms: N_3  and  C_4 
REMARK    3  A    between atoms: N_3  and  C_37 
REMARK    4  A    between atoms: C_7  and  C_8 
REMARK    5  A    between atoms: N_9  and  C_11 
REMARK    6  A    between atoms: C_11  and  C_12 
REMARK       I    between atoms: C_12  and  N_13 
REMARK    7  A    between atoms: N_13  and  C_14 
REMARK    8  A    between atoms: C_20  and  C_21 
REMARK    9  A    between atoms: C_21  and  O_22 
REMARK   10  A    between atoms: C_28  and  O_29 
ROOT
HETATM    1  C   UNL     1     -41.612  57.220 -53.934  1.00  0.00     0.228 C 
HETATM    2  N   UNL     1     -42.058  57.941 -52.641  1.00  0.00    -0.054 N 
HETATM    3  H   UNL     1     -41.448  57.536 -51.914  1.00  0.00     0.281 HD
HETATM    4  C   UNL     1     -43.504  57.700 -52.270  1.00  0.00     0.239 C 
HETATM    5  C   UNL     1     -44.440  58.098 -53.399  1.00  0.00     0.066 C 
HETATM    6  C   UNL     1     -44.084  57.382 -54.709  1.00  0.00     0.065 C 
HETATM    7  C   UNL     1     -42.605  57.648 -55.070  1.00  0.00     0.055 C 
HETATM    8  C   UNL     1     -45.040  57.858 -55.821  1.00  0.00     0.038 C 
HETATM    9  C   UNL     1     -44.652  57.357 -57.211  1.00  0.00     0.003 C 
HETATM   10  C   UNL     1     -43.200  57.681 -57.535  1.00  0.00     0.001 C 
HETATM   11  C   UNL     1     -42.263  57.112 -56.473  1.00  0.00     0.010 C 
ENDROOT
BRANCH   2  12
HETATM   12  C   UNL     1     -41.722  59.440 -52.590  1.00  0.00     0.338 C 
BRANCH  12  13
HETATM   13  C   UNL     1     -42.135  60.140 -51.297  1.00  0.00     0.248 C 
HETATM   14  N   UNL     1     -43.137  61.064 -51.515  1.00  0.00    -0.319 N 
HETATM   15  H   UNL     1     -43.449  61.246 -52.472  1.00  0.00     0.169 HD
HETATM   16  O   UNL     1     -41.566  59.843 -50.251  1.00  0.00    -0.271 OA
BRANCH  14  17
HETATM   17  C   UNL     1     -43.800  61.851 -50.583  1.00  0.00     0.094 A 
HETATM   18  S   UNL     1     -43.130  63.285 -50.001  1.00  0.00    -0.076 SA
HETATM   19  C   UNL     1     -44.448  63.566 -48.953  1.00  0.00    -0.012 A 
HETATM   20  C   UNL     1     -44.430  64.779 -48.078  1.00  0.00     0.057 C 
HETATM   21  C   UNL     1     -45.428  62.588 -49.068  1.00  0.00    -0.030 A 
HETATM   22  C   UNL     1     -46.719  62.601 -48.302  1.00  0.00     0.050 C 
HETATM   23  C   UNL     1     -45.034  61.556 -50.014  1.00  0.00     0.080 A 
BRANCH  23  24
HETATM   24  C   UNL     1     -45.764  60.335 -50.395  1.00  0.00     0.296 C 
HETATM   25  O   UNL     1     -45.945  59.419 -49.594  1.00  0.00    -0.259 OA
BRANCH  24  26
HETATM   26  O   UNL     1     -46.211  60.334 -51.677  1.00  0.00    -0.322 OA
HETATM   27  C   UNL     1     -47.076  61.411 -52.048  1.00  0.00     0.213 C 
ENDBRANCH  24  26
ENDBRANCH  23  24
ENDBRANCH  14  17
ENDBRANCH  12  13
ENDBRANCH   2  12
BRANCH   1  28
HETATM   28  C   UNL     1     -41.343  55.718 -53.781  1.00  0.00    -0.027 C 
HETATM   29  C   UNL     1     -40.889  54.876 -54.799  1.00  0.00     0.011 C 
HETATM   30  C   UNL     1     -40.455  53.564 -54.534  1.00  0.00     0.030 C 
HETATM   31  C   UNL     1     -40.459  53.014 -53.248  1.00  0.00     0.030 C 
HETATM   32  C   UNL     1     -41.104  53.795 -52.281  1.00  0.00     0.030 C 
HETATM   33  C   UNL     1     -41.551  55.101 -52.542  1.00  0.00     0.011 C 
BRANCH  31  34
HETATM   34  N   UNL     1     -39.888  51.779 -52.945  1.00  0.00    -0.382 N 
BRANCH  34  35
HETATM   35  C   UNL     1     -39.250  51.581 -51.628  1.00  0.00     0.118 C 
HETATM   36  C   UNL     1     -39.836  50.377 -50.900  1.00  0.00     0.026 C 
ENDBRANCH  34  35
BRANCH  34  37
HETATM   37  C   UNL     1     -39.396  50.882 -54.006  1.00  0.00     0.118 C 
HETATM   38  C   UNL     1     -40.510  49.975 -54.503  1.00  0.00     0.026 C 
ENDBRANCH  34  37
ENDBRANCH  31  34
ENDBRANCH   1  28
BRANCH   6  39
HETATM   39  O   UNL     1     -44.299  55.994 -54.472  1.00  0.00    -0.389 OA
HETATM   40  H   UNL     1     -45.193  55.733 -54.759  1.00  0.00     0.210 HD
ENDBRANCH   6  39
TORSDOF 10
ENDMDL
MODEL 2
REMARK VINA RESULT:      -8.0      3.197      7.373
REMARK  10 active torsions:
REMARK  status: ('A' for Active; 'I' for Inactive)
REMARK    1  A    between atoms: C_2  and  N_3 
REMARK    2  A    between atoms: N_3  and  C_4 
REMARK    3  A    between atoms: N_3  and  C_37 
REMARK    4  A    between atoms: C_7  and  C_8 
REMARK    5  A    between atoms: N_9  and  C_11 
REMARK    6  A    between atoms: C_11  and  C_12 
REMARK       I    between atoms: C_12  and  N_13 
REMARK    7  A    between atoms: N_13  and  C_14 
REMARK    8  A    between atoms: C_20  and  C_21 
REMARK    9  A    between atoms: C_21  and  O_22 
REMARK   10  A    between atoms: C_28  and  O_29 
ROOT
HETATM    1  C   UNL     1     -43.648  58.022 -54.005  1.00  0.00     0.228 C 
HETATM    2  N   UNL     1     -42.875  58.923 -54.997  1.00  0.00    -0.054 N 
HETATM    3  H   UNL     1     -42.442  58.250 -55.649  1.00  0.00     0.281 HD
HETATM    4  C   UNL     1     -41.793  59.760 -54.352  1.00  0.00     0.239 C 
HETATM    5  C   UNL     1     -42.353  60.628 -53.238  1.00  0.00     0.066 C 
HETATM    6  C   UNL     1     -43.098  59.792 -52.188  1.00  0.00     0.065 C 
HETATM    7  C   UNL     1     -44.201  58.951 -52.869  1.00  0.00     0.055 C 
HETATM    8  C   UNL     1     -43.676  60.732 -51.111  1.00  0.00     0.038 C 
HETATM    9  C   UNL     1     -44.602  60.025 -50.123  1.00  0.00     0.003 C 
HETATM   10  C   UNL     1     -45.696  59.247 -50.842  1.00  0.00     0.001 C 
HETATM   11  C   UNL     1     -45.097  58.250 -51.831  1.00  0.00     0.010 C 
ENDROOT
BRANCH   2  12
HETATM   12  C   UNL     1     -43.761  59.783 -55.912  1.00  0.00     0.338 C 
BRANCH  12  13
HETATM   13  C   UNL     1     -43.914  59.248 -57.334  1.00  0.00     0.248 C 
HETATM   14  N   UNL     1     -44.868  58.254 -57.406  1.00  0.00    -0.319 N 
HETATM   15  H   UNL     1     -45.312  57.925 -56.544  1.00  0.00     0.169 HD
HETATM   16  O   UNL     1     -43.211  59.716 -58.225  1.00  0.00    -0.271 OA
BRANCH  14  17
HETATM   17  C   UNL     1     -45.317  57.570 -58.527  1.00  0.00     0.094 A 
HETATM   18  S   UNL     1     -46.787  57.947 -59.263  1.00  0.00    -0.076 SA
HETATM   19  C   UNL     1     -46.611  56.708 -60.424  1.00  0.00    -0.012 A 
HETATM   20  C   UNL     1     -47.696  56.506 -61.434  1.00  0.00     0.057 C 
HETATM   21  C   UNL     1     -45.412  56.023 -60.285  1.00  0.00    -0.030 A 
HETATM   22  C   UNL     1     -44.969  54.914 -61.193  1.00  0.00     0.050 C 
HETATM   23  C   UNL     1     -44.654  56.514 -59.143  1.00  0.00     0.080 A 
BRANCH  23  24
HETATM   24  C   UNL     1     -43.358  56.040 -58.631  1.00  0.00     0.296 C 
HETATM   25  O   UNL     1     -43.203  55.754 -57.444  1.00  0.00    -0.259 OA
BRANCH  24  26
HETATM   26  O   UNL     1     -42.390  55.943 -59.577  1.00  0.00    -0.322 OA
HETATM   27  C   UNL     1     -41.895  57.175 -60.108  1.00  0.00     0.213 C 
ENDBRANCH  24  26
ENDBRANCH  23  24
ENDBRANCH  14  17
ENDBRANCH  12  13
ENDBRANCH   2  12
BRANCH   1  28
HETATM   28  C   UNL     1     -42.904  56.756 -53.562  1.00  0.00    -0.027 C 
HETATM   29  C   UNL     1     -43.451  55.738 -52.776  1.00  0.00     0.011 C 
HETATM   30  C   UNL     1     -42.789  54.510 -52.594  1.00  0.00     0.030 C 
HETATM   31  C   UNL     1     -41.546  54.231 -53.171  1.00  0.00     0.030 C 
HETATM   32  C   UNL     1     -40.926  55.327 -53.781  1.00  0.00     0.030 C 
HETATM   33  C   UNL     1     -41.575  56.560 -53.956  1.00  0.00     0.011 C 
BRANCH  31  34
HETATM   34  N   UNL     1     -40.953  52.969 -53.131  1.00  0.00    -0.382 N 
BRANCH  34  35
HETATM   35  C   UNL     1     -39.902  52.696 -52.131  1.00  0.00     0.118 C 
HETATM   36  C   UNL     1     -40.440  52.818 -50.710  1.00  0.00     0.026 C 
ENDBRANCH  34  35
BRANCH  34  37
HETATM   37  C   UNL     1     -40.900  52.109 -54.327  1.00  0.00     0.118 C 
HETATM   38  C   UNL     1     -40.023  50.893 -54.077  1.00  0.00     0.026 C 
ENDBRANCH  34  37
ENDBRANCH  31  34
ENDBRANCH   1  28
BRANCH   6  39
HETATM   39  O   UNL     1     -42.121  58.945 -51.591  1.00  0.00    -0.389 OA
HETATM   40  H   UNL     1     -41.226  59.308 -51.726  1.00  0.00     0.210 HD
ENDBRANCH   6  39
TORSDOF 10
ENDMDL
MODEL 3
REMARK VINA RESULT:      -7.9      1.474      2.035
REMARK  10 active torsions:
REMARK  status: ('A' for Active; 'I' for Inactive)
REMARK    1  A    between atoms: C_2  and  N_3 
REMARK    2  A    between atoms: N_3  and  C_4 
REMARK    3  A    between atoms: N_3  and  C_37 
REMARK    4  A    between atoms: C_7  and  C_8 
REMARK    5  A    between atoms: N_9  and  C_11 
REMARK    6  A    between atoms: C_11  and  C_12 
REMARK       I    between atoms: C_12  and  N_13 
REMARK    7  A    between atoms: N_13  and  C_14 
REMARK    8  A    between atoms: C_20  and  C_21 
REMARK    9  A    between atoms: C_21  and  O_22 
REMARK   10  A    between atoms: C_28  and  O_29 
ROOT
HETATM    1  C   UNL     1     -41.906  57.510 -53.938  1.00  0.00     0.228 C 
HETATM    2  N   UNL     1     -42.547  58.144 -52.681  1.00  0.00    -0.054 N 
HETATM    3  H   UNL     1     -42.004  57.741 -51.901  1.00  0.00     0.281 HD
HETATM    4  C   UNL     1     -44.010  57.804 -52.498  1.00  0.00     0.239 C 
HETATM    5  C   UNL     1     -44.827  58.199 -53.716  1.00  0.00     0.066 C 
HETATM    6  C   UNL     1     -44.273  57.566 -55.001  1.00  0.00     0.065 C 
HETATM    7  C   UNL     1     -42.782  57.933 -55.169  1.00  0.00     0.055 C 
HETATM    8  C   UNL     1     -45.118  58.038 -56.201  1.00  0.00     0.038 C 
HETATM    9  C   UNL     1     -44.536  57.625 -57.552  1.00  0.00     0.003 C 
HETATM   10  C   UNL     1     -43.079  58.047 -57.684  1.00  0.00     0.001 C 
HETATM   11  C   UNL     1     -42.241  57.483 -56.539  1.00  0.00     0.010 C 
ENDROOT
BRANCH   2  12
HETATM   12  C   UNL     1     -42.314  59.656 -52.531  1.00  0.00     0.338 C 
BRANCH  12  13
HETATM   13  C   UNL     1     -42.518  60.193 -51.116  1.00  0.00     0.248 C 
HETATM   14  N   UNL     1     -43.675  60.939 -51.015  1.00  0.00    -0.319 N 
HETATM   15  H   UNL     1     -44.225  61.123 -51.858  1.00  0.00     0.169 HD
HETATM   16  O   UNL     1     -41.682  59.935 -50.255  1.00  0.00    -0.271 OA
BRANCH  14  17
HETATM   17  C   UNL     1     -44.216  61.540 -49.887  1.00  0.00     0.094 A 
HETATM   18  S   UNL     1     -45.217  60.692 -48.827  1.00  0.00    -0.076 SA
HETATM   19  C   UNL     1     -45.464  62.063 -47.841  1.00  0.00    -0.012 A 
HETATM   20  C   UNL     1     -46.355  61.943 -46.646  1.00  0.00     0.057 C 
HETATM   21  C   UNL     1     -44.753  63.169 -48.290  1.00  0.00    -0.030 A 
HETATM   22  C   UNL     1     -44.743  64.499 -47.595  1.00  0.00     0.050 C 
HETATM   23  C   UNL     1     -44.033  62.869 -49.519  1.00  0.00     0.080 A 
BRANCH  23  24
HETATM   24  C   UNL     1     -43.197  63.765 -50.333  1.00  0.00     0.296 C 
HETATM   25  O   UNL     1     -42.080  64.120 -49.956  1.00  0.00    -0.259 OA
BRANCH  24  26
HETATM   26  O   UNL     1     -43.764  64.137 -51.509  1.00  0.00    -0.322 OA
HETATM   27  C   UNL     1     -42.871  64.597 -52.527  1.00  0.00     0.213 C 
ENDBRANCH  24  26
ENDBRANCH  23  24
ENDBRANCH  14  17
ENDBRANCH  12  13
ENDBRANCH   2  12
BRANCH   1  28
HETATM   28  C   UNL     1     -41.564  56.021 -53.812  1.00  0.00    -0.027 C 
HETATM   29  C   UNL     1     -40.803  55.292 -54.729  1.00  0.00     0.011 C 
HETATM   30  C   UNL     1     -40.345  53.993 -54.441  1.00  0.00     0.030 C 
HETATM   31  C   UNL     1     -40.628  53.344 -53.235  1.00  0.00     0.030 C 
HETATM   32  C   UNL     1     -41.555  54.003 -52.420  1.00  0.00     0.030 C 
HETATM   33  C   UNL     1     -42.026  55.296 -52.706  1.00  0.00     0.011 C 
BRANCH  31  34
HETATM   34  N   UNL     1     -40.053  52.127 -52.871  1.00  0.00    -0.382 N 
BRANCH  34  35
HETATM   35  C   UNL     1     -39.504  51.964 -51.510  1.00  0.00     0.118 C 
HETATM   36  C   UNL     1     -39.858  50.602 -50.925  1.00  0.00     0.026 C 
ENDBRANCH  34  35
BRANCH  34  37
HETATM   37  C   UNL     1     -39.470  51.223 -53.879  1.00  0.00     0.118 C 
HETATM   38  C   UNL     1     -40.506  50.224 -54.370  1.00  0.00     0.026 C 
ENDBRANCH  34  37
ENDBRANCH  31  34
ENDBRANCH   1  28
BRANCH   6  39
HETATM   39  O   UNL     1     -44.428  56.159 -54.846  1.00  0.00    -0.389 OA
HETATM   40  H   UNL     1     -45.305  55.876 -55.161  1.00  0.00     0.210 HD
ENDBRANCH   6  39
TORSDOF 10
ENDMDL
MODEL 4
REMARK VINA RESULT:      -7.8      5.334      9.310
REMARK  10 active torsions:
REMARK  status: ('A' for Active; 'I' for Inactive)
REMARK    1  A    between atoms: C_2  and  N_3 
REMARK    2  A    between atoms: N_3  and  C_4 
REMARK    3  A    between atoms: N_3  and  C_37 
REMARK    4  A    between atoms: C_7  and  C_8 
REMARK    5  A    between atoms: N_9  and  C_11 
REMARK    6  A    between atoms: C_11  and  C_12 
REMARK       I    between atoms: C_12  and  N_13 
REMARK    7  A    between atoms: N_13  and  C_14 
REMARK    8  A    between atoms: C_20  and  C_21 
REMARK    9  A    between atoms: C_21  and  O_22 
REMARK   10  A    between atoms: C_28  and  O_29 
ROOT
HETATM    1  C   UNL     1     -43.310  57.731 -57.964  1.00  0.00     0.228 C 
HETATM    2  N   UNL     1     -42.673  56.331 -58.128  1.00  0.00    -0.054 N 
HETATM    3  H   UNL     1     -41.675  56.491 -57.918  1.00  0.00     0.281 HD
HETATM    4  C   UNL     1     -42.802  55.757 -59.522  1.00  0.00     0.239 C 
HETATM    5  C   UNL     1     -44.255  55.688 -59.961  1.00  0.00     0.066 C 
HETATM    6  C   UNL     1     -44.941  57.057 -59.866  1.00  0.00     0.065 C 
HETATM    7  C   UNL     1     -44.802  57.620 -58.434  1.00  0.00     0.055 C 
HETATM    8  C   UNL     1     -46.419  56.912 -60.283  1.00  0.00     0.038 C 
HETATM    9  C   UNL     1     -47.245  58.174 -60.040  1.00  0.00     0.003 C 
HETATM   10  C   UNL     1     -47.107  58.662 -58.605  1.00  0.00     0.001 C 
HETATM   11  C   UNL     1     -45.641  58.897 -58.246  1.00  0.00     0.010 C 
ENDROOT
BRANCH   2  12
HETATM   12  C   UNL     1     -43.097  55.301 -57.070  1.00  0.00     0.338 C 
BRANCH  12  13
HETATM   13  C   UNL     1     -42.356  55.414 -55.740  1.00  0.00     0.248 C 
HETATM   14  N   UNL     1     -42.789  54.469 -54.832  1.00  0.00    -0.319 N 
HETATM   15  H   UNL     1     -43.573  53.860 -55.081  1.00  0.00     0.169 HD
HETATM   16  O   UNL     1     -41.503  56.286 -55.606  1.00  0.00    -0.271 OA
BRANCH  14  17
HETATM   17  C   UNL     1     -42.320  54.230 -53.547  1.00  0.00     0.094 A 
HETATM   18  S   UNL     1     -42.978  55.013 -52.206  1.00  0.00    -0.076 SA
HETATM   19  C   UNL     1     -41.886  54.257 -51.133  1.00  0.00    -0.012 A 
HETATM   20  C   UNL     1     -41.959  54.588 -49.676  1.00  0.00     0.057 C 
HETATM   21  C   UNL     1     -41.037  53.372 -51.784  1.00  0.00    -0.030 A 
HETATM   22  C   UNL     1     -40.006  52.533 -51.088  1.00  0.00     0.050 C 
HETATM   23  C   UNL     1     -41.275  53.374 -53.220  1.00  0.00     0.080 A 
BRANCH  23  24
HETATM   24  C   UNL     1     -40.573  52.612 -54.266  1.00  0.00     0.296 C 
HETATM   25  O   UNL     1     -39.788  53.158 -55.040  1.00  0.00    -0.259 OA
BRANCH  24  26
HETATM   26  O   UNL     1     -40.865  51.286 -54.277  1.00  0.00    -0.322 OA
HETATM   27  C   UNL     1     -39.753  50.391 -54.190  1.00  0.00     0.213 C 
ENDBRANCH  24  26
ENDBRANCH  23  24
ENDBRANCH  14  17
ENDBRANCH  12  13
ENDBRANCH   2  12
BRANCH   1  28
HETATM   28  C   UNL     1     -42.487  58.890 -58.539  1.00  0.00    -0.027 C 
HETATM   29  C   UNL     1     -42.290  59.136 -59.901  1.00  0.00     0.011 C 
HETATM   30  C   UNL     1     -41.713  60.335 -60.358  1.00  0.00     0.030 C 
HETATM   31  C   UNL     1     -41.292  61.348 -59.491  1.00  0.00     0.030 C 
HETATM   32  C   UNL     1     -41.310  61.001 -58.135  1.00  0.00     0.030 C 
HETATM   33  C   UNL     1     -41.873  59.800 -57.671  1.00  0.00     0.011 C 
BRANCH  31  34
HETATM   34  N   UNL     1     -40.867  62.601 -59.932  1.00  0.00    -0.382 N 
BRANCH  34  35
HETATM   35  C   UNL     1     -41.107  62.993 -61.335  1.00  0.00     0.118 C 
HETATM   36  C   UNL     1     -39.807  63.043 -62.129  1.00  0.00     0.026 C 
ENDBRANCH  34  35
BRANCH  34  37
HETATM   37  C   UNL     1     -39.744  63.301 -59.282  1.00  0.00     0.118 C 
HETATM   38  C   UNL     1     -40.244  64.498 -58.488  1.00  0.00     0.026 C 
ENDBRANCH  34  37
ENDBRANCH  31  34
ENDBRANCH   1  28
BRANCH   6  39
HETATM   39  O   UNL     1     -44.274  57.899 -60.801  1.00  0.00    -0.389 OA
HETATM   40  H   UNL     1     -44.596  58.816 -60.726  1.00  0.00     0.210 HD
ENDBRANCH   6  39
TORSDOF 10
ENDMDL
MODEL 5
REMARK VINA RESULT:      -7.7      3.140      8.765
REMARK  10 active torsions:
REMARK  status: ('A' for Active; 'I' for Inactive)
REMARK    1  A    between atoms: C_2  and  N_3 
REMARK    2  A    between atoms: N_3  and  C_4 
REMARK    3  A    between atoms: N_3  and  C_37 
REMARK    4  A    between atoms: C_7  and  C_8 
REMARK    5  A    between atoms: N_9  and  C_11 
REMARK    6  A    between atoms: C_11  and  C_12 
REMARK       I    between atoms: C_12  and  N_13 
REMARK    7  A    between atoms: N_13  and  C_14 
REMARK    8  A    between atoms: C_20  and  C_21 
REMARK    9  A    between atoms: C_21  and  O_22 
REMARK   10  A    between atoms: C_28  and  O_29 
ROOT
HETATM    1  C   UNL     1     -42.344  58.881 -52.302  1.00  0.00     0.228 C 
HETATM    2  N   UNL     1     -42.547  57.360 -52.109  1.00  0.00    -0.054 N 
HETATM    3  H   UNL     1     -42.031  56.944 -52.899  1.00  0.00     0.281 HD
HETATM    4  C   UNL     1     -43.993  56.920 -52.170  1.00  0.00     0.239 C 
HETATM    5  C   UNL     1     -44.841  57.660 -51.149  1.00  0.00     0.066 C 
HETATM    6  C   UNL     1     -44.724  59.182 -51.312  1.00  0.00     0.065 C 
HETATM    7  C   UNL     1     -43.240  59.608 -51.240  1.00  0.00     0.055 C 
HETATM    8  C   UNL     1     -45.572  59.872 -50.224  1.00  0.00     0.038 C 
HETATM    9  C   UNL     1     -45.373  61.386 -50.171  1.00  0.00     0.003 C 
HETATM   10  C   UNL     1     -43.900  61.752 -50.057  1.00  0.00     0.001 C 
HETATM   11  C   UNL     1     -43.095  61.140 -51.202  1.00  0.00     0.010 C 
ENDROOT
BRANCH   2  12
HETATM   12  C   UNL     1     -41.845  56.768 -50.876  1.00  0.00     0.338 C 
BRANCH  12  13
HETATM   13  C   UNL     1     -41.778  55.242 -50.856  1.00  0.00     0.248 C 
HETATM   14  N   UNL     1     -40.881  54.758 -51.786  1.00  0.00    -0.319 N 
HETATM   15  H   UNL     1     -40.420  55.413 -52.423  1.00  0.00     0.169 HD
HETATM   16  O   UNL     1     -42.491  54.626 -50.070  1.00  0.00    -0.271 OA
BRANCH  14  17
HETATM   17  C   UNL     1     -40.514  53.440 -52.024  1.00  0.00     0.094 A 
HETATM   18  S   UNL     1     -40.078  52.403 -50.768  1.00  0.00    -0.076 SA
HETATM   19  C   UNL     1     -39.749  51.117 -51.841  1.00  0.00    -0.012 A 
HETATM   20  C   UNL     1     -39.262  49.818 -51.283  1.00  0.00     0.057 C 
HETATM   21  C   UNL     1     -40.007  51.456 -53.163  1.00  0.00    -0.030 A 
HETATM   22  C   UNL     1     -39.851  50.510 -54.317  1.00  0.00     0.050 C 
HETATM   23  C   UNL     1     -40.435  52.842 -53.277  1.00  0.00     0.080 A 
BRANCH  23  24
HETATM   24  C   UNL     1     -40.769  53.601 -54.493  1.00  0.00     0.296 C 
HETATM   25  O   UNL     1     -39.935  54.308 -55.058  1.00  0.00    -0.259 OA
BRANCH  24  26
HETATM   26  O   UNL     1     -42.048  53.433 -54.918  1.00  0.00    -0.322 OA
HETATM   27  C   UNL     1     -42.896  54.582 -54.846  1.00  0.00     0.213 C 
ENDBRANCH  24  26
ENDBRANCH  23  24
ENDBRANCH  14  17
ENDBRANCH  12  13
ENDBRANCH   2  12
BRANCH   1  28
HETATM   28  C   UNL     1     -42.453  59.372 -53.751  1.00  0.00    -0.027 C 
HETATM   29  C   UNL     1     -42.727  60.688 -54.134  1.00  0.00     0.011 C 
HETATM   30  C   UNL     1     -42.594  61.111 -55.469  1.00  0.00     0.030 C 
HETATM   31  C   UNL     1     -42.196  60.250 -56.496  1.00  0.00     0.030 C 
HETATM   32  C   UNL     1     -42.125  58.900 -56.133  1.00  0.00     0.030 C 
HETATM   33  C   UNL     1     -42.268  58.468 -54.804  1.00  0.00     0.011 C 
BRANCH  31  34
HETATM   34  N   UNL     1     -41.908  60.687 -57.789  1.00  0.00    -0.382 N 
BRANCH  34  35
HETATM   35  C   UNL     1     -41.625  62.117 -58.022  1.00  0.00     0.118 C 
HETATM   36  C   UNL     1     -40.326  62.309 -58.796  1.00  0.00     0.026 C 
ENDBRANCH  34  35
BRANCH  34  37
HETATM   37  C   UNL     1     -42.401  59.958 -58.972  1.00  0.00     0.118 C 
HETATM   38  C   UNL     1     -43.912  60.080 -59.087  1.00  0.00     0.026 C 
ENDBRANCH  34  37
ENDBRANCH  31  34
ENDBRANCH   1  28
BRANCH   6  39
HETATM   39  O   UNL     1     -45.270  59.486 -52.591  1.00  0.00    -0.389 OA
HETATM   40  H   UNL     1     -45.668  58.691 -52.990  1.00  0.00     0.210 HD
ENDBRANCH   6  39
TORSDOF 10
ENDMDL
MODEL 6
REMARK VINA RESULT:      -7.6      3.938      7.659
REMARK  10 active torsions:
REMARK  status: ('A' for Active; 'I' for Inactive)
REMARK    1  A    between atoms: C_2  and  N_3 
REMARK    2  A    between atoms: N_3  and  C_4 
REMARK    3  A    between atoms: N_3  and  C_37 
REMARK    4  A    between atoms: C_7  and  C_8 
REMARK    5  A    between atoms: N_9  and  C_11 
REMARK    6  A    between atoms: C_11  and  C_12 
REMARK       I    between atoms: C_12  and  N_13 
REMARK    7  A    between atoms: N_13  and  C_14 
REMARK    8  A    between atoms: C_20  and  C_21 
REMARK    9  A    between atoms: C_21  and  O_22 
REMARK   10  A    between atoms: C_28  and  O_29 
ROOT
HETATM    1  C   UNL     1     -42.250  59.417 -56.503  1.00  0.00     0.228 C 
HETATM    2  N   UNL     1     -42.802  59.634 -55.074  1.00  0.00    -0.054 N 
HETATM    3  H   UNL     1     -43.164  58.704 -54.810  1.00  0.00     0.281 HD
HETATM    4  C   UNL     1     -43.923  60.646 -54.995  1.00  0.00     0.239 C 
HETATM    5  C   UNL     1     -43.498  61.989 -55.564  1.00  0.00     0.066 C 
HETATM    6  C   UNL     1     -42.979  61.857 -57.003  1.00  0.00     0.065 C 
HETATM    7  C   UNL     1     -41.832  60.824 -57.057  1.00  0.00     0.055 C 
HETATM    8  C   UNL     1     -42.526  63.243 -57.505  1.00  0.00     0.038 C 
HETATM    9  C   UNL     1     -41.812  63.194 -58.855  1.00  0.00     0.003 C 
HETATM   10  C   UNL     1     -40.664  62.194 -58.843  1.00  0.00     0.001 C 
HETATM   11  C   UNL     1     -41.155  60.805 -58.440  1.00  0.00     0.010 C 
ENDROOT
BRANCH   2  12
HETATM   12  C   UNL     1     -41.734  59.915 -54.006  1.00  0.00     0.338 C 
BRANCH  12  13
HETATM   13  C   UNL     1     -40.934  58.689 -53.569  1.00  0.00     0.248 C 
HETATM   14  N   UNL     1     -41.687  57.535 -53.645  1.00  0.00    -0.319 N 
HETATM   15  H   UNL     1     -42.676  57.600 -53.898  1.00  0.00     0.169 HD
HETATM   16  O   UNL     1     -39.771  58.836 -53.205  1.00  0.00    -0.271 OA
BRANCH  14  17
HETATM   17  C   UNL     1     -41.292  56.230 -53.381  1.00  0.00     0.094 A 
HETATM   18  S   UNL     1     -40.742  55.209 -54.605  1.00  0.00    -0.076 SA
HETATM   19  C   UNL     1     -40.540  53.900 -53.528  1.00  0.00    -0.012 A 
HETATM   20  C   UNL     1     -40.054  52.591 -54.064  1.00  0.00     0.057 C 
HETATM   21  C   UNL     1     -40.853  54.243 -52.219  1.00  0.00    -0.030 A 
HETATM   22  C   UNL     1     -40.726  53.307 -51.053  1.00  0.00     0.050 C 
HETATM   23  C   UNL     1     -41.325  55.618 -52.133  1.00  0.00     0.080 A 
BRANCH  23  24
HETATM   24  C   UNL     1     -41.788  56.355 -50.947  1.00  0.00     0.296 C 
HETATM   25  O   UNL     1     -41.106  57.242 -50.435  1.00  0.00    -0.259 OA
BRANCH  24  26
HETATM   26  O   UNL     1     -43.012  55.973 -50.500  1.00  0.00    -0.322 OA
HETATM   27  C   UNL     1     -44.131  56.703 -51.011  1.00  0.00     0.213 C 
ENDBRANCH  24  26
ENDBRANCH  23  24
ENDBRANCH  14  17
ENDBRANCH  12  13
ENDBRANCH   2  12
BRANCH   1  28
HETATM   28  C   UNL     1     -43.126  58.548 -57.413  1.00  0.00    -0.027 C 
HETATM   29  C   UNL     1     -44.465  58.228 -57.171  1.00  0.00     0.011 C 
HETATM   30  C   UNL     1     -45.266  57.614 -58.151  1.00  0.00     0.030 C 
HETATM   31  C   UNL     1     -44.780  57.274 -59.418  1.00  0.00     0.030 C 
HETATM   32  C   UNL     1     -43.396  57.414 -59.569  1.00  0.00     0.030 C 
HETATM   33  C   UNL     1     -42.587  58.016 -58.590  1.00  0.00     0.011 C 
BRANCH  31  34
HETATM   34  N   UNL     1     -45.597  56.813 -60.450  1.00  0.00    -0.382 N 
BRANCH  34  35
HETATM   35  C   UNL     1     -46.984  57.310 -60.551  1.00  0.00     0.118 C 
HETATM   36  C   UNL     1     -47.778  56.536 -61.597  1.00  0.00     0.026 C 
ENDBRANCH  34  35
BRANCH  34  37
HETATM   37  C   UNL     1     -45.368  55.500 -61.079  1.00  0.00     0.118 C 
HETATM   38  C   UNL     1     -45.054  54.447 -60.028  1.00  0.00     0.026 C 
ENDBRANCH  34  37
ENDBRANCH  31  34
ENDBRANCH   1  28
BRANCH   6  39
HETATM   39  O   UNL     1     -44.086  61.417 -57.783  1.00  0.00    -0.389 OA
HETATM   40  H   UNL     1     -44.915  61.809 -57.452  1.00  0.00     0.210 HD
ENDBRANCH   6  39
TORSDOF 10
ENDMDL
MODEL 7
REMARK VINA RESULT:      -7.6      2.892      8.446
REMARK  10 active torsions:
REMARK  status: ('A' for Active; 'I' for Inactive)
REMARK    1  A    between atoms: C_2  and  N_3 
REMARK    2  A    between atoms: N_3  and  C_4 
REMARK    3  A    between atoms: N_3  and  C_37 
REMARK    4  A    between atoms: C_7  and  C_8 
REMARK    5  A    between atoms: N_9  and  C_11 
REMARK    6  A    between atoms: C_11  and  C_12 
REMARK       I    between atoms: C_12  and  N_13 
REMARK    7  A    between atoms: N_13  and  C_14 
REMARK    8  A    between atoms: C_20  and  C_21 
REMARK    9  A    between atoms: C_21  and  O_22 
REMARK   10  A    between atoms: C_28  and  O_29 
ROOT
HETATM    1  C   UNL     1     -42.549  58.543 -52.761  1.00  0.00     0.228 C 
HETATM    2  N   UNL     1     -42.889  57.145 -52.195  1.00  0.00    -0.054 N 
HETATM    3  H   UNL     1     -42.592  56.501 -52.945  1.00  0.00     0.281 HD
HETATM    4  C   UNL     1     -44.361  56.937 -51.913  1.00  0.00     0.239 C 
HETATM    5  C   UNL     1     -44.898  57.993 -50.962  1.00  0.00     0.066 C 
HETATM    6  C   UNL     1     -44.634  59.412 -51.484  1.00  0.00     0.065 C 
HETATM    7  C   UNL     1     -43.126  59.603 -51.758  1.00  0.00     0.055 C 
HETATM    8  C   UNL     1     -45.163  60.434 -50.457  1.00  0.00     0.038 C 
HETATM    9  C   UNL     1     -44.780  61.876 -50.783  1.00  0.00     0.003 C 
HETATM   10  C   UNL     1     -43.279  62.018 -51.002  1.00  0.00     0.001 C 
HETATM   11  C   UNL     1     -42.795  61.068 -52.095  1.00  0.00     0.010 C 
ENDROOT
BRANCH   2  12
HETATM   12  C   UNL     1     -42.035  56.709 -50.994  1.00  0.00     0.338 C 
BRANCH  12  13
HETATM   13  C   UNL     1     -41.847  55.199 -50.862  1.00  0.00     0.248 C 
HETATM   14  N   UNL     1     -41.045  54.695 -51.865  1.00  0.00    -0.319 N 
HETATM   15  H   UNL     1     -40.724  55.319 -52.609  1.00  0.00     0.169 HD
HETATM   16  O   UNL     1     -42.401  54.609 -49.939  1.00  0.00    -0.271 OA
BRANCH  14  17
HETATM   17  C   UNL     1     -40.611  53.389 -52.046  1.00  0.00     0.094 A 
HETATM   18  S   UNL     1     -40.180  52.411 -50.741  1.00  0.00    -0.076 SA
HETATM   19  C   UNL     1     -39.752  51.109 -51.759  1.00  0.00    -0.012 A 
HETATM   20  C   UNL     1     -39.231  49.851 -51.141  1.00  0.00     0.057 C 
HETATM   21  C   UNL     1     -39.972  51.395 -53.100  1.00  0.00    -0.030 A 
HETATM   22  C   UNL     1     -39.729  50.422 -54.216  1.00  0.00     0.050 C 
HETATM   23  C   UNL     1     -40.456  52.757 -53.275  1.00  0.00     0.080 A 
BRANCH  23  24
HETATM   24  C   UNL     1     -40.775  53.461 -54.527  1.00  0.00     0.296 C 
HETATM   25  O   UNL     1     -39.892  53.941 -55.237  1.00  0.00    -0.259 OA
BRANCH  24  26
HETATM   26  O   UNL     1     -42.102  53.512 -54.813  1.00  0.00    -0.322 OA
HETATM   27  C   UNL     1     -42.608  54.775 -55.254  1.00  0.00     0.213 C 
ENDBRANCH  24  26
ENDBRANCH  23  24
ENDBRANCH  14  17
ENDBRANCH  12  13
ENDBRANCH   2  12
BRANCH   1  28
HETATM   28  C   UNL     1     -42.881  58.743 -54.244  1.00  0.00    -0.027 C 
HETATM   29  C   UNL     1     -42.144  59.529 -55.133  1.00  0.00     0.011 C 
HETATM   30  C   UNL     1     -42.376  59.491 -56.520  1.00  0.00     0.030 C 
HETATM   31  C   UNL     1     -43.359  58.681 -57.098  1.00  0.00     0.030 C 
HETATM   32  C   UNL     1     -44.217  58.061 -56.182  1.00  0.00     0.030 C 
HETATM   33  C   UNL     1     -43.999  58.104 -54.795  1.00  0.00     0.011 C 
BRANCH  31  34
HETATM   34  N   UNL     1     -43.496  58.513 -58.475  1.00  0.00    -0.382 N 
BRANCH  34  35
HETATM   35  C   UNL     1     -44.629  59.154 -59.173  1.00  0.00     0.118 C 
HETATM   36  C   UNL     1     -45.538  58.119 -59.825  1.00  0.00     0.026 C 
ENDBRANCH  34  35
BRANCH  34  37
HETATM   37  C   UNL     1     -42.941  57.332 -59.162  1.00  0.00     0.118 C 
HETATM   38  C   UNL     1     -41.795  57.732 -60.078  1.00  0.00     0.026 C 
ENDBRANCH  34  37
ENDBRANCH  31  34
ENDBRANCH   1  28
BRANCH   6  39
HETATM   39  O   UNL     1     -45.381  59.535 -52.690  1.00  0.00    -0.389 OA
HETATM   40  H   UNL     1     -46.271  59.152 -52.581  1.00  0.00     0.210 HD
ENDBRANCH   6  39
TORSDOF 10
ENDMDL
MODEL 8
REMARK VINA RESULT:      -7.5      4.739      8.666
REMARK  10 active torsions:
REMARK  status: ('A' for Active; 'I' for Inactive)
REMARK    1  A    between atoms: C_2  and  N_3 
REMARK    2  A    between atoms: N_3  and  C_4 
REMARK    3  A    between atoms: N_3  and  C_37 
REMARK    4  A    between atoms: C_7  and  C_8 
REMARK    5  A    between atoms: N_9  and  C_11 
REMARK    6  A    between atoms: C_11  and  C_12 
REMARK       I    between atoms: C_12  and  N_13 
REMARK    7  A    between atoms: N_13  and  C_14 
REMARK    8  A    between atoms: C_20  and  C_21 
REMARK    9  A    between atoms: C_21  and  O_22 
REMARK   10  A    between atoms: C_28  and  O_29 
ROOT
HETATM    1  C   UNL     1     -43.844  58.103 -57.575  1.00  0.00     0.228 C 
HETATM    2  N   UNL     1     -43.236  57.444 -56.315  1.00  0.00    -0.054 N 
HETATM    3  H   UNL     1     -42.724  58.215 -55.860  1.00  0.00     0.281 HD
HETATM    4  C   UNL     1     -42.275  56.315 -56.615  1.00  0.00     0.239 C 
HETATM    5  C   UNL     1     -42.932  55.238 -57.463  1.00  0.00     0.066 C 
HETATM    6  C   UNL     1     -43.520  55.816 -58.757  1.00  0.00     0.065 C 
HETATM    7  C   UNL     1     -44.502  56.961 -58.426  1.00  0.00     0.055 C 
HETATM    8  C   UNL     1     -44.206  54.684 -59.549  1.00  0.00     0.038 C 
HETATM    9  C   UNL     1     -44.993  55.183 -60.760  1.00  0.00     0.003 C 
HETATM   10  C   UNL     1     -45.977  56.279 -60.373  1.00  0.00     0.001 C 
HETATM   11  C   UNL     1     -45.259  57.436 -59.680  1.00  0.00     0.010 C 
ENDROOT
BRANCH   2  12
HETATM   12  C   UNL     1     -44.261  57.022 -55.250  1.00  0.00     0.338 C 
BRANCH  12  13
HETATM   13  C   UNL     1     -43.769  55.944 -54.287  1.00  0.00     0.248 C 
HETATM   14  N   UNL     1     -42.786  56.422 -53.444  1.00  0.00    -0.319 N 
HETATM   15  H   UNL     1     -42.437  57.375 -53.575  1.00  0.00     0.169 HD
HETATM   16  O   UNL     1     -44.256  54.819 -54.354  1.00  0.00    -0.271 OA
BRANCH  14  17
HETATM   17  C   UNL     1     -42.140  55.758 -52.411  1.00  0.00     0.094 A 
HETATM   18  S   UNL     1     -42.421  56.150 -50.795  1.00  0.00    -0.076 SA
HETATM   19  C   UNL     1     -41.287  55.003 -50.239  1.00  0.00    -0.012 A 
HETATM   20  C   UNL     1     -41.049  54.876 -48.767  1.00  0.00     0.057 C 
HETATM   21  C   UNL     1     -40.712  54.284 -51.279  1.00  0.00    -0.030 A 
HETATM   22  C   UNL     1     -39.715  53.179 -51.086  1.00  0.00     0.050 C 
HETATM   23  C   UNL     1     -41.197  54.748 -52.571  1.00  0.00     0.080 A 
BRANCH  23  24
HETATM   24  C   UNL     1     -40.816  54.282 -53.913  1.00  0.00     0.296 C 
HETATM   25  O   UNL     1     -40.064  54.939 -54.632  1.00  0.00    -0.259 OA
BRANCH  24  26
HETATM   26  O   UNL     1     -41.355  53.084 -54.258  1.00  0.00    -0.322 OA
HETATM   27  C   UNL     1     -40.442  51.992 -54.393  1.00  0.00     0.213 C 
ENDBRANCH  24  26
ENDBRANCH  23  24
ENDBRANCH  14  17
ENDBRANCH  12  13
ENDBRANCH   2  12
BRANCH   1  28
HETATM   28  C   UNL     1     -42.911  59.068 -58.317  1.00  0.00    -0.027 C 
HETATM   29  C   UNL     1     -42.969  59.347 -59.685  1.00  0.00     0.011 C 
HETATM   30  C   UNL     1     -42.232  60.402 -60.255  1.00  0.00     0.030 C 
HETATM   31  C   UNL     1     -41.391  61.226 -59.502  1.00  0.00     0.030 C 
HETATM   32  C   UNL     1     -41.189  60.806 -58.183  1.00  0.00     0.030 C 
HETATM   33  C   UNL     1     -41.912  59.747 -57.609  1.00  0.00     0.011 C 
BRANCH  31  34
HETATM   34  N   UNL     1     -40.779  62.368 -60.020  1.00  0.00    -0.382 N 
BRANCH  34  35
HETATM   35  C   UNL     1     -39.656  62.983 -59.285  1.00  0.00     0.118 C 
HETATM   36  C   UNL     1     -40.048  64.332 -58.695  1.00  0.00     0.026 C 
ENDBRANCH  34  35
BRANCH  34  37
HETATM   37  C   UNL     1     -41.507  63.290 -60.911  1.00  0.00     0.118 C 
HETATM   38  C   UNL     1     -40.905  63.277 -62.307  1.00  0.00     0.026 C 
ENDBRANCH  34  37
ENDBRANCH  31  34
ENDBRANCH   1  28
BRANCH   6  39
HETATM   39  O   UNL     1     -42.415  56.307 -59.509  1.00  0.00    -0.389 OA
HETATM   40  H   UNL     1     -42.723  56.880 -60.235  1.00  0.00     0.210 HD
ENDBRANCH   6  39
TORSDOF 10
ENDMDL
MODEL 9
REMARK VINA RESULT:      -7.5      2.997      7.390
REMARK  10 active torsions:
REMARK  status: ('A' for Active; 'I' for Inactive)
REMARK    1  A    between atoms: C_2  and  N_3 
REMARK    2  A    between atoms: N_3  and  C_4 
REMARK    3  A    between atoms: N_3  and  C_37 
REMARK    4  A    between atoms: C_7  and  C_8 
REMARK    5  A    between atoms: N_9  and  C_11 
REMARK    6  A    between atoms: C_11  and  C_12 
REMARK       I    between atoms: C_12  and  N_13 
REMARK    7  A    between atoms: N_13  and  C_14 
REMARK    8  A    between atoms: C_20  and  C_21 
REMARK    9  A    between atoms: C_21  and  O_22 
REMARK   10  A    between atoms: C_28  and  O_29 
ROOT
HETATM    1  C   UNL     1     -44.080  58.800 -53.019  1.00  0.00     0.228 C 
HETATM    2  N   UNL     1     -43.597  59.548 -54.283  1.00  0.00    -0.054 N 
HETATM    3  H   UNL     1     -43.286  58.790 -54.911  1.00  0.00     0.281 HD
HETATM    4  C   UNL     1     -42.443  60.494 -54.035  1.00  0.00     0.239 C 
HETATM    5  C   UNL     1     -42.783  61.515 -52.962  1.00  0.00     0.066 C 
HETATM    6  C   UNL     1     -43.230  60.839 -51.658  1.00  0.00     0.065 C 
HETATM    7  C   UNL     1     -44.412  59.884 -51.936  1.00  0.00     0.055 C 
HETATM    8  C   UNL     1     -43.600  61.925 -50.628  1.00  0.00     0.038 C 
HETATM    9  C   UNL     1     -44.243  61.364 -49.360  1.00  0.00     0.003 C 
HETATM   10  C   UNL     1     -45.428  60.466 -49.687  1.00  0.00     0.001 C 
HETATM   11  C   UNL     1     -45.014  59.337 -50.629  1.00  0.00     0.010 C 
ENDROOT
BRANCH   2  12
HETATM   12  C   UNL     1     -44.709  60.241 -55.087  1.00  0.00     0.338 C 
BRANCH  12  13
HETATM   13  C   UNL     1     -44.777  59.835 -56.558  1.00  0.00     0.248 C 
HETATM   14  N   UNL     1     -45.207  58.532 -56.709  1.00  0.00    -0.319 N 
HETATM   15  H   UNL     1     -45.362  57.959 -55.876  1.00  0.00     0.169 HD
HETATM   16  O   UNL     1     -44.453  60.651 -57.416  1.00  0.00    -0.271 OA
BRANCH  14  17
HETATM   17  C   UNL     1     -45.440  57.833 -57.885  1.00  0.00     0.094 A 
HETATM   18  S   UNL     1     -46.884  57.999 -58.741  1.00  0.00    -0.076 SA
HETATM   19  C   UNL     1     -46.409  56.855 -59.914  1.00  0.00    -0.012 A 
HETATM   20  C   UNL     1     -47.356  56.523 -61.024  1.00  0.00     0.057 C 
HETATM   21  C   UNL     1     -45.130  56.365 -59.685  1.00  0.00    -0.030 A 
HETATM   22  C   UNL     1     -44.436  55.381 -60.580  1.00  0.00     0.050 C 
HETATM   23  C   UNL     1     -44.563  56.924 -58.467  1.00  0.00     0.080 A 
BRANCH  23  24
HETATM   24  C   UNL     1     -43.256  56.642 -57.852  1.00  0.00     0.296 C 
HETATM   25  O   UNL     1     -42.984  55.529 -57.404  1.00  0.00    -0.259 OA
BRANCH  24  26
HETATM   26  O   UNL     1     -42.407  57.702 -57.843  1.00  0.00    -0.322 OA
HETATM   27  C   UNL     1     -41.930  58.143 -59.116  1.00  0.00     0.213 C 
ENDBRANCH  24  26
ENDBRANCH  23  24
ENDBRANCH  14  17
ENDBRANCH  12  13
ENDBRANCH   2  12
BRANCH   1  28
HETATM   28  C   UNL     1     -43.191  57.631 -52.577  1.00  0.00    -0.027 C 
HETATM   29  C   UNL     1     -43.502  56.728 -51.557  1.00  0.00     0.011 C 
HETATM   30  C   UNL     1     -42.750  55.556 -51.355  1.00  0.00     0.030 C 
HETATM   31  C   UNL     1     -41.644  55.224 -52.144  1.00  0.00     0.030 C 
HETATM   32  C   UNL     1     -41.228  56.232 -53.020  1.00  0.00     0.030 C 
HETATM   33  C   UNL     1     -41.967  57.410 -53.220  1.00  0.00     0.011 C 
BRANCH  31  34
HETATM   34  N   UNL     1     -40.988  53.996 -52.059  1.00  0.00    -0.382 N 
BRANCH  34  35
HETATM   35  C   UNL     1     -41.006  53.085 -53.221  1.00  0.00     0.118 C 
HETATM   36  C   UNL     1     -39.935  52.007 -53.100  1.00  0.00     0.026 C 
ENDBRANCH  34  35
BRANCH  34  37
HETATM   37  C   UNL     1     -40.772  53.331 -50.761  1.00  0.00     0.118 C 
HETATM   38  C   UNL     1     -39.742  54.086 -49.935  1.00  0.00     0.026 C 
ENDBRANCH  34  37
ENDBRANCH  31  34
ENDBRANCH   1  28
BRANCH   6  39
HETATM   39  O   UNL     1     -42.101  60.112 -51.183  1.00  0.00    -0.389 OA
HETATM   40  H   UNL     1     -41.663  59.644 -51.917  1.00  0.00     0.210 HD
ENDBRANCH   6  39
TORSDOF 10
ENDMDL
MODEL 10
REMARK VINA RESULT:      -7.4      3.748      6.832
REMARK  10 active torsions:
REMARK  status: ('A' for Active; 'I' for Inactive)
REMARK    1  A    between atoms: C_2  and  N_3 
REMARK    2  A    between atoms: N_3  and  C_4 
REMARK    3  A    between atoms: N_3  and  C_37 
REMARK    4  A    between atoms: C_7  and  C_8 
REMARK    5  A    between atoms: N_9  and  C_11 
REMARK    6  A    between atoms: C_11  and  C_12 
REMARK       I    between atoms: C_12  and  N_13 
REMARK    7  A    between atoms: N_13  and  C_14 
REMARK    8  A    between atoms: C_20  and  C_21 
REMARK    9  A    between atoms: C_21  and  O_22 
REMARK   10  A    between atoms: C_28  and  O_29 
ROOT
HETATM    1  C   UNL     1     -43.334  56.277 -54.301  1.00  0.00     0.228 C 
HETATM    2  N   UNL     1     -42.919  56.859 -55.672  1.00  0.00    -0.054 N 
HETATM    3  H   UNL     1     -42.574  56.037 -56.192  1.00  0.00     0.281 HD
HETATM    4  C   UNL     1     -41.821  57.897 -55.593  1.00  0.00     0.239 C 
HETATM    5  C   UNL     1     -42.205  59.041 -54.671  1.00  0.00     0.066 C 
HETATM    6  C   UNL     1     -42.587  58.539 -53.272  1.00  0.00     0.065 C 
HETATM    7  C   UNL     1     -43.713  57.487 -53.378  1.00  0.00     0.055 C 
HETATM    8  C   UNL     1     -43.005  59.741 -52.401  1.00  0.00     0.038 C 
HETATM    9  C   UNL     1     -43.590  59.335 -51.049  1.00  0.00     0.003 C 
HETATM   10  C   UNL     1     -44.724  58.331 -51.211  1.00  0.00     0.001 C 
HETATM   11  C   UNL     1     -44.258  57.103 -51.990  1.00  0.00     0.010 C 
ENDROOT
BRANCH   2  12
HETATM   12  C   UNL     1     -44.085  57.362 -56.539  1.00  0.00     0.338 C 
BRANCH  12  13
HETATM   13  C   UNL     1     -43.689  57.793 -57.949  1.00  0.00     0.248 C 
HETATM   14  N   UNL     1     -43.907  59.141 -58.151  1.00  0.00    -0.319 N 
HETATM   15  H   UNL     1     -44.356  59.689 -57.414  1.00  0.00     0.169 HD
HETATM   16  O   UNL     1     -43.250  56.952 -58.728  1.00  0.00    -0.271 OA
BRANCH  14  17
HETATM   17  C   UNL     1     -43.623  59.900 -59.278  1.00  0.00     0.094 A 
HETATM   18  S   UNL     1     -44.432  59.653 -60.737  1.00  0.00    -0.076 SA
HETATM   19  C   UNL     1     -43.520  60.854 -61.535  1.00  0.00    -0.012 A 
HETATM   20  C   UNL     1     -43.779  61.114 -62.985  1.00  0.00     0.057 C 
HETATM   21  C   UNL     1     -42.618  61.481 -60.685  1.00  0.00    -0.030 A 
HETATM   22  C   UNL     1     -41.716  62.606 -61.101  1.00  0.00     0.050 C 
HETATM   23  C   UNL     1     -42.658  60.899 -59.352  1.00  0.00     0.080 A 
BRANCH  23  24
HETATM   24  C   UNL     1     -41.845  61.246 -58.176  1.00  0.00     0.296 C 
HETATM   25  O   UNL     1     -40.979  60.484 -57.746  1.00  0.00    -0.259 OA
BRANCH  24  26
HETATM   26  O   UNL     1     -42.133  62.460 -57.641  1.00  0.00    -0.322 OA
HETATM   27  C   UNL     1     -43.153  62.486 -56.639  1.00  0.00     0.213 C 
ENDBRANCH  24  26
ENDBRANCH  23  24
ENDBRANCH  14  17
ENDBRANCH  12  13
ENDBRANCH   2  12
BRANCH   1  28
HETATM   28  C   UNL     1     -42.368  55.238 -53.718  1.00  0.00    -0.027 C 
HETATM   29  C   UNL     1     -42.493  54.644 -52.459  1.00  0.00     0.011 C 
HETATM   30  C   UNL     1     -41.702  53.544 -52.080  1.00  0.00     0.030 C 
HETATM   31  C   UNL     1     -40.737  52.984 -52.923  1.00  0.00     0.030 C 
HETATM   32  C   UNL     1     -40.486  53.714 -54.090  1.00  0.00     0.030 C 
HETATM   33  C   UNL     1     -41.264  54.820 -54.470  1.00  0.00     0.011 C 
BRANCH  31  34
HETATM   34  N   UNL     1     -40.059  51.802 -52.626  1.00  0.00    -0.382 N 
BRANCH  34  35
HETATM   35  C   UNL     1     -39.580  51.571 -51.248  1.00  0.00     0.118 C 
HETATM   36  C   UNL     1     -39.773  50.119 -50.828  1.00  0.00     0.026 C 
ENDBRANCH  34  35
BRANCH  34  37
HETATM   37  C   UNL     1     -39.323  51.059 -53.665  1.00  0.00     0.118 C 
HETATM   38  C   UNL     1     -40.245  50.092 -54.390  1.00  0.00     0.026 C 
ENDBRANCH  34  37
ENDBRANCH  31  34
ENDBRANCH   1  28
BRANCH   6  39
HETATM   39  O   UNL     1     -41.408  57.956 -52.726  1.00  0.00    -0.389 OA
HETATM   40  H   UNL     1     -40.649  58.100 -53.321  1.00  0.00     0.210 HD
ENDBRANCH   6  39
TORSDOF 10
ENDMDL
