MODEL 1
REMARK VINA RESULT:      -7.8      0.000      0.000
REMARK  6 active torsions:
REMARK  status: ('A' for Active; 'I' for Inactive)
REMARK    1  A    between atoms: C_2  and  O_3 
REMARK    2  A    between atoms: O_3  and  C_4 
REMARK    3  A    between atoms: C_8  and  C_9 
REMARK    4  A    between atoms: C_9  and  N_10 
REMARK       I    between atoms: N_10  and  C_11 
REMARK       I    between atoms: C_11  and  N_12 
REMARK    5  A    between atoms: N_12  and  C_13 
REMARK    6  A    between atoms: C_14  and  C_15 
ROOT
HETATM    1  N   UNL     1     -43.484  55.454 -52.516  1.00  0.00    -0.339 N 
HETATM    2  C   UNL     1     -42.335  55.583 -51.783  1.00  0.00     0.316 C 
HETATM    3  N   UNL     1     -41.917  54.384 -51.259  1.00  0.00    -0.338 N 
HETATM    4  O   UNL     1     -41.752  56.647 -51.617  1.00  0.00    -0.247 OA
HETATM    5  H   UNL     1     -43.954  54.563 -52.550  1.00  0.00     0.164 HD
HETATM    6  H   UNL     1     -42.306  53.541 -51.660  1.00  0.00     0.164 HD
ENDROOT
BRANCH   1   7
HETATM    7  C   UNL     1     -44.128  56.591 -53.134  1.00  0.00     0.163 C 
BRANCH   7   8
HETATM    8  C   UNL     1     -43.452  57.011 -54.412  1.00  0.00    -0.035 A 
HETATM    9  C   UNL     1     -42.910  58.290 -54.571  1.00  0.00     0.028 A 
HETATM   10  C   UNL     1     -42.356  58.631 -55.794  1.00  0.00     0.120 A 
HETATM   11  N   UNL     1     -42.325  57.809 -56.864  1.00  0.00    -0.237 NA
HETATM   12  C   UNL     1     -42.882  56.595 -56.708  1.00  0.00     0.165 A 
HETATM   13  C   UNL     1     -43.434  56.152 -55.515  1.00  0.00     0.066 A 
BRANCH  12  14
HETATM   14  O   UNL     1     -42.914  55.698 -57.751  1.00  0.00    -0.324 OA
BRANCH  14  15
HETATM   15  C   UNL     1     -43.529  56.074 -58.998  1.00  0.00     0.058 C 
HETATM   16  C   UNL     1     -42.501  56.534 -60.041  1.00  0.00     0.045 C 
HETATM   17  C   UNL     1     -44.675  57.085 -58.823  1.00  0.00     0.045 C 
HETATM   18  C   UNL     1     -44.151  54.759 -59.508  1.00  0.00     0.045 C 
ENDBRANCH  14  15
ENDBRANCH  12  14
ENDBRANCH   7   8
ENDBRANCH   1   7
BRANCH   3  19
HETATM   19  C   UNL     1     -40.694  54.251 -50.518  1.00  0.00     0.095 A 
HETATM   20  C   UNL     1     -39.639  53.222 -50.874  1.00  0.00     0.043 A 
HETATM   21  C   UNL     1     -40.485  53.057 -49.635  1.00  0.00     0.037 A 
BRANCH  20  22
HETATM   22  C   UNL     1     -39.817  52.295 -52.054  1.00  0.00    -0.052 A 
HETATM   23  C   UNL     1     -40.188  52.791 -53.317  1.00  0.00     0.007 A 
HETATM   24  C   UNL     1     -40.349  51.943 -54.415  1.00  0.00     0.001 A 
HETATM   25  C   UNL     1     -40.132  50.575 -54.275  1.00  0.00     0.000 A 
HETATM   26  C   UNL     1     -39.749  50.059 -53.041  1.00  0.00     0.001 A 
HETATM   27  C   UNL     1     -39.591  50.912 -51.946  1.00  0.00     0.007 A 
ENDBRANCH  20  22
ENDBRANCH   3  19
TORSDOF 6
ENDMDL
MODEL 2
REMARK VINA RESULT:      -7.7      2.417      5.265
REMARK  6 active torsions:
REMARK  status: ('A' for Active; 'I' for Inactive)
REMARK    1  A    between atoms: C_2  and  O_3 
REMARK    2  A    between atoms: O_3  and  C_4 
REMARK    3  A    between atoms: C_8  and  C_9 
REMARK    4  A    between atoms: C_9  and  N_10 
REMARK       I    between atoms: N_10  and  C_11 
REMARK       I    between atoms: C_11  and  N_12 
REMARK    5  A    between atoms: N_12  and  C_13 
REMARK    6  A    between atoms: C_14  and  C_15 
ROOT
HETATM    1  N   UNL     1     -41.301  55.849 -55.505  1.00  0.00    -0.339 N 
HETATM    2  C   UNL     1     -41.580  54.537 -55.231  1.00  0.00     0.316 C 
HETATM    3  N   UNL     1     -40.499  53.877 -54.699  1.00  0.00    -0.338 N 
HETATM    4  O   UNL     1     -42.669  54.017 -55.439  1.00  0.00    -0.247 OA
HETATM    5  H   UNL     1     -40.363  56.193 -55.381  1.00  0.00     0.164 HD
HETATM    6  H   UNL     1     -39.747  54.442 -54.329  1.00  0.00     0.164 HD
ENDROOT
BRANCH   1   7
HETATM    7  C   UNL     1     -42.279  56.729 -56.105  1.00  0.00     0.163 C 
BRANCH   7   8
HETATM    8  C   UNL     1     -42.337  58.072 -55.426  1.00  0.00    -0.035 A 
HETATM    9  C   UNL     1     -42.951  59.173 -56.027  1.00  0.00     0.028 A 
HETATM   10  C   UNL     1     -42.915  60.395 -55.374  1.00  0.00     0.120 A 
HETATM   11  N   UNL     1     -42.298  60.600 -54.191  1.00  0.00    -0.237 NA
HETATM   12  C   UNL     1     -41.680  59.540 -53.641  1.00  0.00     0.165 A 
HETATM   13  C   UNL     1     -41.686  58.272 -54.204  1.00  0.00     0.066 A 
BRANCH  12  14
HETATM   14  O   UNL     1     -41.009  59.661 -52.447  1.00  0.00    -0.324 OA
BRANCH  14  15
HETATM   15  C   UNL     1     -41.724  59.500 -51.207  1.00  0.00     0.058 C 
HETATM   16  C   UNL     1     -42.882  58.499 -51.326  1.00  0.00     0.045 C 
HETATM   17  C   UNL     1     -42.169  60.836 -50.590  1.00  0.00     0.045 C 
HETATM   18  C   UNL     1     -40.675  58.884 -50.259  1.00  0.00     0.045 C 
ENDBRANCH  14  15
ENDBRANCH  12  14
ENDBRANCH   7   8
ENDBRANCH   1   7
BRANCH   3  19
HETATM   19  C   UNL     1     -40.569  52.512 -54.257  1.00  0.00     0.095 A 
HETATM   20  C   UNL     1     -40.710  52.141 -52.795  1.00  0.00     0.043 A 
HETATM   21  C   UNL     1     -39.409  51.907 -53.524  1.00  0.00     0.037 A 
BRANCH  20  22
HETATM   22  C   UNL     1     -40.809  53.202 -51.723  1.00  0.00    -0.052 A 
HETATM   23  C   UNL     1     -41.998  53.927 -51.528  1.00  0.00     0.007 A 
HETATM   24  C   UNL     1     -42.102  54.906 -50.537  1.00  0.00     0.001 A 
HETATM   25  C   UNL     1     -41.016  55.174 -49.709  1.00  0.00     0.000 A 
HETATM   26  C   UNL     1     -39.831  54.462 -49.869  1.00  0.00     0.001 A 
HETATM   27  C   UNL     1     -39.733  53.484 -50.864  1.00  0.00     0.007 A 
ENDBRANCH  20  22
ENDBRANCH   3  19
TORSDOF 6
ENDMDL
MODEL 3
REMARK VINA RESULT:      -7.6      1.848      2.590
REMARK  6 active torsions:
REMARK  status: ('A' for Active; 'I' for Inactive)
REMARK    1  A    between atoms: C_2  and  O_3 
REMARK    2  A    between atoms: O_3  and  C_4 
REMARK    3  A    between atoms: C_8  and  C_9 
REMARK    4  A    between atoms: C_9  and  N_10 
REMARK       I    between atoms: N_10  and  C_11 
REMARK       I    between atoms: C_11  and  N_12 
REMARK    5  A    between atoms: N_12  and  C_13 
REMARK    6  A    between atoms: C_14  and  C_15 
ROOT
HETATM    1  N   UNL     1     -44.773  57.249 -53.437  1.00  0.00    -0.339 N 
HETATM    2  C   UNL     1     -43.904  57.196 -52.381  1.00  0.00     0.316 C 
HETATM    3  N   UNL     1     -43.712  55.911 -51.933  1.00  0.00    -0.338 N 
HETATM    4  O   UNL     1     -43.364  58.182 -51.896  1.00  0.00    -0.247 OA
HETATM    5  H   UNL     1     -45.241  56.410 -53.739  1.00  0.00     0.164 HD
HETATM    6  H   UNL     1     -43.987  55.159 -52.549  1.00  0.00     0.164 HD
ENDROOT
BRANCH   1   7
HETATM    7  C   UNL     1     -45.154  58.502 -54.051  1.00  0.00     0.163 C 
BRANCH   7   8
HETATM    8  C   UNL     1     -44.481  58.719 -55.381  1.00  0.00    -0.035 A 
HETATM    9  C   UNL     1     -43.704  59.852 -55.635  1.00  0.00     0.028 A 
HETATM   10  C   UNL     1     -43.164  60.019 -56.901  1.00  0.00     0.120 A 
HETATM   11  N   UNL     1     -43.360  59.161 -57.923  1.00  0.00    -0.237 NA
HETATM   12  C   UNL     1     -44.140  58.094 -57.675  1.00  0.00     0.165 A 
HETATM   13  C   UNL     1     -44.700  57.826 -56.435  1.00  0.00     0.066 A 
BRANCH  12  14
HETATM   14  O   UNL     1     -44.411  57.177 -58.664  1.00  0.00    -0.324 OA
BRANCH  14  15
HETATM   15  C   UNL     1     -43.484  56.104 -58.916  1.00  0.00     0.058 C 
HETATM   16  C   UNL     1     -42.945  55.481 -57.621  1.00  0.00     0.045 C 
HETATM   17  C   UNL     1     -42.358  56.497 -59.887  1.00  0.00     0.045 C 
HETATM   18  C   UNL     1     -44.345  55.037 -59.621  1.00  0.00     0.045 C 
ENDBRANCH  14  15
ENDBRANCH  12  14
ENDBRANCH   7   8
ENDBRANCH   1   7
BRANCH   3  19
HETATM   19  C   UNL     1     -42.784  55.591 -50.884  1.00  0.00     0.095 A 
HETATM   20  C   UNL     1     -41.463  54.899 -51.155  1.00  0.00     0.043 A 
HETATM   21  C   UNL     1     -42.590  54.163 -50.473  1.00  0.00     0.037 A 
BRANCH  20  22
HETATM   22  C   UNL     1     -41.046  54.531 -52.560  1.00  0.00    -0.052 A 
HETATM   23  C   UNL     1     -40.953  53.186 -52.960  1.00  0.00     0.007 A 
HETATM   24  C   UNL     1     -40.574  52.835 -54.258  1.00  0.00     0.001 A 
HETATM   25  C   UNL     1     -40.289  53.827 -55.191  1.00  0.00     0.000 A 
HETATM   26  C   UNL     1     -40.387  55.167 -54.827  1.00  0.00     0.001 A 
HETATM   27  C   UNL     1     -40.765  55.511 -53.527  1.00  0.00     0.007 A 
ENDBRANCH  20  22
ENDBRANCH   3  19
TORSDOF 6
ENDMDL
MODEL 4
REMARK VINA RESULT:      -7.5      2.425      3.736
REMARK  6 active torsions:
REMARK  status: ('A' for Active; 'I' for Inactive)
REMARK    1  A    between atoms: C_2  and  O_3 
REMARK    2  A    between atoms: O_3  and  C_4 
REMARK    3  A    between atoms: C_8  and  C_9 
REMARK    4  A    between atoms: C_9  and  N_10 
REMARK       I    between atoms: N_10  and  C_11 
REMARK       I    between atoms: C_11  and  N_12 
REMARK    5  A    between atoms: N_12  and  C_13 
REMARK    6  A    between atoms: C_14  and  C_15 
ROOT
HETATM    1  N   UNL     1     -44.797  56.860 -54.031  1.00  0.00    -0.339 N 
HETATM    2  C   UNL     1     -43.928  57.007 -52.983  1.00  0.00     0.316 C 
HETATM    3  N   UNL     1     -43.857  55.875 -52.207  1.00  0.00    -0.338 N 
HETATM    4  O   UNL     1     -43.292  58.030 -52.767  1.00  0.00    -0.247 OA
HETATM    5  H   UNL     1     -45.345  56.018 -54.108  1.00  0.00     0.164 HD
HETATM    6  H   UNL     1     -44.207  55.016 -52.607  1.00  0.00     0.164 HD
ENDROOT
BRANCH   1   7
HETATM    7  C   UNL     1     -45.060  57.935 -54.961  1.00  0.00     0.163 C 
BRANCH   7   8
HETATM    8  C   UNL     1     -44.018  58.028 -56.044  1.00  0.00    -0.035 A 
HETATM    9  C   UNL     1     -43.748  56.955 -56.898  1.00  0.00     0.028 A 
HETATM   10  C   UNL     1     -42.733  57.086 -57.833  1.00  0.00     0.120 A 
HETATM   11  N   UNL     1     -41.963  58.187 -57.960  1.00  0.00    -0.237 NA
HETATM   12  C   UNL     1     -42.210  59.198 -57.108  1.00  0.00     0.165 A 
HETATM   13  C   UNL     1     -43.221  59.171 -56.159  1.00  0.00     0.066 A 
BRANCH  12  14
HETATM   14  O   UNL     1     -41.461  60.351 -57.152  1.00  0.00    -0.324 OA
BRANCH  14  15
HETATM   15  C   UNL     1     -41.851  61.422 -58.033  1.00  0.00     0.058 C 
HETATM   16  C   UNL     1     -42.623  62.529 -57.300  1.00  0.00     0.045 C 
HETATM   17  C   UNL     1     -42.588  60.931 -59.289  1.00  0.00     0.045 C 
HETATM   18  C   UNL     1     -40.507  62.022 -58.494  1.00  0.00     0.045 C 
ENDBRANCH  14  15
ENDBRANCH  12  14
ENDBRANCH   7   8
ENDBRANCH   1   7
BRANCH   3  19
HETATM   19  C   UNL     1     -42.956  55.759 -51.095  1.00  0.00     0.095 A 
HETATM   20  C   UNL     1     -41.581  55.133 -51.228  1.00  0.00     0.043 A 
HETATM   21  C   UNL     1     -42.686  54.412 -50.494  1.00  0.00     0.037 A 
BRANCH  20  22
HETATM   22  C   UNL     1     -41.081  54.618 -52.558  1.00  0.00    -0.052 A 
HETATM   23  C   UNL     1     -40.934  53.239 -52.793  1.00  0.00     0.007 A 
HETATM   24  C   UNL     1     -40.478  52.753 -54.020  1.00  0.00     0.001 A 
HETATM   25  C   UNL     1     -40.168  53.640 -55.047  1.00  0.00     0.000 A 
HETATM   26  C   UNL     1     -40.318  55.009 -54.848  1.00  0.00     0.001 A 
HETATM   27  C   UNL     1     -40.774  55.489 -53.617  1.00  0.00     0.007 A 
ENDBRANCH  20  22
ENDBRANCH   3  19
TORSDOF 6
ENDMDL
MODEL 5
REMARK VINA RESULT:      -7.4      1.626      2.441
REMARK  6 active torsions:
REMARK  status: ('A' for Active; 'I' for Inactive)
REMARK    1  A    between atoms: C_2  and  O_3 
REMARK    2  A    between atoms: O_3  and  C_4 
REMARK    3  A    between atoms: C_8  and  C_9 
REMARK    4  A    between atoms: C_9  and  N_10 
REMARK       I    between atoms: N_10  and  C_11 
REMARK       I    between atoms: C_11  and  N_12 
REMARK    5  A    between atoms: N_12  and  C_13 
REMARK    6  A    between atoms: C_14  and  C_15 
ROOT
HETATM    1  N   UNL     1     -44.115  56.235 -52.886  1.00  0.00    -0.339 N 
HETATM    2  C   UNL     1     -43.054  56.497 -52.062  1.00  0.00     0.316 C 
HETATM    3  N   UNL     1     -42.858  55.500 -51.137  1.00  0.00    -0.338 N 
HETATM    4  O   UNL     1     -42.364  57.505 -52.143  1.00  0.00    -0.247 OA
HETATM    5  H   UNL     1     -44.688  55.424 -52.716  1.00  0.00     0.164 HD
HETATM    6  H   UNL     1     -43.300  54.609 -51.315  1.00  0.00     0.164 HD
ENDROOT
BRANCH   1   7
HETATM    7  C   UNL     1     -44.532  57.164 -53.913  1.00  0.00     0.163 C 
BRANCH   7   8
HETATM    8  C   UNL     1     -44.021  56.780 -55.277  1.00  0.00    -0.035 A 
HETATM    9  C   UNL     1     -43.267  55.620 -55.479  1.00  0.00     0.028 A 
HETATM   10  C   UNL     1     -42.776  55.359 -56.749  1.00  0.00     0.120 A 
HETATM   11  N   UNL     1     -42.960  56.171 -57.811  1.00  0.00    -0.237 NA
HETATM   12  C   UNL     1     -43.655  57.301 -57.593  1.00  0.00     0.165 A 
HETATM   13  C   UNL     1     -44.211  57.635 -56.367  1.00  0.00     0.066 A 
BRANCH  12  14
HETATM   14  O   UNL     1     -43.874  58.197 -58.613  1.00  0.00    -0.324 OA
BRANCH  14  15
HETATM   15  C   UNL     1     -42.770  58.947 -59.154  1.00  0.00     0.058 C 
HETATM   16  C   UNL     1     -42.029  58.181 -60.259  1.00  0.00     0.045 C 
HETATM   17  C   UNL     1     -41.815  59.478 -58.073  1.00  0.00     0.045 C 
HETATM   18  C   UNL     1     -43.446  60.168 -59.810  1.00  0.00     0.045 C 
ENDBRANCH  14  15
ENDBRANCH  12  14
ENDBRANCH   7   8
ENDBRANCH   1   7
BRANCH   3  19
HETATM   19  C   UNL     1     -41.758  55.510 -50.214  1.00  0.00     0.095 A 
HETATM   20  C   UNL     1     -40.511  54.674 -50.430  1.00  0.00     0.043 A 
HETATM   21  C   UNL     1     -41.501  54.312 -49.349  1.00  0.00     0.037 A 
BRANCH  20  22
HETATM   22  C   UNL     1     -40.357  53.800 -51.653  1.00  0.00    -0.052 A 
HETATM   23  C   UNL     1     -39.998  52.445 -51.535  1.00  0.00     0.007 A 
HETATM   24  C   UNL     1     -39.858  51.627 -52.658  1.00  0.00     0.001 A 
HETATM   25  C   UNL     1     -40.086  52.147 -53.929  1.00  0.00     0.000 A 
HETATM   26  C   UNL     1     -40.458  53.480 -54.074  1.00  0.00     0.001 A 
HETATM   27  C   UNL     1     -40.594  54.294 -52.946  1.00  0.00     0.007 A 
ENDBRANCH  20  22
ENDBRANCH   3  19
TORSDOF 6
ENDMDL
MODEL 6
REMARK VINA RESULT:      -7.4      2.935      7.515
REMARK  6 active torsions:
REMARK  status: ('A' for Active; 'I' for Inactive)
REMARK    1  A    between atoms: C_2  and  O_3 
REMARK    2  A    between atoms: O_3  and  C_4 
REMARK    3  A    between atoms: C_8  and  C_9 
REMARK    4  A    between atoms: C_9  and  N_10 
REMARK       I    between atoms: N_10  and  C_11 
REMARK       I    between atoms: C_11  and  N_12 
REMARK    5  A    between atoms: N_12  and  C_13 
REMARK    6  A    between atoms: C_14  and  C_15 
ROOT
HETATM    1  N   UNL     1     -44.124  55.847 -53.645  1.00  0.00    -0.339 N 
HETATM    2  C   UNL     1     -44.105  57.079 -54.241  1.00  0.00     0.316 C 
HETATM    3  N   UNL     1     -44.615  58.058 -53.424  1.00  0.00    -0.338 N 
HETATM    4  O   UNL     1     -43.683  57.278 -55.373  1.00  0.00    -0.247 OA
HETATM    5  H   UNL     1     -44.555  55.739 -52.740  1.00  0.00     0.164 HD
HETATM    6  H   UNL     1     -44.690  57.847 -52.438  1.00  0.00     0.164 HD
ENDROOT
BRANCH   1   7
HETATM    7  C   UNL     1     -43.669  54.658 -54.331  1.00  0.00     0.163 C 
BRANCH   7   8
HETATM    8  C   UNL     1     -42.439  54.064 -53.698  1.00  0.00    -0.035 A 
HETATM    9  C   UNL     1     -41.419  53.495 -54.466  1.00  0.00     0.028 A 
HETATM   10  C   UNL     1     -40.343  52.910 -53.816  1.00  0.00     0.120 A 
HETATM   11  N   UNL     1     -40.224  52.833 -52.474  1.00  0.00    -0.237 NA
HETATM   12  C   UNL     1     -41.230  53.352 -51.748  1.00  0.00     0.165 A 
HETATM   13  C   UNL     1     -42.332  53.982 -52.306  1.00  0.00     0.066 A 
BRANCH  12  14
HETATM   14  O   UNL     1     -41.202  53.300 -50.374  1.00  0.00    -0.324 OA
BRANCH  14  15
HETATM   15  C   UNL     1     -40.534  54.339 -49.633  1.00  0.00     0.058 C 
HETATM   16  C   UNL     1     -41.208  55.707 -49.807  1.00  0.00     0.045 C 
HETATM   17  C   UNL     1     -39.022  54.395 -49.905  1.00  0.00     0.045 C 
HETATM   18  C   UNL     1     -40.720  53.914 -48.163  1.00  0.00     0.045 C 
ENDBRANCH  14  15
ENDBRANCH  12  14
ENDBRANCH   7   8
ENDBRANCH   1   7
BRANCH   3  19
HETATM   19  C   UNL     1     -44.629  59.445 -53.798  1.00  0.00     0.095 A 
HETATM   20  C   UNL     1     -43.500  60.392 -53.440  1.00  0.00     0.043 A 
HETATM   21  C   UNL     1     -44.839  60.496 -52.750  1.00  0.00     0.037 A 
BRANCH  20  22
HETATM   22  C   UNL     1     -42.283  59.909 -52.685  1.00  0.00    -0.052 A 
HETATM   23  C   UNL     1     -42.206  60.023 -51.285  1.00  0.00     0.007 A 
HETATM   24  C   UNL     1     -41.088  59.576 -50.578  1.00  0.00     0.001 A 
HETATM   25  C   UNL     1     -40.023  58.991 -51.257  1.00  0.00     0.000 A 
HETATM   26  C   UNL     1     -40.080  58.851 -52.640  1.00  0.00     0.001 A 
HETATM   27  C   UNL     1     -41.200  59.302 -53.343  1.00  0.00     0.007 A 
ENDBRANCH  20  22
ENDBRANCH   3  19
TORSDOF 6
ENDMDL
MODEL 7
REMARK VINA RESULT:      -7.4      2.452      4.242
REMARK  6 active torsions:
REMARK  status: ('A' for Active; 'I' for Inactive)
REMARK    1  A    between atoms: C_2  and  O_3 
REMARK    2  A    between atoms: O_3  and  C_4 
REMARK    3  A    between atoms: C_8  and  C_9 
REMARK    4  A    between atoms: C_9  and  N_10 
REMARK       I    between atoms: N_10  and  C_11 
REMARK       I    between atoms: C_11  and  N_12 
REMARK    5  A    between atoms: N_12  and  C_13 
REMARK    6  A    between atoms: C_14  and  C_15 
ROOT
HETATM    1  N   UNL     1     -41.652  55.876 -55.647  1.00  0.00    -0.339 N 
HETATM    2  C   UNL     1     -41.873  54.573 -55.288  1.00  0.00     0.316 C 
HETATM    3  N   UNL     1     -40.723  53.949 -54.869  1.00  0.00    -0.338 N 
HETATM    4  O   UNL     1     -42.971  54.033 -55.338  1.00  0.00    -0.247 OA
HETATM    5  H   UNL     1     -40.711  56.236 -55.654  1.00  0.00     0.164 HD
HETATM    6  H   UNL     1     -39.941  54.538 -54.618  1.00  0.00     0.164 HD
ENDROOT
BRANCH   1   7
HETATM    7  C   UNL     1     -42.711  56.719 -56.155  1.00  0.00     0.163 C 
BRANCH   7   8
HETATM    8  C   UNL     1     -42.784  56.707 -57.659  1.00  0.00    -0.035 A 
HETATM    9  C   UNL     1     -43.299  55.613 -58.361  1.00  0.00     0.028 A 
HETATM   10  C   UNL     1     -43.280  55.643 -59.747  1.00  0.00     0.120 A 
HETATM   11  N   UNL     1     -42.771  56.661 -60.473  1.00  0.00    -0.237 NA
HETATM   12  C   UNL     1     -42.246  57.690 -59.784  1.00  0.00     0.165 A 
HETATM   13  C   UNL     1     -42.245  57.764 -58.399  1.00  0.00     0.066 A 
BRANCH  12  14
HETATM   14  O   UNL     1     -41.687  58.761 -60.441  1.00  0.00    -0.324 OA
BRANCH  14  15
HETATM   15  C   UNL     1     -42.407  60.006 -60.518  1.00  0.00     0.058 C 
HETATM   16  C   UNL     1     -41.985  60.995 -59.422  1.00  0.00     0.045 C 
HETATM   17  C   UNL     1     -43.932  59.818 -60.577  1.00  0.00     0.045 C 
HETATM   18  C   UNL     1     -41.966  60.598 -61.872  1.00  0.00     0.045 C 
ENDBRANCH  14  15
ENDBRANCH  12  14
ENDBRANCH   7   8
ENDBRANCH   1   7
BRANCH   3  19
HETATM   19  C   UNL     1     -40.716  52.603 -54.368  1.00  0.00     0.095 A 
HETATM   20  C   UNL     1     -40.878  52.286 -52.894  1.00  0.00     0.043 A 
HETATM   21  C   UNL     1     -39.542  52.111 -53.575  1.00  0.00     0.037 A 
BRANCH  20  22
HETATM   22  C   UNL     1     -41.082  53.384 -51.875  1.00  0.00    -0.052 A 
HETATM   23  C   UNL     1     -42.344  53.975 -51.688  1.00  0.00     0.007 A 
HETATM   24  C   UNL     1     -42.544  54.986 -50.746  1.00  0.00     0.001 A 
HETATM   25  C   UNL     1     -41.482  55.422 -49.959  1.00  0.00     0.000 A 
HETATM   26  C   UNL     1     -40.226  54.844 -50.111  1.00  0.00     0.001 A 
HETATM   27  C   UNL     1     -40.031  53.834 -51.057  1.00  0.00     0.007 A 
ENDBRANCH  20  22
ENDBRANCH   3  19
TORSDOF 6
ENDMDL
MODEL 8
REMARK VINA RESULT:      -7.3      3.593      6.323
REMARK  6 active torsions:
REMARK  status: ('A' for Active; 'I' for Inactive)
REMARK    1  A    between atoms: C_2  and  O_3 
REMARK    2  A    between atoms: O_3  and  C_4 
REMARK    3  A    between atoms: C_8  and  C_9 
REMARK    4  A    between atoms: C_9  and  N_10 
REMARK       I    between atoms: N_10  and  C_11 
REMARK       I    between atoms: C_11  and  N_12 
REMARK    5  A    between atoms: N_12  and  C_13 
REMARK    6  A    between atoms: C_14  and  C_15 
ROOT
HETATM    1  N   UNL     1     -40.949  57.715 -54.148  1.00  0.00    -0.339 N 
HETATM    2  C   UNL     1     -41.560  56.535 -54.478  1.00  0.00     0.316 C 
HETATM    3  N   UNL     1     -40.675  55.485 -54.508  1.00  0.00    -0.338 N 
HETATM    4  O   UNL     1     -42.756  56.434 -54.719  1.00  0.00    -0.247 OA
HETATM    5  H   UNL     1     -39.949  57.743 -54.036  1.00  0.00     0.164 HD
HETATM    6  H   UNL     1     -39.784  55.615 -54.048  1.00  0.00     0.164 HD
ENDROOT
BRANCH   1   7
HETATM    7  C   UNL     1     -41.678  58.963 -54.091  1.00  0.00     0.163 C 
BRANCH   7   8
HETATM    8  C   UNL     1     -41.763  59.515 -52.692  1.00  0.00    -0.035 A 
HETATM    9  C   UNL     1     -40.863  59.132 -51.694  1.00  0.00     0.028 A 
HETATM   10  C   UNL     1     -41.036  59.632 -50.413  1.00  0.00     0.120 A 
HETATM   11  N   UNL     1     -42.042  60.458 -50.055  1.00  0.00    -0.237 NA
HETATM   12  C   UNL     1     -42.922  60.789 -51.017  1.00  0.00     0.165 A 
HETATM   13  C   UNL     1     -42.816  60.363 -52.333  1.00  0.00     0.066 A 
BRANCH  12  14
HETATM   14  O   UNL     1     -43.990  61.610 -50.738  1.00  0.00    -0.324 OA
BRANCH  14  15
HETATM   15  C   UNL     1     -45.096  61.105 -49.967  1.00  0.00     0.058 C 
HETATM   16  C   UNL     1     -44.896  61.300 -48.458  1.00  0.00     0.045 C 
HETATM   17  C   UNL     1     -45.466  59.655 -50.324  1.00  0.00     0.045 C 
HETATM   18  C   UNL     1     -46.277  61.998 -50.398  1.00  0.00     0.045 C 
ENDBRANCH  14  15
ENDBRANCH  12  14
ENDBRANCH   7   8
ENDBRANCH   1   7
BRANCH   3  19
HETATM   19  C   UNL     1     -41.092  54.132 -54.753  1.00  0.00     0.095 A 
HETATM   20  C   UNL     1     -41.401  53.164 -53.629  1.00  0.00     0.043 A 
HETATM   21  C   UNL     1     -40.153  53.000 -54.461  1.00  0.00     0.037 A 
BRANCH  20  22
HETATM   22  C   UNL     1     -41.308  53.589 -52.181  1.00  0.00    -0.052 A 
HETATM   23  C   UNL     1     -40.115  53.429 -51.454  1.00  0.00     0.007 A 
HETATM   24  C   UNL     1     -40.017  53.823 -50.118  1.00  0.00     0.001 A 
HETATM   25  C   UNL     1     -41.113  54.399 -49.481  1.00  0.00     0.000 A 
HETATM   26  C   UNL     1     -42.301  54.584 -50.181  1.00  0.00     0.001 A 
HETATM   27  C   UNL     1     -42.393  54.185 -51.517  1.00  0.00     0.007 A 
ENDBRANCH  20  22
ENDBRANCH   3  19
TORSDOF 6
ENDMDL
MODEL 9
REMARK VINA RESULT:      -7.3      1.913      7.311
REMARK  6 active torsions:
REMARK  status: ('A' for Active; 'I' for Inactive)
REMARK    1  A    between atoms: C_2  and  O_3 
REMARK    2  A    between atoms: O_3  and  C_4 
REMARK    3  A    between atoms: C_8  and  C_9 
REMARK    4  A    between atoms: C_9  and  N_10 
REMARK       I    between atoms: N_10  and  C_11 
REMARK       I    between atoms: C_11  and  N_12 
REMARK    5  A    between atoms: N_12  and  C_13 
REMARK    6  A    between atoms: C_14  and  C_15 
ROOT
HETATM    1  N   UNL     1     -43.640  58.046 -54.741  1.00  0.00    -0.339 N 
HETATM    2  C   UNL     1     -42.868  58.642 -55.702  1.00  0.00     0.316 C 
HETATM    3  N   UNL     1     -43.411  58.510 -56.957  1.00  0.00    -0.338 N 
HETATM    4  O   UNL     1     -41.817  59.223 -55.465  1.00  0.00    -0.247 OA
HETATM    5  H   UNL     1     -44.454  57.519 -55.013  1.00  0.00     0.164 HD
HETATM    6  H   UNL     1     -44.387  58.252 -57.016  1.00  0.00     0.164 HD
ENDROOT
BRANCH   1   7
HETATM    7  C   UNL     1     -43.247  58.027 -53.349  1.00  0.00     0.163 C 
BRANCH   7   8
HETATM    8  C   UNL     1     -43.245  56.637 -52.771  1.00  0.00    -0.035 A 
HETATM    9  C   UNL     1     -43.629  56.389 -51.450  1.00  0.00     0.028 A 
HETATM   10  C   UNL     1     -43.545  55.094 -50.964  1.00  0.00     0.120 A 
HETATM   11  N   UNL     1     -43.090  54.046 -51.683  1.00  0.00    -0.237 NA
HETATM   12  C   UNL     1     -42.690  54.305 -52.940  1.00  0.00     0.165 A 
HETATM   13  C   UNL     1     -42.763  55.561 -53.525  1.00  0.00     0.066 A 
BRANCH  12  14
HETATM   14  O   UNL     1     -42.194  53.302 -53.739  1.00  0.00    -0.324 OA
BRANCH  14  15
HETATM   15  C   UNL     1     -40.771  53.093 -53.823  1.00  0.00     0.058 C 
HETATM   16  C   UNL     1     -40.078  53.241 -52.461  1.00  0.00     0.045 C 
HETATM   17  C   UNL     1     -40.100  53.943 -54.914  1.00  0.00     0.045 C 
HETATM   18  C   UNL     1     -40.645  51.617 -54.249  1.00  0.00     0.045 C 
ENDBRANCH  14  15
ENDBRANCH  12  14
ENDBRANCH   7   8
ENDBRANCH   1   7
BRANCH   3  19
HETATM   19  C   UNL     1     -42.825  59.119 -58.119  1.00  0.00     0.095 A 
HETATM   20  C   UNL     1     -43.017  58.555 -59.513  1.00  0.00     0.043 A 
HETATM   21  C   UNL     1     -41.683  58.443 -58.816  1.00  0.00     0.037 A 
BRANCH  20  22
HETATM   22  C   UNL     1     -43.865  57.326 -59.751  1.00  0.00    -0.052 A 
HETATM   23  C   UNL     1     -45.229  57.438 -60.073  1.00  0.00     0.007 A 
HETATM   24  C   UNL     1     -46.019  56.309 -60.300  1.00  0.00     0.001 A 
HETATM   25  C   UNL     1     -45.456  55.038 -60.220  1.00  0.00     0.000 A 
HETATM   26  C   UNL     1     -44.105  54.899 -59.918  1.00  0.00     0.001 A 
HETATM   27  C   UNL     1     -43.319  56.033 -59.690  1.00  0.00     0.007 A 
ENDBRANCH  20  22
ENDBRANCH   3  19
TORSDOF 6
ENDMDL
MODEL 10
REMARK VINA RESULT:      -7.1      1.712      2.392
REMARK  6 active torsions:
REMARK  status: ('A' for Active; 'I' for Inactive)
REMARK    1  A    between atoms: C_2  and  O_3 
REMARK    2  A    between atoms: O_3  and  C_4 
REMARK    3  A    between atoms: C_8  and  C_9 
REMARK    4  A    between atoms: C_9  and  N_10 
REMARK       I    between atoms: N_10  and  C_11 
REMARK       I    between atoms: C_11  and  N_12 
REMARK    5  A    between atoms: N_12  and  C_13 
REMARK    6  A    between atoms: C_14  and  C_15 
ROOT
HETATM    1  N   UNL     1     -41.079  58.098 -53.483  1.00  0.00    -0.339 N 
HETATM    2  C   UNL     1     -41.789  57.590 -52.428  1.00  0.00     0.316 C 
HETATM    3  N   UNL     1     -41.368  56.329 -52.080  1.00  0.00    -0.338 N 
HETATM    4  O   UNL     1     -42.693  58.193 -51.865  1.00  0.00    -0.247 OA
HETATM    5  H   UNL     1     -40.399  57.519 -53.949  1.00  0.00     0.164 HD
HETATM    6  H   UNL     1     -40.465  56.030 -52.422  1.00  0.00     0.164 HD
ENDROOT
BRANCH   1   7
HETATM    7  C   UNL     1     -41.371  59.398 -54.045  1.00  0.00     0.163 C 
BRANCH   7   8
HETATM    8  C   UNL     1     -42.452  59.341 -55.092  1.00  0.00    -0.035 A 
HETATM    9  C   UNL     1     -43.491  60.275 -55.127  1.00  0.00     0.028 A 
HETATM   10  C   UNL     1     -44.487  60.128 -56.080  1.00  0.00     0.120 A 
HETATM   11  N   UNL     1     -44.532  59.118 -56.974  1.00  0.00    -0.237 NA
HETATM   12  C   UNL     1     -43.546  58.206 -56.905  1.00  0.00     0.165 A 
HETATM   13  C   UNL     1     -42.492  58.283 -56.007  1.00  0.00     0.066 A 
BRANCH  12  14
HETATM   14  O   UNL     1     -43.522  57.132 -57.764  1.00  0.00    -0.324 OA
BRANCH  14  15
HETATM   15  C   UNL     1     -43.195  57.333 -59.152  1.00  0.00     0.058 C 
HETATM   16  C   UNL     1     -42.039  58.326 -59.341  1.00  0.00     0.045 C 
HETATM   17  C   UNL     1     -44.417  57.691 -60.013  1.00  0.00     0.045 C 
HETATM   18  C   UNL     1     -42.698  55.949 -59.613  1.00  0.00     0.045 C 
ENDBRANCH  14  15
ENDBRANCH  12  14
ENDBRANCH   7   8
ENDBRANCH   1   7
BRANCH   3  19
HETATM   19  C   UNL     1     -41.908  55.619 -50.954  1.00  0.00     0.095 A 
HETATM   20  C   UNL     1     -41.808  54.113 -50.822  1.00  0.00     0.043 A 
HETATM   21  C   UNL     1     -43.132  54.771 -51.126  1.00  0.00     0.037 A 
BRANCH  20  22
HETATM   22  C   UNL     1     -41.106  53.280 -51.870  1.00  0.00    -0.052 A 
HETATM   23  C   UNL     1     -40.027  52.445 -51.530  1.00  0.00     0.007 A 
HETATM   24  C   UNL     1     -39.376  51.667 -52.490  1.00  0.00     0.001 A 
HETATM   25  C   UNL     1     -39.799  51.700 -53.815  1.00  0.00     0.000 A 
HETATM   26  C   UNL     1     -40.874  52.506 -54.178  1.00  0.00     0.001 A 
HETATM   27  C   UNL     1     -41.521  53.283 -53.213  1.00  0.00     0.007 A 
ENDBRANCH  20  22
ENDBRANCH   3  19
TORSDOF 6
ENDMDL
