MODEL 1
REMARK VINA RESULT:      -8.1      0.000      0.000
REMARK  3 active torsions:
REMARK  status: ('A' for Active; 'I' for Inactive)
REMARK    1  A    between atoms: C_6  and  C_7 
REMARK       I    between atoms: C_7  and  N_8 
REMARK    2  A    between atoms: N_8  and  C_9 
REMARK    3  A    between atoms: C_14  and  C_15 
ROOT
HETATM    1  C   UNL     1     -41.981  56.716 -50.872  1.00  0.00     0.037 A 
HETATM    2  C   UNL     1     -42.075  55.887 -51.997  1.00  0.00     0.061 A 
HETATM    3  C   UNL     1     -41.358  54.686 -51.968  1.00  0.00     0.065 A 
HETATM    4  C   UNL     1     -40.564  54.290 -50.899  1.00  0.00     0.086 A 
HETATM    5  N   UNL     1     -39.975  53.074 -51.144  1.00  0.00    -0.226 NA
HETATM    6  C   UNL     1     -40.402  52.717 -52.339  1.00  0.00     0.163 A 
HETATM    7  N   UNL     1     -41.238  53.662 -52.871  1.00  0.00    -0.337 N 
HETATM    8  H   UNL     1     -41.683  53.599 -53.776  1.00  0.00     0.167 HD
HETATM    9  C   UNL     1     -40.471  55.126 -49.779  1.00  0.00     0.036 A 
HETATM   10  C   UNL     1     -41.186  56.335 -49.780  1.00  0.00     0.032 A 
ENDROOT
BRANCH   1  11
HETATM   11  N   UNL     1     -42.650  57.952 -50.774  1.00  0.00    -0.321 N 
HETATM   12  C   UNL     1     -42.262  59.163 -51.315  1.00  0.00     0.280 C 
HETATM   13  O   UNL     1     -41.306  59.410 -52.032  1.00  0.00    -0.265 OA
HETATM   14  H   UNL     1     -43.551  57.959 -50.306  1.00  0.00     0.169 HD
BRANCH  12  15
HETATM   15  C   UNL     1     -43.224  60.284 -50.966  1.00  0.00     0.193 A 
HETATM   16  C   UNL     1     -44.725  60.053 -50.942  1.00  0.00     0.280 A 
HETATM   17  N   UNL     1     -45.457  61.141 -50.534  1.00  0.00    -0.324 N 
HETATM   18  O   UNL     1     -45.230  59.003 -51.301  1.00  0.00    -0.265 OA
HETATM   19  C   UNL     1     -44.879  62.350 -50.232  1.00  0.00     0.033 A 
HETATM   20  H   UNL     1     -46.461  61.015 -50.500  1.00  0.00     0.169 HD
HETATM   21  C   UNL     1     -45.818  63.446 -49.815  1.00  0.00     0.070 C 
HETATM   22  C   UNL     1     -43.537  62.483 -50.335  1.00  0.00     0.054 A 
HETATM   23  N   UNL     1     -42.694  61.455 -50.713  1.00  0.00    -0.241 NA
HETATM   24  C   UNL     1     -42.809  63.766 -50.015  1.00  0.00     0.072 C 
ENDBRANCH  12  15
ENDBRANCH   1  11
BRANCH   6  25
HETATM   25  C   UNL     1     -40.066  51.513 -53.028  1.00  0.00     0.120 A 
HETATM   26  O   UNL     1     -39.584  50.398 -52.385  1.00  0.00    -0.319 OA
HETATM   27  C   UNL     1     -39.366  49.445 -53.326  1.00  0.00     0.142 A 
HETATM   28  C   UNL     1     -39.700  49.913 -54.573  1.00  0.00     0.027 A 
HETATM   29  C   UNL     1     -40.148  51.242 -54.382  1.00  0.00     0.043 A 
ENDBRANCH   6  25
TORSDOF 3
ENDMDL
MODEL 2
REMARK VINA RESULT:      -8.0      2.001      3.134
REMARK  3 active torsions:
REMARK  status: ('A' for Active; 'I' for Inactive)
REMARK    1  A    between atoms: C_6  and  C_7 
REMARK       I    between atoms: C_7  and  N_8 
REMARK    2  A    between atoms: N_8  and  C_9 
REMARK    3  A    between atoms: C_14  and  C_15 
ROOT
HETATM    1  C   UNL     1     -43.743  57.912 -51.600  1.00  0.00     0.037 A 
HETATM    2  C   UNL     1     -42.800  56.990 -51.127  1.00  0.00     0.061 A 
HETATM    3  C   UNL     1     -42.469  55.925 -51.971  1.00  0.00     0.065 A 
HETATM    4  C   UNL     1     -43.028  55.738 -53.229  1.00  0.00     0.086 A 
HETATM    5  N   UNL     1     -42.524  54.611 -53.833  1.00  0.00    -0.226 NA
HETATM    6  C   UNL     1     -41.663  54.113 -52.969  1.00  0.00     0.163 A 
HETATM    7  N   UNL     1     -41.600  54.874 -51.832  1.00  0.00    -0.337 N 
HETATM    8  H   UNL     1     -41.007  54.682 -51.037  1.00  0.00     0.167 HD
HETATM    9  C   UNL     1     -43.973  56.662 -53.694  1.00  0.00     0.036 A 
HETATM   10  C   UNL     1     -44.318  57.744 -52.869  1.00  0.00     0.032 A 
ENDROOT
BRANCH   1  11
HETATM   11  N   UNL     1     -44.165  59.027 -50.850  1.00  0.00    -0.321 N 
HETATM   12  C   UNL     1     -45.431  59.275 -50.352  1.00  0.00     0.280 C 
HETATM   13  O   UNL     1     -46.424  58.568 -50.400  1.00  0.00    -0.265 OA
HETATM   14  H   UNL     1     -43.458  59.707 -50.586  1.00  0.00     0.169 HD
BRANCH  12  15
HETATM   15  C   UNL     1     -45.511  60.603 -49.621  1.00  0.00     0.193 A 
HETATM   16  C   UNL     1     -45.070  61.895 -50.285  1.00  0.00     0.280 A 
HETATM   17  N   UNL     1     -45.275  63.019 -49.524  1.00  0.00    -0.324 N 
HETATM   18  O   UNL     1     -44.536  61.916 -51.381  1.00  0.00    -0.265 OA
HETATM   19  C   UNL     1     -45.783  62.967 -48.249  1.00  0.00     0.033 A 
HETATM   20  H   UNL     1     -44.999  63.898 -49.944  1.00  0.00     0.169 HD
HETATM   21  C   UNL     1     -45.934  64.284 -47.542  1.00  0.00     0.070 C 
HETATM   22  C   UNL     1     -46.097  61.765 -47.714  1.00  0.00     0.054 A 
HETATM   23  N   UNL     1     -45.955  60.567 -48.389  1.00  0.00    -0.241 NA
HETATM   24  C   UNL     1     -46.669  61.605 -46.327  1.00  0.00     0.072 C 
ENDBRANCH  12  15
ENDBRANCH   1  11
BRANCH   6  25
HETATM   25  C   UNL     1     -40.875  52.937 -53.150  1.00  0.00     0.120 A 
HETATM   26  O   UNL     1     -40.110  52.392 -52.147  1.00  0.00    -0.319 OA
HETATM   27  C   UNL     1     -39.491  51.296 -52.652  1.00  0.00     0.142 A 
HETATM   28  C   UNL     1     -39.839  51.109 -53.967  1.00  0.00     0.027 A 
HETATM   29  C   UNL     1     -40.726  52.164 -54.289  1.00  0.00     0.043 A 
ENDBRANCH   6  25
TORSDOF 3
ENDMDL
MODEL 3
REMARK VINA RESULT:      -7.8      5.984      7.002
REMARK  3 active torsions:
REMARK  status: ('A' for Active; 'I' for Inactive)
REMARK    1  A    between atoms: C_6  and  C_7 
REMARK       I    between atoms: C_7  and  N_8 
REMARK    2  A    between atoms: N_8  and  C_9 
REMARK    3  A    between atoms: C_14  and  C_15 
ROOT
HETATM    1  C   UNL     1     -42.879  55.802 -55.934  1.00  0.00     0.037 A 
HETATM    2  C   UNL     1     -42.859  54.417 -55.728  1.00  0.00     0.061 A 
HETATM    3  C   UNL     1     -41.949  53.923 -54.787  1.00  0.00     0.065 A 
HETATM    4  C   UNL     1     -41.074  54.728 -54.068  1.00  0.00     0.086 A 
HETATM    5  N   UNL     1     -40.295  53.978 -53.221  1.00  0.00    -0.226 NA
HETATM    6  C   UNL     1     -40.683  52.733 -53.405  1.00  0.00     0.163 A 
HETATM    7  N   UNL     1     -41.679  52.655 -54.342  1.00  0.00    -0.337 N 
HETATM    8  H   UNL     1     -42.129  51.801 -54.641  1.00  0.00     0.167 HD
HETATM    9  C   UNL     1     -41.096  56.112 -54.282  1.00  0.00     0.036 A 
HETATM   10  C   UNL     1     -42.005  56.634 -55.217  1.00  0.00     0.032 A 
ENDROOT
BRANCH   1  11
HETATM   11  N   UNL     1     -43.744  56.427 -56.853  1.00  0.00    -0.321 N 
HETATM   12  C   UNL     1     -43.649  56.424 -58.232  1.00  0.00     0.280 C 
HETATM   13  O   UNL     1     -42.846  55.842 -58.943  1.00  0.00    -0.265 OA
HETATM   14  H   UNL     1     -44.570  56.885 -56.480  1.00  0.00     0.169 HD
BRANCH  12  15
HETATM   15  C   UNL     1     -44.750  57.239 -58.886  1.00  0.00     0.193 A 
HETATM   16  C   UNL     1     -44.865  58.735 -58.655  1.00  0.00     0.280 A 
HETATM   17  N   UNL     1     -45.865  59.343 -59.374  1.00  0.00    -0.324 N 
HETATM   18  O   UNL     1     -44.156  59.329 -57.860  1.00  0.00    -0.265 OA
HETATM   19  C   UNL     1     -46.722  58.641 -60.187  1.00  0.00     0.033 A 
HETATM   20  H   UNL     1     -45.960  60.343 -59.247  1.00  0.00     0.169 HD
HETATM   21  C   UNL     1     -47.771  59.450 -60.895  1.00  0.00     0.070 C 
HETATM   22  C   UNL     1     -46.583  57.300 -60.290  1.00  0.00     0.054 A 
HETATM   23  N   UNL     1     -45.602  56.581 -59.633  1.00  0.00    -0.241 NA
HETATM   24  C   UNL     1     -47.467  56.445 -61.164  1.00  0.00     0.072 C 
ENDBRANCH  12  15
ENDBRANCH   1  11
BRANCH   6  25
HETATM   25  C   UNL     1     -40.166  51.582 -52.738  1.00  0.00     0.120 A 
HETATM   26  O   UNL     1     -39.965  50.381 -53.373  1.00  0.00    -0.319 OA
HETATM   27  C   UNL     1     -39.474  49.509 -52.457  1.00  0.00     0.142 A 
HETATM   28  C   UNL     1     -39.346  50.117 -51.233  1.00  0.00     0.027 A 
HETATM   29  C   UNL     1     -39.792  51.449 -51.412  1.00  0.00     0.043 A 
ENDBRANCH   6  25
TORSDOF 3
ENDMDL
MODEL 4
REMARK VINA RESULT:      -7.7      1.532      2.107
REMARK  3 active torsions:
REMARK  status: ('A' for Active; 'I' for Inactive)
REMARK    1  A    between atoms: C_6  and  C_7 
REMARK       I    between atoms: C_7  and  N_8 
REMARK    2  A    between atoms: N_8  and  C_9 
REMARK    3  A    between atoms: C_14  and  C_15 
ROOT
HETATM    1  C   UNL     1     -42.222  57.724 -51.802  1.00  0.00     0.037 A 
HETATM    2  C   UNL     1     -42.248  56.390 -51.375  1.00  0.00     0.061 A 
HETATM    3  C   UNL     1     -41.607  55.447 -52.184  1.00  0.00     0.065 A 
HETATM    4  C   UNL     1     -40.966  55.764 -53.375  1.00  0.00     0.086 A 
HETATM    5  N   UNL     1     -40.430  54.644 -53.962  1.00  0.00    -0.226 NA
HETATM    6  C   UNL     1     -40.726  53.651 -53.148  1.00  0.00     0.163 A 
HETATM    7  N   UNL     1     -41.436  54.092 -52.063  1.00  0.00    -0.337 N 
HETATM    8  H   UNL     1     -41.768  53.506 -51.310  1.00  0.00     0.167 HD
HETATM    9  C   UNL     1     -40.947  57.099 -53.799  1.00  0.00     0.036 A 
HETATM   10  C   UNL     1     -41.578  58.067 -53.001  1.00  0.00     0.032 A 
ENDROOT
BRANCH   1  11
HETATM   11  N   UNL     1     -42.830  58.770 -51.083  1.00  0.00    -0.321 N 
HETATM   12  C   UNL     1     -44.003  59.433 -51.392  1.00  0.00     0.280 C 
HETATM   13  O   UNL     1     -44.784  59.220 -52.305  1.00  0.00    -0.265 OA
HETATM   14  H   UNL     1     -42.403  59.041 -50.201  1.00  0.00     0.169 HD
BRANCH  12  15
HETATM   15  C   UNL     1     -44.324  60.531 -50.395  1.00  0.00     0.193 A 
HETATM   16  C   UNL     1     -45.380  60.336 -49.321  1.00  0.00     0.280 A 
HETATM   17  N   UNL     1     -45.501  61.390 -48.450  1.00  0.00    -0.324 N 
HETATM   18  O   UNL     1     -46.088  59.344 -49.275  1.00  0.00    -0.265 OA
HETATM   19  C   UNL     1     -44.767  62.544 -48.579  1.00  0.00     0.033 A 
HETATM   20  H   UNL     1     -46.192  61.285 -47.717  1.00  0.00     0.169 HD
HETATM   21  C   UNL     1     -45.026  63.610 -47.552  1.00  0.00     0.070 C 
HETATM   22  C   UNL     1     -43.888  62.655 -49.600  1.00  0.00     0.054 A 
HETATM   23  N   UNL     1     -43.663  61.655 -50.527  1.00  0.00    -0.241 NA
HETATM   24  C   UNL     1     -43.029  63.877 -49.819  1.00  0.00     0.072 C 
ENDBRANCH  12  15
ENDBRANCH   1  11
BRANCH   6  25
HETATM   25  C   UNL     1     -40.372  52.280 -53.328  1.00  0.00     0.120 A 
HETATM   26  O   UNL     1     -40.765  51.548 -54.422  1.00  0.00    -0.319 OA
HETATM   27  C   UNL     1     -40.268  50.295 -54.278  1.00  0.00     0.142 A 
HETATM   28  C   UNL     1     -39.552  50.192 -53.111  1.00  0.00     0.027 A 
HETATM   29  C   UNL     1     -39.620  51.466 -52.499  1.00  0.00     0.043 A 
ENDBRANCH   6  25
TORSDOF 3
ENDMDL
MODEL 5
REMARK VINA RESULT:      -7.6      5.991      7.581
REMARK  3 active torsions:
REMARK  status: ('A' for Active; 'I' for Inactive)
REMARK    1  A    between atoms: C_6  and  C_7 
REMARK       I    between atoms: C_7  and  N_8 
REMARK    2  A    between atoms: N_8  and  C_9 
REMARK    3  A    between atoms: C_14  and  C_15 
ROOT
HETATM    1  C   UNL     1     -42.786  55.171 -55.805  1.00  0.00     0.037 A 
HETATM    2  C   UNL     1     -43.221  55.215 -54.474  1.00  0.00     0.061 A 
HETATM    3  C   UNL     1     -42.301  54.843 -53.488  1.00  0.00     0.065 A 
HETATM    4  C   UNL     1     -41.003  54.431 -53.763  1.00  0.00     0.086 A 
HETATM    5  N   UNL     1     -40.326  54.123 -52.608  1.00  0.00    -0.226 NA
HETATM    6  C   UNL     1     -41.185  54.346 -51.634  1.00  0.00     0.163 A 
HETATM    7  N   UNL     1     -42.389  54.781 -52.122  1.00  0.00    -0.337 N 
HETATM    8  H   UNL     1     -43.194  55.015 -51.557  1.00  0.00     0.167 HD
HETATM    9  C   UNL     1     -40.576  54.386 -55.096  1.00  0.00     0.036 A 
HETATM   10  C   UNL     1     -41.478  54.760 -56.105  1.00  0.00     0.032 A 
ENDROOT
BRANCH   1  11
HETATM   11  N   UNL     1     -43.611  55.517 -56.892  1.00  0.00    -0.321 N 
HETATM   12  C   UNL     1     -43.513  56.635 -57.699  1.00  0.00     0.280 C 
HETATM   13  O   UNL     1     -42.671  57.518 -57.685  1.00  0.00    -0.265 OA
HETATM   14  H   UNL     1     -44.328  54.851 -57.165  1.00  0.00     0.169 HD
BRANCH  12  15
HETATM   15  C   UNL     1     -44.607  56.683 -58.751  1.00  0.00     0.193 A 
HETATM   16  C   UNL     1     -44.791  55.553 -59.748  1.00  0.00     0.280 A 
HETATM   17  N   UNL     1     -45.868  55.707 -60.584  1.00  0.00    -0.324 N 
HETATM   18  O   UNL     1     -44.014  54.616 -59.822  1.00  0.00    -0.265 OA
HETATM   19  C   UNL     1     -46.674  56.820 -60.556  1.00  0.00     0.033 A 
HETATM   20  H   UNL     1     -46.021  54.964 -61.255  1.00  0.00     0.169 HD
HETATM   21  C   UNL     1     -47.803  56.844 -61.545  1.00  0.00     0.070 C 
HETATM   22  C   UNL     1     -46.402  57.807 -59.671  1.00  0.00     0.054 A 
HETATM   23  N   UNL     1     -45.360  57.756 -58.765  1.00  0.00    -0.241 NA
HETATM   24  C   UNL     1     -47.233  59.061 -59.556  1.00  0.00     0.072 C 
ENDBRANCH  12  15
ENDBRANCH   1  11
BRANCH   6  25
HETATM   25  C   UNL     1     -40.939  54.175 -50.239  1.00  0.00     0.120 A 
HETATM   26  O   UNL     1     -40.411  53.020 -49.713  1.00  0.00    -0.319 OA
HETATM   27  C   UNL     1     -40.313  53.188 -48.371  1.00  0.00     0.142 A 
HETATM   28  C   UNL     1     -40.762  54.434 -48.007  1.00  0.00     0.027 A 
HETATM   29  C   UNL     1     -41.166  55.067 -49.206  1.00  0.00     0.043 A 
ENDBRANCH   6  25
TORSDOF 3
ENDMDL
MODEL 6
REMARK VINA RESULT:      -7.4      2.070      9.698
REMARK  3 active torsions:
REMARK  status: ('A' for Active; 'I' for Inactive)
REMARK    1  A    between atoms: C_6  and  C_7 
REMARK       I    between atoms: C_7  and  N_8 
REMARK    2  A    between atoms: N_8  and  C_9 
REMARK    3  A    between atoms: C_14  and  C_15 
ROOT
HETATM    1  C   UNL     1     -41.949  56.920 -51.973  1.00  0.00     0.037 A 
HETATM    2  C   UNL     1     -43.214  57.173 -51.428  1.00  0.00     0.061 A 
HETATM    3  C   UNL     1     -43.524  58.502 -51.118  1.00  0.00     0.065 A 
HETATM    4  C   UNL     1     -42.647  59.561 -51.314  1.00  0.00     0.086 A 
HETATM    5  N   UNL     1     -43.210  60.750 -50.919  1.00  0.00    -0.226 NA
HETATM    6  C   UNL     1     -44.417  60.436 -50.493  1.00  0.00     0.163 A 
HETATM    7  N   UNL     1     -44.646  59.089 -50.595  1.00  0.00    -0.337 N 
HETATM    8  H   UNL     1     -45.503  58.625 -50.328  1.00  0.00     0.167 HD
HETATM    9  C   UNL     1     -41.381  59.301 -51.856  1.00  0.00     0.036 A 
HETATM   10  C   UNL     1     -41.048  57.976 -52.181  1.00  0.00     0.032 A 
ENDROOT
BRANCH   1  11
HETATM   11  N   UNL     1     -41.512  55.629 -52.326  1.00  0.00    -0.321 N 
HETATM   12  C   UNL     1     -40.814  54.733 -51.538  1.00  0.00     0.280 C 
HETATM   13  O   UNL     1     -40.483  54.839 -50.369  1.00  0.00    -0.265 OA
HETATM   14  H   UNL     1     -41.784  55.277 -53.239  1.00  0.00     0.169 HD
BRANCH  12  15
HETATM   15  C   UNL     1     -40.487  53.449 -52.279  1.00  0.00     0.193 A 
HETATM   16  C   UNL     1     -40.538  53.380 -53.795  1.00  0.00     0.280 A 
HETATM   17  N   UNL     1     -40.143  52.174 -54.319  1.00  0.00    -0.324 N 
HETATM   18  O   UNL     1     -40.942  54.307 -54.477  1.00  0.00    -0.265 OA
HETATM   19  C   UNL     1     -39.788  51.106 -53.531  1.00  0.00     0.033 A 
HETATM   20  H   UNL     1     -40.158  52.101 -55.329  1.00  0.00     0.169 HD
HETATM   21  C   UNL     1     -39.393  49.852 -54.257  1.00  0.00     0.070 C 
HETATM   22  C   UNL     1     -39.826  51.239 -52.186  1.00  0.00     0.054 A 
HETATM   23  N   UNL     1     -40.186  52.408 -51.543  1.00  0.00    -0.241 NA
HETATM   24  C   UNL     1     -39.446  50.128 -51.238  1.00  0.00     0.072 C 
ENDBRANCH  12  15
ENDBRANCH   1  11
BRANCH   6  25
HETATM   25  C   UNL     1     -45.393  61.344 -49.984  1.00  0.00     0.120 A 
HETATM   26  O   UNL     1     -45.889  61.265 -48.706  1.00  0.00    -0.319 OA
HETATM   27  C   UNL     1     -46.792  62.265 -48.553  1.00  0.00     0.142 A 
HETATM   28  C   UNL     1     -46.895  63.002 -49.707  1.00  0.00     0.027 A 
HETATM   29  C   UNL     1     -45.998  62.410 -50.627  1.00  0.00     0.043 A 
ENDBRANCH   6  25
TORSDOF 3
ENDMDL
MODEL 7
REMARK VINA RESULT:      -7.4      2.219      2.421
REMARK  3 active torsions:
REMARK  status: ('A' for Active; 'I' for Inactive)
REMARK    1  A    between atoms: C_6  and  C_7 
REMARK       I    between atoms: C_7  and  N_8 
REMARK    2  A    between atoms: N_8  and  C_9 
REMARK    3  A    between atoms: C_14  and  C_15 
ROOT
HETATM    1  C   UNL     1     -41.880  57.238 -52.244  1.00  0.00     0.037 A 
HETATM    2  C   UNL     1     -41.708  56.291 -53.262  1.00  0.00     0.061 A 
HETATM    3  C   UNL     1     -41.213  55.037 -52.891  1.00  0.00     0.065 A 
HETATM    4  C   UNL     1     -40.882  54.695 -51.586  1.00  0.00     0.086 A 
HETATM    5  N   UNL     1     -40.417  53.405 -51.514  1.00  0.00    -0.226 NA
HETATM    6  C   UNL     1     -40.466  52.950 -52.750  1.00  0.00     0.163 A 
HETATM    7  N   UNL     1     -40.941  53.903 -53.613  1.00  0.00    -0.337 N 
HETATM    8  H   UNL     1     -41.064  53.776 -54.607  1.00  0.00     0.167 HD
HETATM    9  C   UNL     1     -41.052  55.648 -50.573  1.00  0.00     0.036 A 
HETATM   10  C   UNL     1     -41.554  56.914 -50.918  1.00  0.00     0.032 A 
ENDROOT
BRANCH   1  11
HETATM   11  N   UNL     1     -42.368  58.537 -52.481  1.00  0.00    -0.321 N 
HETATM   12  C   UNL     1     -41.719  59.575 -53.124  1.00  0.00     0.280 C 
HETATM   13  O   UNL     1     -40.627  59.574 -53.668  1.00  0.00    -0.265 OA
HETATM   14  H   UNL     1     -43.327  58.733 -52.209  1.00  0.00     0.169 HD
BRANCH  12  15
HETATM   15  C   UNL     1     -42.554  60.842 -53.159  1.00  0.00     0.193 A 
HETATM   16  C   UNL     1     -43.092  61.465 -51.883  1.00  0.00     0.280 A 
HETATM   17  N   UNL     1     -43.763  62.648 -52.072  1.00  0.00    -0.324 N 
HETATM   18  O   UNL     1     -42.974  60.928 -50.794  1.00  0.00    -0.265 OA
HETATM   19  C   UNL     1     -43.976  63.187 -53.318  1.00  0.00     0.033 A 
HETATM   20  H   UNL     1     -44.126  63.092 -51.237  1.00  0.00     0.169 HD
HETATM   21  C   UNL     1     -44.739  64.480 -53.357  1.00  0.00     0.070 C 
HETATM   22  C   UNL     1     -43.509  62.534 -54.406  1.00  0.00     0.054 A 
HETATM   23  N   UNL     1     -42.802  61.349 -54.341  1.00  0.00    -0.241 NA
HETATM   24  C   UNL     1     -43.683  63.050 -55.814  1.00  0.00     0.072 C 
ENDBRANCH  12  15
ENDBRANCH   1  11
BRANCH   6  25
HETATM   25  C   UNL     1     -40.089  51.644 -53.183  1.00  0.00     0.120 A 
HETATM   26  O   UNL     1     -40.175  51.240 -54.493  1.00  0.00    -0.319 OA
HETATM   27  C   UNL     1     -39.747  49.954 -54.555  1.00  0.00     0.142 A 
HETATM   28  C   UNL     1     -39.378  49.508 -53.310  1.00  0.00     0.027 A 
HETATM   29  C   UNL     1     -39.599  50.592 -52.427  1.00  0.00     0.043 A 
ENDBRANCH   6  25
TORSDOF 3
ENDMDL
MODEL 8
REMARK VINA RESULT:      -7.3      5.610      6.505
REMARK  3 active torsions:
REMARK  status: ('A' for Active; 'I' for Inactive)
REMARK    1  A    between atoms: C_6  and  C_7 
REMARK       I    between atoms: C_7  and  N_8 
REMARK    2  A    between atoms: N_8  and  C_9 
REMARK    3  A    between atoms: C_14  and  C_15 
ROOT
HETATM    1  C   UNL     1     -41.651  56.198 -55.446  1.00  0.00     0.037 A 
HETATM    2  C   UNL     1     -41.299  54.850 -55.587  1.00  0.00     0.061 A 
HETATM    3  C   UNL     1     -40.975  54.148 -54.421  1.00  0.00     0.065 A 
HETATM    4  C   UNL     1     -40.977  54.718 -53.155  1.00  0.00     0.086 A 
HETATM    5  N   UNL     1     -40.615  53.801 -52.198  1.00  0.00    -0.226 NA
HETATM    6  C   UNL     1     -40.400  52.681 -52.857  1.00  0.00     0.163 A 
HETATM    7  N   UNL     1     -40.606  52.846 -54.201  1.00  0.00    -0.337 N 
HETATM    8  H   UNL     1     -40.500  52.122 -54.898  1.00  0.00     0.167 HD
HETATM    9  C   UNL     1     -41.326  56.068 -53.021  1.00  0.00     0.036 A 
HETATM   10  C   UNL     1     -41.662  56.794 -54.175  1.00  0.00     0.032 A 
ENDROOT
BRANCH   1  11
HETATM   11  N   UNL     1     -41.997  57.017 -56.537  1.00  0.00    -0.321 N 
HETATM   12  C   UNL     1     -42.859  56.716 -57.576  1.00  0.00     0.280 C 
HETATM   13  O   UNL     1     -43.541  55.717 -57.738  1.00  0.00    -0.265 OA
HETATM   14  H   UNL     1     -41.626  57.963 -56.548  1.00  0.00     0.169 HD
BRANCH  12  15
HETATM   15  C   UNL     1     -42.954  57.841 -58.590  1.00  0.00     0.193 A 
HETATM   16  C   UNL     1     -42.520  57.640 -60.031  1.00  0.00     0.280 A 
HETATM   17  N   UNL     1     -42.738  58.726 -60.843  1.00  0.00    -0.324 N 
HETATM   18  O   UNL     1     -41.982  56.615 -60.414  1.00  0.00    -0.265 OA
HETATM   19  C   UNL     1     -43.251  59.910 -60.372  1.00  0.00     0.033 A 
HETATM   20  H   UNL     1     -42.467  58.618 -61.812  1.00  0.00     0.169 HD
HETATM   21  C   UNL     1     -43.416  61.008 -61.384  1.00  0.00     0.070 C 
HETATM   22  C   UNL     1     -43.557  60.020 -59.059  1.00  0.00     0.054 A 
HETATM   23  N   UNL     1     -43.403  58.991 -58.150  1.00  0.00    -0.241 NA
HETATM   24  C   UNL     1     -44.135  61.274 -58.450  1.00  0.00     0.072 C 
ENDBRANCH  12  15
ENDBRANCH   1  11
BRANCH   6  25
HETATM   25  C   UNL     1     -40.006  51.432 -52.289  1.00  0.00     0.120 A 
HETATM   26  O   UNL     1     -39.783  50.308 -53.046  1.00  0.00    -0.319 OA
HETATM   27  C   UNL     1     -39.432  49.307 -52.201  1.00  0.00     0.142 A 
HETATM   28  C   UNL     1     -39.417  49.755 -50.903  1.00  0.00     0.027 A 
HETATM   29  C   UNL     1     -39.787  51.120 -50.959  1.00  0.00     0.043 A 
ENDBRANCH   6  25
TORSDOF 3
ENDMDL
MODEL 9
REMARK VINA RESULT:      -7.2     16.782     19.928
REMARK  3 active torsions:
REMARK  status: ('A' for Active; 'I' for Inactive)
REMARK    1  A    between atoms: C_6  and  C_7 
REMARK       I    between atoms: C_7  and  N_8 
REMARK    2  A    between atoms: N_8  and  C_9 
REMARK    3  A    between atoms: C_14  and  C_15 
ROOT
HETATM    1  C   UNL     1     -33.726  39.637 -50.565  1.00  0.00     0.037 A 
HETATM    2  C   UNL     1     -32.675  40.335 -49.959  1.00  0.00     0.061 A 
HETATM    3  C   UNL     1     -32.151  39.802 -48.776  1.00  0.00     0.065 A 
HETATM    4  C   UNL     1     -32.622  38.639 -48.182  1.00  0.00     0.086 A 
HETATM    5  N   UNL     1     -31.928  38.354 -47.031  1.00  0.00    -0.226 NA
HETATM    6  C   UNL     1     -31.038  39.318 -46.917  1.00  0.00     0.163 A 
HETATM    7  N   UNL     1     -31.138  40.213 -47.949  1.00  0.00    -0.337 N 
HETATM    8  H   UNL     1     -30.555  41.030 -48.067  1.00  0.00     0.167 HD
HETATM    9  C   UNL     1     -33.677  37.947 -48.792  1.00  0.00     0.036 A 
HETATM   10  C   UNL     1     -34.217  38.457 -49.983  1.00  0.00     0.032 A 
ENDROOT
BRANCH   1  11
HETATM   11  N   UNL     1     -34.344  40.065 -51.756  1.00  0.00    -0.321 N 
HETATM   12  C   UNL     1     -33.729  40.408 -52.946  1.00  0.00     0.280 C 
HETATM   13  O   UNL     1     -32.546  40.356 -53.238  1.00  0.00    -0.265 OA
HETATM   14  H   UNL     1     -35.359  40.072 -51.779  1.00  0.00     0.169 HD
BRANCH  12  15
HETATM   15  C   UNL     1     -34.725  40.856 -54.000  1.00  0.00     0.193 A 
HETATM   16  C   UNL     1     -35.671  42.017 -53.746  1.00  0.00     0.280 A 
HETATM   17  N   UNL     1     -36.457  42.350 -54.821  1.00  0.00    -0.324 N 
HETATM   18  O   UNL     1     -35.751  42.568 -52.661  1.00  0.00    -0.265 OA
HETATM   19  C   UNL     1     -36.428  41.651 -56.004  1.00  0.00     0.033 A 
HETATM   20  H   UNL     1     -37.092  43.127 -54.684  1.00  0.00     0.169 HD
HETATM   21  C   UNL     1     -37.360  42.132 -57.079  1.00  0.00     0.070 C 
HETATM   22  C   UNL     1     -35.594  40.593 -56.123  1.00  0.00     0.054 A 
HETATM   23  N   UNL     1     -34.740  40.176 -55.120  1.00  0.00    -0.241 NA
HETATM   24  C   UNL     1     -35.482  39.770 -57.383  1.00  0.00     0.072 C 
ENDBRANCH  12  15
ENDBRANCH   1  11
BRANCH   6  25
HETATM   25  C   UNL     1     -30.072  39.453 -45.875  1.00  0.00     0.120 A 
HETATM   26  O   UNL     1     -28.816  38.901 -45.948  1.00  0.00    -0.319 OA
HETATM   27  C   UNL     1     -28.164  39.211 -44.800  1.00  0.00     0.142 A 
HETATM   28  C   UNL     1     -28.967  39.961 -43.977  1.00  0.00     0.027 A 
HETATM   29  C   UNL     1     -30.194  40.115 -44.666  1.00  0.00     0.043 A 
ENDBRANCH   6  25
TORSDOF 3
ENDMDL
MODEL 10
REMARK VINA RESULT:      -7.2     16.845     19.804
REMARK  3 active torsions:
REMARK  status: ('A' for Active; 'I' for Inactive)
REMARK    1  A    between atoms: C_6  and  C_7 
REMARK       I    between atoms: C_7  and  N_8 
REMARK    2  A    between atoms: N_8  and  C_9 
REMARK    3  A    between atoms: C_14  and  C_15 
ROOT
HETATM    1  C   UNL     1     -34.481  40.648 -51.958  1.00  0.00     0.037 A 
HETATM    2  C   UNL     1     -34.560  39.946 -53.168  1.00  0.00     0.061 A 
HETATM    3  C   UNL     1     -35.226  40.570 -54.227  1.00  0.00     0.065 A 
HETATM    4  C   UNL     1     -35.810  41.827 -54.135  1.00  0.00     0.086 A 
HETATM    5  N   UNL     1     -36.397  42.189 -55.323  1.00  0.00    -0.226 NA
HETATM    6  C   UNL     1     -36.175  41.180 -56.140  1.00  0.00     0.163 A 
HETATM    7  N   UNL     1     -35.472  40.182 -55.519  1.00  0.00    -0.337 N 
HETATM    8  H   UNL     1     -35.190  39.314 -55.953  1.00  0.00     0.167 HD
HETATM    9  C   UNL     1     -35.731  42.522 -52.921  1.00  0.00     0.036 A 
HETATM   10  C   UNL     1     -35.061  41.921 -51.843  1.00  0.00     0.032 A 
ENDROOT
BRANCH   1  11
HETATM   11  N   UNL     1     -33.841  40.133 -50.815  1.00  0.00    -0.321 N 
HETATM   12  C   UNL     1     -32.481  40.024 -50.589  1.00  0.00     0.280 C 
HETATM   13  O   UNL     1     -31.557  40.399 -51.292  1.00  0.00    -0.265 OA
HETATM   14  H   UNL     1     -34.429  39.861 -50.032  1.00  0.00     0.169 HD
BRANCH  12  15
HETATM   15  C   UNL     1     -32.170  39.385 -49.248  1.00  0.00     0.193 A 
HETATM   16  C   UNL     1     -32.746  38.032 -48.868  1.00  0.00     0.280 A 
HETATM   17  N   UNL     1     -32.312  37.553 -47.657  1.00  0.00    -0.324 N 
HETATM   18  O   UNL     1     -33.562  37.452 -49.565  1.00  0.00    -0.265 OA
HETATM   19  C   UNL     1     -31.473  38.268 -46.837  1.00  0.00     0.033 A 
HETATM   20  H   UNL     1     -32.673  36.649 -47.381  1.00  0.00     0.169 HD
HETATM   21  C   UNL     1     -31.101  37.611 -45.538  1.00  0.00     0.070 C 
HETATM   22  C   UNL     1     -31.052  39.492 -47.231  1.00  0.00     0.054 A 
HETATM   23  N   UNL     1     -31.403  40.069 -48.436  1.00  0.00    -0.241 NA
HETATM   24  C   UNL     1     -30.122  40.347 -46.406  1.00  0.00     0.072 C 
ENDBRANCH  12  15
ENDBRANCH   1  11
BRANCH   6  25
HETATM   25  C   UNL     1     -36.590  41.093 -57.502  1.00  0.00     0.120 A 
HETATM   26  O   UNL     1     -36.765  39.894 -58.152  1.00  0.00    -0.319 OA
HETATM   27  C   UNL     1     -37.154  40.169 -59.422  1.00  0.00     0.142 A 
HETATM   28  C   UNL     1     -37.242  41.525 -59.616  1.00  0.00     0.027 A 
HETATM   29  C   UNL     1     -36.878  42.119 -58.385  1.00  0.00     0.043 A 
ENDBRANCH   6  25
TORSDOF 3
ENDMDL
