MODEL 1
REMARK VINA RESULT:      -9.5      0.000      0.000
REMARK  5 active torsions:
REMARK  status: ('A' for Active; 'I' for Inactive)
REMARK    1  A    between atoms: C_2  and  C_3 
REMARK    2  A    between atoms: C_5  and  N_6 
REMARK       I    between atoms: N_6  and  C_7 
REMARK    3  A    between atoms: C_7  and  C_8 
REMARK    4  A    between atoms: C_16  and  C_17 
REMARK    5  A    between atoms: C_19  and  O_20 
ROOT
HETATM    1  C   UNL     1     -42.250  55.821 -54.416  1.00  0.00     0.047 A 
HETATM    2  C   UNL     1     -42.009  56.631 -53.289  1.00  0.00     0.008 A 
HETATM    3  C   UNL     1     -41.328  56.011 -52.227  1.00  0.00     0.068 A 
HETATM    4  C   UNL     1     -41.075  56.743 -51.076  1.00  0.00     0.032 A 
HETATM    5  C   UNL     1     -41.460  58.080 -50.949  1.00  0.00     0.002 A 
HETATM    6  C   UNL     1     -42.106  58.712 -52.001  1.00  0.00     0.001 A 
HETATM    7  C   UNL     1     -42.377  57.997 -53.166  1.00  0.00     0.015 A 
HETATM    8  N   UNL     1     -40.906  54.735 -52.275  1.00  0.00    -0.248 NA
HETATM    9  C   UNL     1     -41.103  53.985 -53.390  1.00  0.00     0.069 A 
HETATM   10  C   UNL     1     -41.770  54.510 -54.482  1.00  0.00     0.050 A 
ENDROOT
BRANCH   1  11
HETATM   11  C   UNL     1     -43.052  56.258 -55.584  1.00  0.00     0.257 C 
HETATM   12  N   UNL     1     -42.421  56.085 -56.801  1.00  0.00    -0.323 N 
HETATM   13  H   UNL     1     -41.521  55.619 -56.787  1.00  0.00     0.169 HD
HETATM   14  O   UNL     1     -44.135  56.784 -55.370  1.00  0.00    -0.267 OA
BRANCH  12  15
HETATM   15  C   UNL     1     -42.856  56.541 -58.063  1.00  0.00     0.035 A 
HETATM   16  C   UNL     1     -43.792  55.874 -58.858  1.00  0.00     0.044 A 
HETATM   17  C   UNL     1     -44.216  56.425 -60.079  1.00  0.00     0.011 A 
HETATM   18  C   UNL     1     -43.674  57.637 -60.517  1.00  0.00     0.015 A 
HETATM   19  C   UNL     1     -42.730  58.300 -59.735  1.00  0.00     0.003 A 
HETATM   20  C   UNL     1     -42.330  57.759 -58.512  1.00  0.00     0.029 A 
BRANCH  17  21
HETATM   21  C   UNL     1     -45.254  55.697 -60.871  1.00  0.00     0.155 C 
HETATM   22  C   UNL     1     -46.704  56.052 -60.670  1.00  0.00     0.096 C 
HETATM   23  O   UNL     1     -44.924  54.822 -61.668  1.00  0.00    -0.293 OA
ENDBRANCH  17  21
ENDBRANCH  12  15
ENDBRANCH   1  11
BRANCH   9  24
HETATM   24  C   UNL     1     -40.574  52.600 -53.342  1.00  0.00    -0.005 A 
HETATM   25  C   UNL     1     -40.124  52.000 -52.145  1.00  0.00     0.050 A 
HETATM   26  C   UNL     1     -39.638  50.688 -52.115  1.00  0.00     0.069 A 
HETATM   27  C   UNL     1     -39.575  49.954 -53.299  1.00  0.00     0.037 A 
HETATM   28  C   UNL     1     -39.999  50.518 -54.498  1.00  0.00     0.004 A 
HETATM   29  C   UNL     1     -40.494  51.824 -54.516  1.00  0.00     0.014 A 
BRANCH  26  30
HETATM   30  O   UNL     1     -39.191  50.023 -51.007  1.00  0.00    -0.356 OA
HETATM   31  C   UNL     1     -40.052  50.001 -49.875  1.00  0.00     0.210 C 
ENDBRANCH  26  30
ENDBRANCH   9  24
TORSDOF 5
ENDMDL
MODEL 2
REMARK VINA RESULT:      -9.4      1.422      7.860
REMARK  5 active torsions:
REMARK  status: ('A' for Active; 'I' for Inactive)
REMARK    1  A    between atoms: C_2  and  C_3 
REMARK    2  A    between atoms: C_5  and  N_6 
REMARK       I    between atoms: N_6  and  C_7 
REMARK    3  A    between atoms: C_7  and  C_8 
REMARK    4  A    between atoms: C_16  and  C_17 
REMARK    5  A    between atoms: C_19  and  O_20 
ROOT
HETATM    1  C   UNL     1     -42.351  56.460 -53.848  1.00  0.00     0.047 A 
HETATM    2  C   UNL     1     -42.276  57.741 -53.266  1.00  0.00     0.008 A 
HETATM    3  C   UNL     1     -42.234  58.818 -54.168  1.00  0.00     0.068 A 
HETATM    4  C   UNL     1     -42.137  60.108 -53.665  1.00  0.00     0.032 A 
HETATM    5  C   UNL     1     -42.099  60.367 -52.293  1.00  0.00     0.002 A 
HETATM    6  C   UNL     1     -42.169  59.314 -51.393  1.00  0.00     0.001 A 
HETATM    7  C   UNL     1     -42.261  58.009 -51.872  1.00  0.00     0.015 A 
HETATM    8  N   UNL     1     -42.285  58.658 -55.502  1.00  0.00    -0.248 NA
HETATM    9  C   UNL     1     -42.409  57.419 -56.043  1.00  0.00     0.069 A 
HETATM   10  C   UNL     1     -42.452  56.299 -55.233  1.00  0.00     0.050 A 
ENDROOT
BRANCH   1  11
HETATM   11  C   UNL     1     -42.288  55.200 -53.070  1.00  0.00     0.257 C 
HETATM   12  N   UNL     1     -41.010  54.701 -52.903  1.00  0.00    -0.323 N 
HETATM   13  H   UNL     1     -40.248  55.268 -53.258  1.00  0.00     0.169 HD
HETATM   14  O   UNL     1     -43.342  54.691 -52.718  1.00  0.00    -0.267 OA
BRANCH  12  15
HETATM   15  C   UNL     1     -40.643  53.455 -52.351  1.00  0.00     0.035 A 
HETATM   16  C   UNL     1     -40.379  52.310 -53.107  1.00  0.00     0.044 A 
HETATM   17  C   UNL     1     -39.963  51.121 -52.484  1.00  0.00     0.011 A 
HETATM   18  C   UNL     1     -39.842  51.075 -51.091  1.00  0.00     0.015 A 
HETATM   19  C   UNL     1     -40.118  52.211 -50.331  1.00  0.00     0.003 A 
HETATM   20  C   UNL     1     -40.509  53.395 -50.959  1.00  0.00     0.029 A 
BRANCH  17  21
HETATM   21  C   UNL     1     -39.645  49.937 -53.339  1.00  0.00     0.155 C 
HETATM   22  C   UNL     1     -39.783  50.061 -54.834  1.00  0.00     0.096 C 
HETATM   23  O   UNL     1     -39.282  48.882 -52.824  1.00  0.00    -0.293 OA
ENDBRANCH  17  21
ENDBRANCH  12  15
ENDBRANCH   1  11
BRANCH   9  24
HETATM   24  C   UNL     1     -42.483  57.361 -57.524  1.00  0.00    -0.005 A 
HETATM   25  C   UNL     1     -43.041  56.262 -58.213  1.00  0.00     0.050 A 
HETATM   26  C   UNL     1     -43.114  56.229 -59.611  1.00  0.00     0.069 A 
HETATM   27  C   UNL     1     -42.606  57.296 -60.348  1.00  0.00     0.037 A 
HETATM   28  C   UNL     1     -42.038  58.390 -59.702  1.00  0.00     0.004 A 
HETATM   29  C   UNL     1     -41.981  58.419 -58.307  1.00  0.00     0.014 A 
BRANCH  26  30
HETATM   30  O   UNL     1     -43.644  55.217 -60.363  1.00  0.00    -0.356 OA
HETATM   31  C   UNL     1     -45.058  55.064 -60.339  1.00  0.00     0.210 C 
ENDBRANCH  26  30
ENDBRANCH   9  24
TORSDOF 5
ENDMDL
MODEL 3
REMARK VINA RESULT:      -9.0      1.934      2.520
REMARK  5 active torsions:
REMARK  status: ('A' for Active; 'I' for Inactive)
REMARK    1  A    between atoms: C_2  and  C_3 
REMARK    2  A    between atoms: C_5  and  N_6 
REMARK       I    between atoms: N_6  and  C_7 
REMARK    3  A    between atoms: C_7  and  C_8 
REMARK    4  A    between atoms: C_16  and  C_17 
REMARK    5  A    between atoms: C_19  and  O_20 
ROOT
HETATM    1  C   UNL     1     -42.127  57.042 -55.821  1.00  0.00     0.047 A 
HETATM    2  C   UNL     1     -42.083  58.125 -54.921  1.00  0.00     0.008 A 
HETATM    3  C   UNL     1     -41.629  57.822 -53.626  1.00  0.00     0.068 A 
HETATM    4  C   UNL     1     -41.580  58.837 -52.679  1.00  0.00     0.032 A 
HETATM    5  C   UNL     1     -41.952  60.149 -52.982  1.00  0.00     0.002 A 
HETATM    6  C   UNL     1     -42.374  60.466 -54.264  1.00  0.00     0.001 A 
HETATM    7  C   UNL     1     -42.437  59.465 -55.231  1.00  0.00     0.015 A 
HETATM    8  N   UNL     1     -41.235  56.591 -53.258  1.00  0.00    -0.248 NA
HETATM    9  C   UNL     1     -41.236  55.570 -54.154  1.00  0.00     0.069 A 
HETATM   10  C   UNL     1     -41.673  55.774 -55.450  1.00  0.00     0.050 A 
ENDROOT
BRANCH   1  11
HETATM   11  C   UNL     1     -42.685  57.137 -57.191  1.00  0.00     0.257 C 
HETATM   12  N   UNL     1     -43.819  56.375 -57.396  1.00  0.00    -0.323 N 
HETATM   13  H   UNL     1     -44.197  55.892 -56.588  1.00  0.00     0.169 HD
HETATM   14  O   UNL     1     -42.071  57.800 -58.014  1.00  0.00    -0.267 OA
BRANCH  12  15
HETATM   15  C   UNL     1     -44.482  56.137 -58.618  1.00  0.00     0.035 A 
HETATM   16  C   UNL     1     -45.535  56.916 -59.103  1.00  0.00     0.044 A 
HETATM   17  C   UNL     1     -46.105  56.647 -60.360  1.00  0.00     0.011 A 
HETATM   18  C   UNL     1     -45.633  55.569 -61.117  1.00  0.00     0.015 A 
HETATM   19  C   UNL     1     -44.592  54.781 -60.632  1.00  0.00     0.003 A 
HETATM   20  C   UNL     1     -44.015  55.068 -59.393  1.00  0.00     0.029 A 
BRANCH  17  21
HETATM   21  C   UNL     1     -47.197  57.538 -60.856  1.00  0.00     0.155 C 
HETATM   22  C   UNL     1     -48.193  56.988 -61.843  1.00  0.00     0.096 C 
HETATM   23  O   UNL     1     -47.273  58.700 -60.465  1.00  0.00    -0.293 OA
ENDBRANCH  17  21
ENDBRANCH  12  15
ENDBRANCH   1  11
BRANCH   9  24
HETATM   24  C   UNL     1     -40.757  54.261 -53.648  1.00  0.00    -0.005 A 
HETATM   25  C   UNL     1     -40.627  53.982 -52.269  1.00  0.00     0.050 A 
HETATM   26  C   UNL     1     -40.185  52.737 -51.807  1.00  0.00     0.069 A 
HETATM   27  C   UNL     1     -39.842  51.748 -52.727  1.00  0.00     0.037 A 
HETATM   28  C   UNL     1     -39.947  51.993 -54.093  1.00  0.00     0.004 A 
HETATM   29  C   UNL     1     -40.401  53.234 -54.544  1.00  0.00     0.014 A 
BRANCH  26  30
HETATM   30  O   UNL     1     -40.037  52.374 -50.497  1.00  0.00    -0.356 OA
HETATM   31  C   UNL     1     -40.500  53.293 -49.514  1.00  0.00     0.210 C 
ENDBRANCH  26  30
ENDBRANCH   9  24
TORSDOF 5
ENDMDL
MODEL 4
REMARK VINA RESULT:      -8.9      2.731      9.513
REMARK  5 active torsions:
REMARK  status: ('A' for Active; 'I' for Inactive)
REMARK    1  A    between atoms: C_2  and  C_3 
REMARK    2  A    between atoms: C_5  and  N_6 
REMARK       I    between atoms: N_6  and  C_7 
REMARK    3  A    between atoms: C_7  and  C_8 
REMARK    4  A    between atoms: C_16  and  C_17 
REMARK    5  A    between atoms: C_19  and  O_20 
ROOT
HETATM    1  C   UNL     1     -42.804  56.556 -57.407  1.00  0.00     0.047 A 
HETATM    2  C   UNL     1     -43.451  55.888 -58.465  1.00  0.00     0.008 A 
HETATM    3  C   UNL     1     -43.573  56.616 -59.662  1.00  0.00     0.068 A 
HETATM    4  C   UNL     1     -44.220  56.028 -60.740  1.00  0.00     0.032 A 
HETATM    5  C   UNL     1     -44.735  54.731 -60.676  1.00  0.00     0.002 A 
HETATM    6  C   UNL     1     -44.595  53.992 -59.511  1.00  0.00     0.001 A 
HETATM    7  C   UNL     1     -43.955  54.561 -58.412  1.00  0.00     0.015 A 
HETATM    8  N   UNL     1     -43.088  57.861 -59.813  1.00  0.00    -0.248 NA
HETATM    9  C   UNL     1     -42.422  58.470 -58.798  1.00  0.00     0.069 A 
HETATM   10  C   UNL     1     -42.259  57.831 -57.582  1.00  0.00     0.050 A 
ENDROOT
BRANCH   1  11
HETATM   11  C   UNL     1     -42.683  56.001 -56.038  1.00  0.00     0.257 C 
HETATM   12  N   UNL     1     -41.501  55.323 -55.804  1.00  0.00    -0.323 N 
HETATM   13  H   UNL     1     -40.814  55.332 -56.549  1.00  0.00     0.169 HD
HETATM   14  O   UNL     1     -43.637  56.122 -55.285  1.00  0.00    -0.267 OA
BRANCH  12  15
HETATM   15  C   UNL     1     -41.164  54.560 -54.667  1.00  0.00     0.035 A 
HETATM   16  C   UNL     1     -40.779  53.217 -54.709  1.00  0.00     0.044 A 
HETATM   17  C   UNL     1     -40.403  52.543 -53.535  1.00  0.00     0.011 A 
HETATM   18  C   UNL     1     -40.442  53.214 -52.308  1.00  0.00     0.015 A 
HETATM   19  C   UNL     1     -40.838  54.549 -52.258  1.00  0.00     0.003 A 
HETATM   20  C   UNL     1     -41.189  55.219 -53.432  1.00  0.00     0.029 A 
BRANCH  17  21
HETATM   21  C   UNL     1     -39.953  51.121 -53.638  1.00  0.00     0.155 C 
HETATM   22  C   UNL     1     -39.514  50.404 -52.389  1.00  0.00     0.096 C 
HETATM   23  O   UNL     1     -39.942  50.554 -54.729  1.00  0.00    -0.293 OA
ENDBRANCH  17  21
ENDBRANCH  12  15
ENDBRANCH   1  11
BRANCH   9  24
HETATM   24  C   UNL     1     -41.907  59.831 -59.083  1.00  0.00    -0.005 A 
HETATM   25  C   UNL     1     -41.875  60.372 -60.388  1.00  0.00     0.050 A 
HETATM   26  C   UNL     1     -41.397  61.663 -60.639  1.00  0.00     0.069 A 
HETATM   27  C   UNL     1     -40.920  62.435 -59.581  1.00  0.00     0.037 A 
HETATM   28  C   UNL     1     -40.927  61.929 -58.284  1.00  0.00     0.004 A 
HETATM   29  C   UNL     1     -41.417  60.644 -58.042  1.00  0.00     0.014 A 
BRANCH  26  30
HETATM   30  O   UNL     1     -41.336  62.273 -61.862  1.00  0.00    -0.356 OA
HETATM   31  C   UNL     1     -40.081  62.817 -62.251  1.00  0.00     0.210 C 
ENDBRANCH  26  30
ENDBRANCH   9  24
TORSDOF 5
ENDMDL
MODEL 5
REMARK VINA RESULT:      -8.8      1.667      2.657
REMARK  5 active torsions:
REMARK  status: ('A' for Active; 'I' for Inactive)
REMARK    1  A    between atoms: C_2  and  C_3 
REMARK    2  A    between atoms: C_5  and  N_6 
REMARK       I    between atoms: N_6  and  C_7 
REMARK    3  A    between atoms: C_7  and  C_8 
REMARK    4  A    between atoms: C_16  and  C_17 
REMARK    5  A    between atoms: C_19  and  O_20 
ROOT
HETATM    1  C   UNL     1     -42.310  56.623 -54.035  1.00  0.00     0.047 A 
HETATM    2  C   UNL     1     -42.085  57.676 -53.127  1.00  0.00     0.008 A 
HETATM    3  C   UNL     1     -41.439  57.320 -51.930  1.00  0.00     0.068 A 
HETATM    4  C   UNL     1     -41.204  58.303 -50.979  1.00  0.00     0.032 A 
HETATM    5  C   UNL     1     -41.572  59.635 -51.184  1.00  0.00     0.002 A 
HETATM    6  C   UNL     1     -42.183  60.004 -52.374  1.00  0.00     0.001 A 
HETATM    7  C   UNL     1     -42.435  59.035 -53.342  1.00  0.00     0.015 A 
HETATM    8  N   UNL     1     -41.035  56.066 -51.662  1.00  0.00    -0.248 NA
HETATM    9  C   UNL     1     -41.216  55.074 -52.571  1.00  0.00     0.069 A 
HETATM   10  C   UNL     1     -41.847  55.331 -53.774  1.00  0.00     0.050 A 
ENDROOT
BRANCH   1  11
HETATM   11  C   UNL     1     -43.077  56.776 -55.295  1.00  0.00     0.257 C 
HETATM   12  N   UNL     1     -42.309  56.679 -56.440  1.00  0.00    -0.323 N 
HETATM   13  H   UNL     1     -41.331  56.444 -56.316  1.00  0.00     0.169 HD
HETATM   14  O   UNL     1     -44.267  57.041 -55.212  1.00  0.00    -0.267 OA
BRANCH  12  15
HETATM   15  C   UNL     1     -42.716  56.933 -57.767  1.00  0.00     0.035 A 
HETATM   16  C   UNL     1     -42.712  58.198 -58.360  1.00  0.00     0.044 A 
HETATM   17  C   UNL     1     -43.079  58.359 -59.707  1.00  0.00     0.011 A 
HETATM   18  C   UNL     1     -43.482  57.245 -60.452  1.00  0.00     0.015 A 
HETATM   19  C   UNL     1     -43.501  55.983 -59.862  1.00  0.00     0.003 A 
HETATM   20  C   UNL     1     -43.114  55.828 -58.530  1.00  0.00     0.029 A 
BRANCH  17  21
HETATM   21  C   UNL     1     -43.012  59.725 -60.309  1.00  0.00     0.155 C 
HETATM   22  C   UNL     1     -41.886  60.048 -61.257  1.00  0.00     0.096 C 
HETATM   23  O   UNL     1     -43.862  60.566 -60.030  1.00  0.00    -0.293 OA
ENDBRANCH  17  21
ENDBRANCH  12  15
ENDBRANCH   1  11
BRANCH   9  24
HETATM   24  C   UNL     1     -40.709  53.736 -52.181  1.00  0.00    -0.005 A 
HETATM   25  C   UNL     1     -40.212  52.809 -53.124  1.00  0.00     0.050 A 
HETATM   26  C   UNL     1     -39.725  51.554 -52.739  1.00  0.00     0.069 A 
HETATM   27  C   UNL     1     -39.747  51.196 -51.392  1.00  0.00     0.037 A 
HETATM   28  C   UNL     1     -40.240  52.080 -50.438  1.00  0.00     0.004 A 
HETATM   29  C   UNL     1     -40.712  53.334 -50.831  1.00  0.00     0.014 A 
BRANCH  26  30
HETATM   30  O   UNL     1     -39.218  50.598 -53.575  1.00  0.00    -0.356 OA
HETATM   31  C   UNL     1     -40.135  49.950 -54.448  1.00  0.00     0.210 C 
ENDBRANCH  26  30
ENDBRANCH   9  24
TORSDOF 5
ENDMDL
MODEL 6
REMARK VINA RESULT:      -8.8      1.885      5.549
REMARK  5 active torsions:
REMARK  status: ('A' for Active; 'I' for Inactive)
REMARK    1  A    between atoms: C_2  and  C_3 
REMARK    2  A    between atoms: C_5  and  N_6 
REMARK       I    between atoms: N_6  and  C_7 
REMARK    3  A    between atoms: C_7  and  C_8 
REMARK    4  A    between atoms: C_16  and  C_17 
REMARK    5  A    between atoms: C_19  and  O_20 
ROOT
HETATM    1  C   UNL     1     -42.007  55.349 -54.539  1.00  0.00     0.047 A 
HETATM    2  C   UNL     1     -41.365  54.247 -53.939  1.00  0.00     0.008 A 
HETATM    3  C   UNL     1     -40.859  54.468 -52.646  1.00  0.00     0.068 A 
HETATM    4  C   UNL     1     -40.195  53.434 -52.002  1.00  0.00     0.032 A 
HETATM    5  C   UNL     1     -40.032  52.178 -52.592  1.00  0.00     0.002 A 
HETATM    6  C   UNL     1     -40.553  51.939 -53.855  1.00  0.00     0.001 A 
HETATM    7  C   UNL     1     -41.219  52.963 -54.525  1.00  0.00     0.015 A 
HETATM    8  N   UNL     1     -40.990  55.640 -51.999  1.00  0.00    -0.248 NA
HETATM    9  C   UNL     1     -41.656  56.674 -52.574  1.00  0.00     0.069 A 
HETATM   10  C   UNL     1     -42.183  56.550 -53.847  1.00  0.00     0.050 A 
ENDROOT
BRANCH   1  11
HETATM   11  C   UNL     1     -42.501  55.348 -55.937  1.00  0.00     0.257 C 
HETATM   12  N   UNL     1     -42.158  56.475 -56.660  1.00  0.00    -0.323 N 
HETATM   13  H   UNL     1     -41.553  57.146 -56.200  1.00  0.00     0.169 HD
HETATM   14  O   UNL     1     -43.207  54.417 -56.294  1.00  0.00    -0.267 OA
BRANCH  12  15
HETATM   15  C   UNL     1     -42.605  56.834 -57.948  1.00  0.00     0.035 A 
HETATM   16  C   UNL     1     -43.550  56.109 -58.680  1.00  0.00     0.044 A 
HETATM   17  C   UNL     1     -43.986  56.566 -59.936  1.00  0.00     0.011 A 
HETATM   18  C   UNL     1     -43.447  57.740 -60.471  1.00  0.00     0.015 A 
HETATM   19  C   UNL     1     -42.495  58.460 -59.752  1.00  0.00     0.003 A 
HETATM   20  C   UNL     1     -42.083  58.013 -58.495  1.00  0.00     0.029 A 
BRANCH  17  21
HETATM   21  C   UNL     1     -45.033  55.781 -60.659  1.00  0.00     0.155 C 
HETATM   22  C   UNL     1     -46.482  56.018 -60.323  1.00  0.00     0.096 C 
HETATM   23  O   UNL     1     -44.709  54.956 -61.510  1.00  0.00    -0.293 OA
ENDBRANCH  17  21
ENDBRANCH  12  15
ENDBRANCH   1  11
BRANCH   9  24
HETATM   24  C   UNL     1     -41.763  57.910 -51.761  1.00  0.00    -0.005 A 
HETATM   25  C   UNL     1     -42.928  58.709 -51.744  1.00  0.00     0.050 A 
HETATM   26  C   UNL     1     -43.017  59.866 -50.961  1.00  0.00     0.069 A 
HETATM   27  C   UNL     1     -41.923  60.257 -50.192  1.00  0.00     0.037 A 
HETATM   28  C   UNL     1     -40.756  59.501 -50.194  1.00  0.00     0.004 A 
HETATM   29  C   UNL     1     -40.681  58.341 -50.968  1.00  0.00     0.014 A 
BRANCH  26  30
HETATM   30  O   UNL     1     -44.102  60.693 -50.873  1.00  0.00    -0.356 OA
HETATM   31  C   UNL     1     -43.860  62.091 -50.977  1.00  0.00     0.210 C 
ENDBRANCH  26  30
ENDBRANCH   9  24
TORSDOF 5
ENDMDL
MODEL 7
REMARK VINA RESULT:      -8.7      2.066      2.632
REMARK  5 active torsions:
REMARK  status: ('A' for Active; 'I' for Inactive)
REMARK    1  A    between atoms: C_2  and  C_3 
REMARK    2  A    between atoms: C_5  and  N_6 
REMARK       I    between atoms: N_6  and  C_7 
REMARK    3  A    between atoms: C_7  and  C_8 
REMARK    4  A    between atoms: C_16  and  C_17 
REMARK    5  A    between atoms: C_19  and  O_20 
ROOT
HETATM    1  C   UNL     1     -42.882  56.757 -54.117  1.00  0.00     0.047 A 
HETATM    2  C   UNL     1     -43.675  57.303 -53.088  1.00  0.00     0.008 A 
HETATM    3  C   UNL     1     -43.632  56.622 -51.860  1.00  0.00     0.068 A 
HETATM    4  C   UNL     1     -44.405  57.092 -50.807  1.00  0.00     0.032 A 
HETATM    5  C   UNL     1     -45.208  58.228 -50.928  1.00  0.00     0.002 A 
HETATM    6  C   UNL     1     -45.237  58.925 -52.126  1.00  0.00     0.001 A 
HETATM    7  C   UNL     1     -44.474  58.472 -53.200  1.00  0.00     0.015 A 
HETATM    8  N   UNL     1     -42.871  55.533 -51.654  1.00  0.00    -0.248 NA
HETATM    9  C   UNL     1     -42.075  55.051 -52.642  1.00  0.00     0.069 A 
HETATM   10  C   UNL     1     -42.057  55.653 -53.887  1.00  0.00     0.050 A 
ENDROOT
BRANCH   1  11
HETATM   11  C   UNL     1     -42.885  57.263 -55.511  1.00  0.00     0.257 C 
HETATM   12  N   UNL     1     -43.763  56.604 -56.351  1.00  0.00    -0.323 N 
HETATM   13  H   UNL     1     -44.361  55.903 -55.928  1.00  0.00     0.169 HD
HETATM   14  O   UNL     1     -42.084  58.139 -55.803  1.00  0.00    -0.267 OA
BRANCH  12  15
HETATM   15  C   UNL     1     -43.880  56.749 -57.749  1.00  0.00     0.035 A 
HETATM   16  C   UNL     1     -44.671  57.717 -58.373  1.00  0.00     0.044 A 
HETATM   17  C   UNL     1     -44.690  57.832 -59.774  1.00  0.00     0.011 A 
HETATM   18  C   UNL     1     -43.933  56.949 -60.551  1.00  0.00     0.015 A 
HETATM   19  C   UNL     1     -43.153  55.973 -59.934  1.00  0.00     0.003 A 
HETATM   20  C   UNL     1     -43.122  55.879 -58.542  1.00  0.00     0.029 A 
BRANCH  17  21
HETATM   21  C   UNL     1     -45.514  58.914 -60.393  1.00  0.00     0.155 C 
HETATM   22  C   UNL     1     -46.985  58.675 -60.610  1.00  0.00     0.096 C 
HETATM   23  O   UNL     1     -44.993  59.978 -60.720  1.00  0.00    -0.293 OA
ENDBRANCH  17  21
ENDBRANCH  12  15
ENDBRANCH   1  11
BRANCH   9  24
HETATM   24  C   UNL     1     -41.259  53.861 -52.297  1.00  0.00    -0.005 A 
HETATM   25  C   UNL     1     -40.631  53.061 -53.277  1.00  0.00     0.050 A 
HETATM   26  C   UNL     1     -39.854  51.949 -52.934  1.00  0.00     0.069 A 
HETATM   27  C   UNL     1     -39.710  51.603 -51.591  1.00  0.00     0.037 A 
HETATM   28  C   UNL     1     -40.325  52.361 -50.600  1.00  0.00     0.004 A 
HETATM   29  C   UNL     1     -41.087  53.477 -50.952  1.00  0.00     0.014 A 
BRANCH  26  30
HETATM   30  O   UNL     1     -39.202  51.124 -53.809  1.00  0.00    -0.356 OA
HETATM   31  C   UNL     1     -39.834  49.890 -54.128  1.00  0.00     0.210 C 
ENDBRANCH  26  30
ENDBRANCH   9  24
TORSDOF 5
ENDMDL
MODEL 8
REMARK VINA RESULT:      -8.4      3.381      6.900
REMARK  5 active torsions:
REMARK  status: ('A' for Active; 'I' for Inactive)
REMARK    1  A    between atoms: C_2  and  C_3 
REMARK    2  A    between atoms: C_5  and  N_6 
REMARK       I    between atoms: N_6  and  C_7 
REMARK    3  A    between atoms: C_7  and  C_8 
REMARK    4  A    between atoms: C_16  and  C_17 
REMARK    5  A    between atoms: C_19  and  O_20 
ROOT
HETATM    1  C   UNL     1     -42.888  57.170 -53.714  1.00  0.00     0.047 A 
HETATM    2  C   UNL     1     -43.170  57.047 -55.089  1.00  0.00     0.008 A 
HETATM    3  C   UNL     1     -42.675  55.888 -55.712  1.00  0.00     0.068 A 
HETATM    4  C   UNL     1     -42.896  55.712 -57.071  1.00  0.00     0.032 A 
HETATM    5  C   UNL     1     -43.611  56.641 -57.831  1.00  0.00     0.002 A 
HETATM    6  C   UNL     1     -44.130  57.774 -57.221  1.00  0.00     0.001 A 
HETATM    7  C   UNL     1     -43.917  57.977 -55.860  1.00  0.00     0.015 A 
HETATM    8  N   UNL     1     -41.994  54.936 -55.050  1.00  0.00    -0.248 NA
HETATM    9  C   UNL     1     -41.776  55.048 -53.714  1.00  0.00     0.069 A 
HETATM   10  C   UNL     1     -42.222  56.157 -53.019  1.00  0.00     0.050 A 
ENDROOT
BRANCH   1  11
HETATM   11  C   UNL     1     -43.224  58.370 -52.912  1.00  0.00     0.257 C 
HETATM   12  N   UNL     1     -44.557  58.461 -52.559  1.00  0.00    -0.323 N 
HETATM   13  H   UNL     1     -45.151  57.680 -52.813  1.00  0.00     0.169 HD
HETATM   14  O   UNL     1     -42.337  59.185 -52.702  1.00  0.00    -0.267 OA
BRANCH  12  15
HETATM   15  C   UNL     1     -45.206  59.549 -51.939  1.00  0.00     0.035 A 
HETATM   16  C   UNL     1     -45.131  59.831 -50.572  1.00  0.00     0.044 A 
HETATM   17  C   UNL     1     -45.761  60.969 -50.040  1.00  0.00     0.011 A 
HETATM   18  C   UNL     1     -46.495  61.811 -50.882  1.00  0.00     0.015 A 
HETATM   19  C   UNL     1     -46.585  61.527 -52.244  1.00  0.00     0.003 A 
HETATM   20  C   UNL     1     -45.937  60.407 -52.769  1.00  0.00     0.029 A 
BRANCH  17  21
HETATM   21  C   UNL     1     -45.612  61.254 -48.581  1.00  0.00     0.155 C 
HETATM   22  C   UNL     1     -44.958  62.542 -48.153  1.00  0.00     0.096 C 
HETATM   23  O   UNL     1     -46.015  60.445 -47.749  1.00  0.00    -0.293 OA
ENDBRANCH  17  21
ENDBRANCH  12  15
ENDBRANCH   1  11
BRANCH   9  24
HETATM   24  C   UNL     1     -41.038  53.927 -53.082  1.00  0.00    -0.005 A 
HETATM   25  C   UNL     1     -40.474  52.871 -53.831  1.00  0.00     0.050 A 
HETATM   26  C   UNL     1     -39.769  51.828 -53.220  1.00  0.00     0.069 A 
HETATM   27  C   UNL     1     -39.635  51.813 -51.833  1.00  0.00     0.037 A 
HETATM   28  C   UNL     1     -40.188  52.831 -51.063  1.00  0.00     0.004 A 
HETATM   29  C   UNL     1     -40.878  53.875 -51.683  1.00  0.00     0.014 A 
BRANCH  26  30
HETATM   30  O   UNL     1     -39.183  50.771 -53.861  1.00  0.00    -0.356 OA
HETATM   31  C   UNL     1     -40.046  49.860 -54.530  1.00  0.00     0.210 C 
ENDBRANCH  26  30
ENDBRANCH   9  24
TORSDOF 5
ENDMDL
MODEL 9
REMARK VINA RESULT:      -8.4      3.137      6.401
REMARK  5 active torsions:
REMARK  status: ('A' for Active; 'I' for Inactive)
REMARK    1  A    between atoms: C_2  and  C_3 
REMARK    2  A    between atoms: C_5  and  N_6 
REMARK       I    between atoms: N_6  and  C_7 
REMARK    3  A    between atoms: C_7  and  C_8 
REMARK    4  A    between atoms: C_16  and  C_17 
REMARK    5  A    between atoms: C_19  and  O_20 
ROOT
HETATM    1  C   UNL     1     -41.818  57.436 -54.302  1.00  0.00     0.047 A 
HETATM    2  C   UNL     1     -42.419  57.282 -55.568  1.00  0.00     0.008 A 
HETATM    3  C   UNL     1     -42.383  55.984 -56.104  1.00  0.00     0.068 A 
HETATM    4  C   UNL     1     -42.937  55.763 -57.358  1.00  0.00     0.032 A 
HETATM    5  C   UNL     1     -43.543  56.786 -58.090  1.00  0.00     0.002 A 
HETATM    6  C   UNL     1     -43.610  58.065 -57.558  1.00  0.00     0.001 A 
HETATM    7  C   UNL     1     -43.057  58.315 -56.304  1.00  0.00     0.015 A 
HETATM    8  N   UNL     1     -41.837  54.939 -55.457  1.00  0.00    -0.248 NA
HETATM    9  C   UNL     1     -41.308  55.097 -54.216  1.00  0.00     0.069 A 
HETATM   10  C   UNL     1     -41.294  56.341 -53.612  1.00  0.00     0.050 A 
ENDROOT
BRANCH   1  11
HETATM   11  C   UNL     1     -41.653  58.746 -53.627  1.00  0.00     0.257 C 
HETATM   12  N   UNL     1     -42.721  59.111 -52.830  1.00  0.00    -0.323 N 
HETATM   13  H   UNL     1     -43.467  58.432 -52.726  1.00  0.00     0.169 HD
HETATM   14  O   UNL     1     -40.653  59.400 -53.884  1.00  0.00    -0.267 OA
BRANCH  12  15
HETATM   15  C   UNL     1     -42.927  60.351 -52.190  1.00  0.00     0.035 A 
HETATM   16  C   UNL     1     -43.061  61.568 -52.864  1.00  0.00     0.044 A 
HETATM   17  C   UNL     1     -43.321  62.753 -52.156  1.00  0.00     0.011 A 
HETATM   18  C   UNL     1     -43.417  62.720 -50.760  1.00  0.00     0.015 A 
HETATM   19  C   UNL     1     -43.271  61.511 -50.082  1.00  0.00     0.003 A 
HETATM   20  C   UNL     1     -43.035  60.333 -50.794  1.00  0.00     0.029 A 
BRANCH  17  21
HETATM   21  C   UNL     1     -43.504  64.022 -52.925  1.00  0.00     0.155 C 
HETATM   22  C   UNL     1     -44.901  64.482 -53.249  1.00  0.00     0.096 C 
HETATM   23  O   UNL     1     -42.526  64.672 -53.286  1.00  0.00    -0.293 OA
ENDBRANCH  17  21
ENDBRANCH  12  15
ENDBRANCH   1  11
BRANCH   9  24
HETATM   24  C   UNL     1     -40.757  53.873 -53.585  1.00  0.00    -0.005 A 
HETATM   25  C   UNL     1     -40.739  53.684 -52.185  1.00  0.00     0.050 A 
HETATM   26  C   UNL     1     -40.226  52.517 -51.606  1.00  0.00     0.069 A 
HETATM   27  C   UNL     1     -39.699  51.521 -52.426  1.00  0.00     0.037 A 
HETATM   28  C   UNL     1     -39.691  51.679 -53.808  1.00  0.00     0.004 A 
HETATM   29  C   UNL     1     -40.216  52.841 -54.377  1.00  0.00     0.014 A 
BRANCH  26  30
HETATM   30  O   UNL     1     -40.175  52.242 -50.268  1.00  0.00    -0.356 OA
HETATM   31  C   UNL     1     -40.412  53.323 -49.375  1.00  0.00     0.210 C 
ENDBRANCH  26  30
ENDBRANCH   9  24
TORSDOF 5
ENDMDL
MODEL 10
REMARK VINA RESULT:      -8.4      2.524      8.707
REMARK  5 active torsions:
REMARK  status: ('A' for Active; 'I' for Inactive)
REMARK    1  A    between atoms: C_2  and  C_3 
REMARK    2  A    between atoms: C_5  and  N_6 
REMARK       I    between atoms: N_6  and  C_7 
REMARK    3  A    between atoms: C_7  and  C_8 
REMARK    4  A    between atoms: C_16  and  C_17 
REMARK    5  A    between atoms: C_19  and  O_20 
ROOT
HETATM    1  C   UNL     1     -41.785  56.600 -54.571  1.00  0.00     0.047 A 
HETATM    2  C   UNL     1     -42.545  56.753 -55.749  1.00  0.00     0.008 A 
HETATM    3  C   UNL     1     -43.341  57.909 -55.813  1.00  0.00     0.068 A 
HETATM    4  C   UNL     1     -44.133  58.114 -56.934  1.00  0.00     0.032 A 
HETATM    5  C   UNL     1     -44.146  57.217 -58.005  1.00  0.00     0.002 A 
HETATM    6  C   UNL     1     -43.342  56.088 -57.966  1.00  0.00     0.001 A 
HETATM    7  C   UNL     1     -42.542  55.856 -56.849  1.00  0.00     0.015 A 
HETATM    8  N   UNL     1     -43.372  58.832 -54.835  1.00  0.00    -0.248 NA
HETATM    9  C   UNL     1     -42.595  58.692 -53.731  1.00  0.00     0.069 A 
HETATM   10  C   UNL     1     -41.783  57.583 -53.579  1.00  0.00     0.050 A 
ENDROOT
BRANCH   1  11
HETATM   11  C   UNL     1     -40.977  55.395 -54.268  1.00  0.00     0.257 C 
HETATM   12  N   UNL     1     -41.508  54.590 -53.278  1.00  0.00    -0.323 N 
HETATM   13  H   UNL     1     -42.416  54.855 -52.913  1.00  0.00     0.169 HD
HETATM   14  O   UNL     1     -39.909  55.261 -54.848  1.00  0.00    -0.267 OA
BRANCH  12  15
HETATM   15  C   UNL     1     -40.902  53.472 -52.667  1.00  0.00     0.035 A 
HETATM   16  C   UNL     1     -40.639  52.267 -53.323  1.00  0.00     0.044 A 
HETATM   17  C   UNL     1     -39.979  51.219 -52.658  1.00  0.00     0.011 A 
HETATM   18  C   UNL     1     -39.611  51.374 -51.317  1.00  0.00     0.015 A 
HETATM   19  C   UNL     1     -39.884  52.568 -50.654  1.00  0.00     0.003 A 
HETATM   20  C   UNL     1     -40.518  53.613 -51.328  1.00  0.00     0.029 A 
BRANCH  17  21
HETATM   21  C   UNL     1     -39.677  49.968 -53.417  1.00  0.00     0.155 C 
HETATM   22  C   UNL     1     -39.789  49.981 -54.919  1.00  0.00     0.096 C 
HETATM   23  O   UNL     1     -39.347  48.947 -52.818  1.00  0.00    -0.293 OA
ENDBRANCH  17  21
ENDBRANCH  12  15
ENDBRANCH   1  11
BRANCH   9  24
HETATM   24  C   UNL     1     -42.688  59.782 -52.729  1.00  0.00    -0.005 A 
HETATM   25  C   UNL     1     -43.189  61.064 -53.047  1.00  0.00     0.050 A 
HETATM   26  C   UNL     1     -43.282  62.078 -52.087  1.00  0.00     0.069 A 
HETATM   27  C   UNL     1     -42.852  61.829 -50.785  1.00  0.00     0.037 A 
HETATM   28  C   UNL     1     -42.342  60.582 -50.440  1.00  0.00     0.004 A 
HETATM   29  C   UNL     1     -42.265  59.572 -51.401  1.00  0.00     0.014 A 
BRANCH  26  30
HETATM   30  O   UNL     1     -43.760  63.342 -52.298  1.00  0.00    -0.356 OA
HETATM   31  C   UNL     1     -45.036  63.456 -52.917  1.00  0.00     0.210 C 
ENDBRANCH  26  30
ENDBRANCH   9  24
TORSDOF 5
ENDMDL
