MODEL 1
REMARK VINA RESULT:      -8.2      0.000      0.000
REMARK  5 active torsions:
REMARK  status: ('A' for Active; 'I' for Inactive)
REMARK    1  A    between atoms: O_2  and  C_3 
REMARK    2  A    between atoms: C_4  and  N_5 
REMARK    3  A    between atoms: N_5  and  C_6 
REMARK    4  A    between atoms: C_6  and  C_7 
REMARK       I    between atoms: C_7  and  N_8 
REMARK    5  A    between atoms: N_8  and  C_9 
ROOT
HETATM    1  C   UNL     1     -42.319  56.300 -54.304  1.00  0.00     0.235 C 
HETATM    2  N   UNL     1     -42.515  55.113 -53.618  1.00  0.00    -0.325 N 
HETATM    3  O   UNL     1     -41.319  57.015 -54.262  1.00  0.00    -0.272 OA
HETATM    4  H   UNL     1     -43.317  54.571 -53.899  1.00  0.00     0.169 HD
ENDROOT
BRANCH   1   5
HETATM    5  C   UNL     1     -43.499  56.691 -55.212  1.00  0.00     0.195 C 
BRANCH   5   6
HETATM    6  N   UNL     1     -43.519  55.820 -56.397  1.00  0.00    -0.282 NA
HETATM    7  H   UNL     1     -42.928  54.993 -56.242  1.00  0.00     0.128 HD
BRANCH   6   8
HETATM    8  C   UNL     1     -43.044  56.445 -57.573  1.00  0.00     0.042 A 
HETATM    9  C   UNL     1     -43.252  55.831 -58.823  1.00  0.00     0.089 A 
HETATM   10  C   UNL     1     -42.824  56.429 -60.008  1.00  0.00     0.038 A 
HETATM   11  C   UNL     1     -42.156  57.650 -59.955  1.00  0.00     0.003 A 
HETATM   12  C   UNL     1     -41.938  58.273 -58.724  1.00  0.00     0.002 A 
HETATM   13  C   UNL     1     -42.386  57.678 -57.541  1.00  0.00     0.026 A 
BRANCH   9  14
HETATM   14  O   UNL     1     -43.924  54.632 -58.865  1.00  0.00    -0.354 OA
HETATM   15  C   UNL     1     -44.771  54.583 -60.014  1.00  0.00     0.210 C 
ENDBRANCH   9  14
ENDBRANCH   6   8
ENDBRANCH   5   6
ENDBRANCH   1   5
BRANCH   2  16
HETATM   16  C   UNL     1     -41.676  54.528 -52.629  1.00  0.00     0.045 A 
HETATM   17  C   UNL     1     -40.988  53.303 -52.919  1.00  0.00     0.001 A 
HETATM   18  C   UNL     1     -40.186  52.722 -51.900  1.00  0.00    -0.024 A 
HETATM   19  C   UNL     1     -41.037  52.612 -54.158  1.00  0.00     0.014 A 
HETATM   20  C   UNL     1     -39.495  51.520 -52.131  1.00  0.00     0.012 A 
HETATM   21  C   UNL     1     -40.071  53.342 -50.649  1.00  0.00     0.012 A 
HETATM   22  C   UNL     1     -39.573  50.871 -53.358  1.00  0.00     0.001 A 
HETATM   23  C   UNL     1     -40.342  51.417 -54.374  1.00  0.00     0.001 A 
HETATM   24  C   UNL     1     -40.740  54.529 -50.383  1.00  0.00     0.003 A 
HETATM   25  C   UNL     1     -41.536  55.114 -51.363  1.00  0.00     0.030 A 
ENDBRANCH   2  16
TORSDOF 5
ENDMDL
MODEL 2
REMARK VINA RESULT:      -8.1      1.636      2.459
REMARK  5 active torsions:
REMARK  status: ('A' for Active; 'I' for Inactive)
REMARK    1  A    between atoms: O_2  and  C_3 
REMARK    2  A    between atoms: C_4  and  N_5 
REMARK    3  A    between atoms: N_5  and  C_6 
REMARK    4  A    between atoms: C_6  and  C_7 
REMARK       I    between atoms: C_7  and  N_8 
REMARK    5  A    between atoms: N_8  and  C_9 
ROOT
HETATM    1  C   UNL     1     -42.695  54.477 -55.029  1.00  0.00     0.235 C 
HETATM    2  N   UNL     1     -41.384  54.169 -54.703  1.00  0.00    -0.325 N 
HETATM    3  O   UNL     1     -43.652  54.515 -54.257  1.00  0.00    -0.272 OA
HETATM    4  H   UNL     1     -40.700  54.352 -55.420  1.00  0.00     0.169 HD
ENDROOT
BRANCH   1   5
HETATM    5  C   UNL     1     -42.898  54.823 -56.515  1.00  0.00     0.195 C 
BRANCH   5   6
HETATM    6  N   UNL     1     -43.429  56.188 -56.636  1.00  0.00    -0.282 NA
HETATM    7  H   UNL     1     -44.455  56.167 -56.703  1.00  0.00     0.128 HD
BRANCH   6   8
HETATM    8  C   UNL     1     -42.962  56.882 -57.777  1.00  0.00     0.042 A 
HETATM    9  C   UNL     1     -42.534  58.218 -57.654  1.00  0.00     0.089 A 
HETATM   10  C   UNL     1     -42.041  58.928 -58.749  1.00  0.00     0.038 A 
HETATM   11  C   UNL     1     -41.989  58.311 -59.997  1.00  0.00     0.003 A 
HETATM   12  C   UNL     1     -42.412  56.987 -60.138  1.00  0.00     0.002 A 
HETATM   13  C   UNL     1     -42.888  56.275 -59.033  1.00  0.00     0.026 A 
BRANCH   9  14
HETATM   14  O   UNL     1     -42.577  58.813 -56.415  1.00  0.00    -0.354 OA
HETATM   15  C   UNL     1     -42.143  60.172 -56.506  1.00  0.00     0.210 C 
ENDBRANCH   9  14
ENDBRANCH   6   8
ENDBRANCH   5   6
ENDBRANCH   1   5
BRANCH   2  16
HETATM   16  C   UNL     1     -40.880  53.710 -53.455  1.00  0.00     0.045 A 
HETATM   17  C   UNL     1     -40.433  52.353 -53.328  1.00  0.00     0.001 A 
HETATM   18  C   UNL     1     -39.968  51.911 -52.060  1.00  0.00    -0.024 A 
HETATM   19  C   UNL     1     -40.412  51.398 -54.379  1.00  0.00     0.014 A 
HETATM   20  C   UNL     1     -39.524  50.589 -51.881  1.00  0.00     0.012 A 
HETATM   21  C   UNL     1     -39.944  52.789 -50.969  1.00  0.00     0.012 A 
HETATM   22  C   UNL     1     -39.524  49.682 -52.935  1.00  0.00     0.001 A 
HETATM   23  C   UNL     1     -39.966  50.086 -54.185  1.00  0.00     0.001 A 
HETATM   24  C   UNL     1     -40.376  54.102 -51.107  1.00  0.00     0.003 A 
HETATM   25  C   UNL     1     -40.841  54.555 -52.337  1.00  0.00     0.030 A 
ENDBRANCH   2  16
TORSDOF 5
ENDMDL
MODEL 3
REMARK VINA RESULT:      -8.0      0.711      2.355
REMARK  5 active torsions:
REMARK  status: ('A' for Active; 'I' for Inactive)
REMARK    1  A    between atoms: O_2  and  C_3 
REMARK    2  A    between atoms: C_4  and  N_5 
REMARK    3  A    between atoms: N_5  and  C_6 
REMARK    4  A    between atoms: C_6  and  C_7 
REMARK       I    between atoms: C_7  and  N_8 
REMARK    5  A    between atoms: N_8  and  C_9 
ROOT
HETATM    1  C   UNL     1     -42.039  55.554 -54.658  1.00  0.00     0.235 C 
HETATM    2  N   UNL     1     -42.261  54.258 -54.220  1.00  0.00    -0.325 N 
HETATM    3  O   UNL     1     -40.996  56.196 -54.547  1.00  0.00    -0.272 OA
HETATM    4  H   UNL     1     -43.112  53.826 -54.544  1.00  0.00     0.169 HD
ENDROOT
BRANCH   1   5
HETATM    5  C   UNL     1     -43.251  56.182 -55.369  1.00  0.00     0.195 C 
BRANCH   5   6
HETATM    6  N   UNL     1     -43.478  55.502 -56.652  1.00  0.00    -0.282 NA
HETATM    7  H   UNL     1     -42.957  54.616 -56.684  1.00  0.00     0.128 HD
BRANCH   6   8
HETATM    8  C   UNL     1     -43.067  56.255 -57.777  1.00  0.00     0.042 A 
HETATM    9  C   UNL     1     -43.368  55.794 -59.073  1.00  0.00     0.089 A 
HETATM   10  C   UNL     1     -43.006  56.522 -60.207  1.00  0.00     0.038 A 
HETATM   11  C   UNL     1     -42.312  57.720 -60.057  1.00  0.00     0.003 A 
HETATM   12  C   UNL     1     -42.002  58.192 -58.779  1.00  0.00     0.002 A 
HETATM   13  C   UNL     1     -42.384  57.467 -57.646  1.00  0.00     0.026 A 
BRANCH   9  14
HETATM   14  O   UNL     1     -44.065  54.617 -59.209  1.00  0.00    -0.354 OA
HETATM   15  C   UNL     1     -44.985  54.713 -60.298  1.00  0.00     0.210 C 
ENDBRANCH   9  14
ENDBRANCH   6   8
ENDBRANCH   5   6
ENDBRANCH   1   5
BRANCH   2  16
HETATM   16  C   UNL     1     -41.395  53.438 -53.445  1.00  0.00     0.045 A 
HETATM   17  C   UNL     1     -41.306  53.644 -52.028  1.00  0.00     0.001 A 
HETATM   18  C   UNL     1     -40.406  52.834 -51.283  1.00  0.00    -0.024 A 
HETATM   19  C   UNL     1     -42.056  54.599 -51.293  1.00  0.00     0.014 A 
HETATM   20  C   UNL     1     -40.278  52.998 -49.894  1.00  0.00     0.012 A 
HETATM   21  C   UNL     1     -39.634  51.859 -51.926  1.00  0.00     0.012 A 
HETATM   22  C   UNL     1     -41.027  53.950 -49.210  1.00  0.00     0.001 A 
HETATM   23  C   UNL     1     -41.919  54.750 -49.908  1.00  0.00     0.001 A 
HETATM   24  C   UNL     1     -39.732  51.668 -53.298  1.00  0.00     0.003 A 
HETATM   25  C   UNL     1     -40.602  52.452 -54.049  1.00  0.00     0.030 A 
ENDBRANCH   2  16
TORSDOF 5
ENDMDL
MODEL 4
REMARK VINA RESULT:      -8.0      1.558      3.244
REMARK  5 active torsions:
REMARK  status: ('A' for Active; 'I' for Inactive)
REMARK    1  A    between atoms: O_2  and  C_3 
REMARK    2  A    between atoms: C_4  and  N_5 
REMARK    3  A    between atoms: N_5  and  C_6 
REMARK    4  A    between atoms: C_6  and  C_7 
REMARK       I    between atoms: C_7  and  N_8 
REMARK    5  A    between atoms: N_8  and  C_9 
ROOT
HETATM    1  C   UNL     1     -42.669  54.854 -55.359  1.00  0.00     0.235 C 
HETATM    2  N   UNL     1     -41.472  54.919 -54.666  1.00  0.00    -0.325 N 
HETATM    3  O   UNL     1     -43.509  53.958 -55.289  1.00  0.00    -0.272 OA
HETATM    4  H   UNL     1     -40.986  55.802 -54.712  1.00  0.00     0.169 HD
ENDROOT
BRANCH   1   5
HETATM    5  C   UNL     1     -42.924  56.070 -56.269  1.00  0.00     0.195 C 
BRANCH   5   6
HETATM    6  N   UNL     1     -42.286  55.852 -57.575  1.00  0.00    -0.282 NA
HETATM    7  H   UNL     1     -41.640  56.623 -57.789  1.00  0.00     0.128 HD
BRANCH   6   8
HETATM    8  C   UNL     1     -43.200  55.776 -58.651  1.00  0.00     0.042 A 
HETATM    9  C   UNL     1     -43.383  56.892 -59.491  1.00  0.00     0.089 A 
HETATM   10  C   UNL     1     -44.254  56.848 -60.580  1.00  0.00     0.038 A 
HETATM   11  C   UNL     1     -44.976  55.683 -60.832  1.00  0.00     0.003 A 
HETATM   12  C   UNL     1     -44.809  54.567 -60.007  1.00  0.00     0.002 A 
HETATM   13  C   UNL     1     -43.921  54.611 -58.928  1.00  0.00     0.026 A 
BRANCH   9  14
HETATM   14  O   UNL     1     -42.656  58.031 -59.242  1.00  0.00    -0.354 OA
HETATM   15  C   UNL     1     -42.045  58.499 -60.446  1.00  0.00     0.210 C 
ENDBRANCH   9  14
ENDBRANCH   6   8
ENDBRANCH   5   6
ENDBRANCH   1   5
BRANCH   2  16
HETATM   16  C   UNL     1     -40.891  53.925 -53.831  1.00  0.00     0.045 A 
HETATM   17  C   UNL     1     -40.773  54.164 -52.422  1.00  0.00     0.001 A 
HETATM   18  C   UNL     1     -40.156  53.168 -51.617  1.00  0.00    -0.024 A 
HETATM   19  C   UNL     1     -41.232  55.328 -51.750  1.00  0.00     0.014 A 
HETATM   20  C   UNL     1     -40.012  53.355 -50.232  1.00  0.00     0.012 A 
HETATM   21  C   UNL     1     -39.684  51.983 -52.195  1.00  0.00     0.012 A 
HETATM   22  C   UNL     1     -40.469  54.513 -49.611  1.00  0.00     0.001 A 
HETATM   23  C   UNL     1     -41.082  55.499 -50.368  1.00  0.00     0.001 A 
HETATM   24  C   UNL     1     -39.808  51.763 -53.561  1.00  0.00     0.003 A 
HETATM   25  C   UNL     1     -40.403  52.726 -54.370  1.00  0.00     0.030 A 
ENDBRANCH   2  16
TORSDOF 5
ENDMDL
MODEL 5
REMARK VINA RESULT:      -7.9      1.353      2.172
REMARK  5 active torsions:
REMARK  status: ('A' for Active; 'I' for Inactive)
REMARK    1  A    between atoms: O_2  and  C_3 
REMARK    2  A    between atoms: C_4  and  N_5 
REMARK    3  A    between atoms: N_5  and  C_6 
REMARK    4  A    between atoms: C_6  and  C_7 
REMARK       I    between atoms: C_7  and  N_8 
REMARK    5  A    between atoms: N_8  and  C_9 
ROOT
HETATM    1  C   UNL     1     -42.969  55.466 -54.838  1.00  0.00     0.235 C 
HETATM    2  N   UNL     1     -41.806  55.735 -54.135  1.00  0.00    -0.325 N 
HETATM    3  O   UNL     1     -43.834  54.645 -54.536  1.00  0.00    -0.272 OA
HETATM    4  H   UNL     1     -41.296  56.554 -54.429  1.00  0.00     0.169 HD
ENDROOT
BRANCH   1   5
HETATM    5  C   UNL     1     -43.146  56.335 -56.096  1.00  0.00     0.195 C 
BRANCH   5   6
HETATM    6  N   UNL     1     -42.440  55.717 -57.227  1.00  0.00    -0.282 NA
HETATM    7  H   UNL     1     -41.610  56.272 -57.475  1.00  0.00     0.128 HD
BRANCH   6   8
HETATM    8  C   UNL     1     -43.223  55.610 -58.400  1.00  0.00     0.042 A 
HETATM    9  C   UNL     1     -43.217  56.657 -59.341  1.00  0.00     0.089 A 
HETATM   10  C   UNL     1     -43.953  56.577 -60.523  1.00  0.00     0.038 A 
HETATM   11  C   UNL     1     -44.730  55.447 -60.770  1.00  0.00     0.003 A 
HETATM   12  C   UNL     1     -44.751  54.399 -59.846  1.00  0.00     0.002 A 
HETATM   13  C   UNL     1     -43.996  54.477 -58.671  1.00  0.00     0.026 A 
BRANCH   9  14
HETATM   14  O   UNL     1     -42.437  57.761 -59.094  1.00  0.00    -0.354 OA
HETATM   15  C   UNL     1     -41.886  58.258 -60.315  1.00  0.00     0.210 C 
ENDBRANCH   9  14
ENDBRANCH   6   8
ENDBRANCH   5   6
ENDBRANCH   1   5
BRANCH   2  16
HETATM   16  C   UNL     1     -41.293  55.050 -52.999  1.00  0.00     0.045 A 
HETATM   17  C   UNL     1     -40.735  53.738 -53.156  1.00  0.00     0.001 A 
HETATM   18  C   UNL     1     -40.263  53.061 -51.999  1.00  0.00    -0.024 A 
HETATM   19  C   UNL     1     -40.606  53.048 -54.391  1.00  0.00     0.014 A 
HETATM   20  C   UNL     1     -39.711  51.772 -52.098  1.00  0.00     0.012 A 
HETATM   21  C   UNL     1     -40.341  53.672 -50.741  1.00  0.00     0.012 A 
HETATM   22  C   UNL     1     -39.608  51.127 -53.326  1.00  0.00     0.001 A 
HETATM   23  C   UNL     1     -40.053  51.764 -54.474  1.00  0.00     0.001 A 
HETATM   24  C   UNL     1     -40.881  54.944 -50.603  1.00  0.00     0.003 A 
HETATM   25  C   UNL     1     -41.354  55.623 -51.721  1.00  0.00     0.030 A 
ENDBRANCH   2  16
TORSDOF 5
ENDMDL
MODEL 6
REMARK VINA RESULT:      -7.8      2.593      4.972
REMARK  5 active torsions:
REMARK  status: ('A' for Active; 'I' for Inactive)
REMARK    1  A    between atoms: O_2  and  C_3 
REMARK    2  A    between atoms: C_4  and  N_5 
REMARK    3  A    between atoms: N_5  and  C_6 
REMARK    4  A    between atoms: C_6  and  C_7 
REMARK       I    between atoms: C_7  and  N_8 
REMARK    5  A    between atoms: N_8  and  C_9 
ROOT
HETATM    1  C   UNL     1     -42.455  55.441 -54.654  1.00  0.00     0.235 C 
HETATM    2  N   UNL     1     -41.156  55.083 -54.328  1.00  0.00    -0.325 N 
HETATM    3  O   UNL     1     -43.482  54.850 -54.323  1.00  0.00    -0.272 OA
HETATM    4  H   UNL     1     -40.448  55.770 -54.535  1.00  0.00     0.169 HD
ENDROOT
BRANCH   1   5
HETATM    5  C   UNL     1     -42.550  56.729 -55.490  1.00  0.00     0.195 C 
BRANCH   5   6
HETATM    6  N   UNL     1     -43.138  57.803 -54.676  1.00  0.00    -0.282 NA
HETATM    7  H   UNL     1     -43.275  58.648 -55.246  1.00  0.00     0.128 HD
BRANCH   6   8
HETATM    8  C   UNL     1     -42.341  58.184 -53.572  1.00  0.00     0.042 A 
HETATM    9  C   UNL     1     -42.891  58.169 -52.275  1.00  0.00     0.089 A 
HETATM   10  C   UNL     1     -42.129  58.511 -51.158  1.00  0.00     0.038 A 
HETATM   11  C   UNL     1     -40.801  58.896 -51.327  1.00  0.00     0.003 A 
HETATM   12  C   UNL     1     -40.239  58.919 -52.606  1.00  0.00     0.002 A 
HETATM   13  C   UNL     1     -41.002  58.558 -53.720  1.00  0.00     0.026 A 
BRANCH   9  14
HETATM   14  O   UNL     1     -44.198  57.775 -52.118  1.00  0.00    -0.354 OA
HETATM   15  C   UNL     1     -44.296  56.799 -51.079  1.00  0.00     0.210 C 
ENDBRANCH   9  14
ENDBRANCH   6   8
ENDBRANCH   5   6
ENDBRANCH   1   5
BRANCH   2  16
HETATM   16  C   UNL     1     -40.716  53.907 -53.662  1.00  0.00     0.045 A 
HETATM   17  C   UNL     1     -40.699  53.868 -52.228  1.00  0.00     0.001 A 
HETATM   18  C   UNL     1     -40.220  52.692 -51.589  1.00  0.00    -0.024 A 
HETATM   19  C   UNL     1     -41.132  54.920 -51.378  1.00  0.00     0.014 A 
HETATM   20  C   UNL     1     -40.178  52.606 -50.187  1.00  0.00     0.012 A 
HETATM   21  C   UNL     1     -39.783  51.601 -52.350  1.00  0.00     0.012 A 
HETATM   22  C   UNL     1     -40.607  53.661 -49.389  1.00  0.00     0.001 A 
HETATM   23  C   UNL     1     -41.085  54.818 -49.983  1.00  0.00     0.001 A 
HETATM   24  C   UNL     1     -39.807  51.650 -53.738  1.00  0.00     0.003 A 
HETATM   25  C   UNL     1     -40.267  52.793 -54.386  1.00  0.00     0.030 A 
ENDBRANCH   2  16
TORSDOF 5
ENDMDL
MODEL 7
REMARK VINA RESULT:      -7.7      2.527      4.944
REMARK  5 active torsions:
REMARK  status: ('A' for Active; 'I' for Inactive)
REMARK    1  A    between atoms: O_2  and  C_3 
REMARK    2  A    between atoms: C_4  and  N_5 
REMARK    3  A    between atoms: N_5  and  C_6 
REMARK    4  A    between atoms: C_6  and  C_7 
REMARK       I    between atoms: C_7  and  N_8 
REMARK    5  A    between atoms: N_8  and  C_9 
ROOT
HETATM    1  C   UNL     1     -41.724  55.349 -54.910  1.00  0.00     0.235 C 
HETATM    2  N   UNL     1     -42.103  54.291 -54.099  1.00  0.00    -0.325 N 
HETATM    3  O   UNL     1     -40.579  55.763 -55.085  1.00  0.00    -0.272 OA
HETATM    4  H   UNL     1     -43.056  53.978 -54.204  1.00  0.00     0.169 HD
ENDROOT
BRANCH   1   5
HETATM    5  C   UNL     1     -42.898  56.007 -55.657  1.00  0.00     0.195 C 
BRANCH   5   6
HETATM    6  N   UNL     1     -42.936  57.443 -55.349  1.00  0.00    -0.282 NA
HETATM    7  H   UNL     1     -42.023  57.875 -55.544  1.00  0.00     0.128 HD
BRANCH   6   8
HETATM    8  C   UNL     1     -43.239  57.729 -53.997  1.00  0.00     0.042 A 
HETATM    9  C   UNL     1     -42.333  58.480 -53.222  1.00  0.00     0.089 A 
HETATM   10  C   UNL     1     -42.609  58.807 -51.895  1.00  0.00     0.038 A 
HETATM   11  C   UNL     1     -43.796  58.364 -51.313  1.00  0.00     0.003 A 
HETATM   12  C   UNL     1     -44.704  57.616 -52.066  1.00  0.00     0.002 A 
HETATM   13  C   UNL     1     -44.431  57.307 -53.402  1.00  0.00     0.026 A 
BRANCH   9  14
HETATM   14  O   UNL     1     -41.172  58.923 -53.809  1.00  0.00    -0.354 OA
HETATM   15  C   UNL     1     -40.078  58.789 -52.900  1.00  0.00     0.210 C 
ENDBRANCH   9  14
ENDBRANCH   6   8
ENDBRANCH   5   6
ENDBRANCH   1   5
BRANCH   2  16
HETATM   16  C   UNL     1     -41.291  53.543 -53.203  1.00  0.00     0.045 A 
HETATM   17  C   UNL     1     -41.183  53.954 -51.834  1.00  0.00     0.001 A 
HETATM   18  C   UNL     1     -40.335  53.208 -50.969  1.00  0.00    -0.024 A 
HETATM   19  C   UNL     1     -41.865  55.057 -51.256  1.00  0.00     0.014 A 
HETATM   20  C   UNL     1     -40.191  53.572 -49.620  1.00  0.00     0.012 A 
HETATM   21  C   UNL     1     -39.633  52.098 -51.452  1.00  0.00     0.012 A 
HETATM   22  C   UNL     1     -40.873  54.664 -49.092  1.00  0.00     0.001 A 
HETATM   23  C   UNL     1     -41.712  55.406 -49.909  1.00  0.00     0.001 A 
HETATM   24  C   UNL     1     -39.748  51.708 -52.780  1.00  0.00     0.003 A 
HETATM   25  C   UNL     1     -40.568  52.426 -53.646  1.00  0.00     0.030 A 
ENDBRANCH   2  16
TORSDOF 5
ENDMDL
MODEL 8
REMARK VINA RESULT:      -7.6      2.554      4.200
REMARK  5 active torsions:
REMARK  status: ('A' for Active; 'I' for Inactive)
REMARK    1  A    between atoms: O_2  and  C_3 
REMARK    2  A    between atoms: C_4  and  N_5 
REMARK    3  A    between atoms: N_5  and  C_6 
REMARK    4  A    between atoms: C_6  and  C_7 
REMARK       I    between atoms: C_7  and  N_8 
REMARK    5  A    between atoms: N_8  and  C_9 
ROOT
HETATM    1  C   UNL     1     -41.161  55.194 -54.897  1.00  0.00     0.235 C 
HETATM    2  N   UNL     1     -41.759  54.431 -53.907  1.00  0.00    -0.325 N 
HETATM    3  O   UNL     1     -39.954  55.349 -55.073  1.00  0.00    -0.272 OA
HETATM    4  H   UNL     1     -42.750  54.275 -54.012  1.00  0.00     0.169 HD
ENDROOT
BRANCH   1   5
HETATM    5  C   UNL     1     -42.165  55.864 -55.852  1.00  0.00     0.195 C 
BRANCH   5   6
HETATM    6  N   UNL     1     -42.149  57.319 -55.645  1.00  0.00    -0.282 NA
HETATM    7  H   UNL     1     -41.181  57.660 -55.583  1.00  0.00     0.128 HD
BRANCH   6   8
HETATM    8  C   UNL     1     -42.801  57.734 -54.461  1.00  0.00     0.042 A 
HETATM    9  C   UNL     1     -42.164  58.643 -53.594  1.00  0.00     0.089 A 
HETATM   10  C   UNL     1     -42.786  59.098 -52.432  1.00  0.00     0.038 A 
HETATM   11  C   UNL     1     -44.057  58.628 -52.107  1.00  0.00     0.003 A 
HETATM   12  C   UNL     1     -44.703  57.724 -52.953  1.00  0.00     0.002 A 
HETATM   13  C   UNL     1     -44.082  57.286 -54.127  1.00  0.00     0.026 A 
BRANCH   9  14
HETATM   14  O   UNL     1     -40.916  59.110 -53.931  1.00  0.00    -0.354 OA
HETATM   15  C   UNL     1     -39.986  58.829 -52.884  1.00  0.00     0.210 C 
ENDBRANCH   9  14
ENDBRANCH   6   8
ENDBRANCH   5   6
ENDBRANCH   1   5
BRANCH   2  16
HETATM   16  C   UNL     1     -41.132  53.772 -52.815  1.00  0.00     0.045 A 
HETATM   17  C   UNL     1     -40.595  52.454 -52.996  1.00  0.00     0.001 A 
HETATM   18  C   UNL     1     -40.006  51.805 -51.877  1.00  0.00    -0.024 A 
HETATM   19  C   UNL     1     -40.598  51.732 -54.218  1.00  0.00     0.014 A 
HETATM   20  C   UNL     1     -39.470  50.512 -52.000  1.00  0.00     0.012 A 
HETATM   21  C   UNL     1     -39.950  52.448 -50.634  1.00  0.00     0.012 A 
HETATM   22  C   UNL     1     -39.497  49.835 -53.215  1.00  0.00     0.001 A 
HETATM   23  C   UNL     1     -40.059  50.444 -54.325  1.00  0.00     0.001 A 
HETATM   24  C   UNL     1     -40.470  53.725 -50.473  1.00  0.00     0.003 A 
HETATM   25  C   UNL     1     -41.057  54.378 -51.553  1.00  0.00     0.030 A 
ENDBRANCH   2  16
TORSDOF 5
ENDMDL
MODEL 9
REMARK VINA RESULT:      -7.4      1.686      7.902
REMARK  5 active torsions:
REMARK  status: ('A' for Active; 'I' for Inactive)
REMARK    1  A    between atoms: O_2  and  C_3 
REMARK    2  A    between atoms: C_4  and  N_5 
REMARK    3  A    between atoms: N_5  and  C_6 
REMARK    4  A    between atoms: C_6  and  C_7 
REMARK       I    between atoms: C_7  and  N_8 
REMARK    5  A    between atoms: N_8  and  C_9 
ROOT
HETATM    1  C   UNL     1     -42.318  55.976 -55.512  1.00  0.00     0.235 C 
HETATM    2  N   UNL     1     -42.121  56.501 -56.779  1.00  0.00    -0.325 N 
HETATM    3  O   UNL     1     -43.380  55.938 -54.892  1.00  0.00    -0.272 OA
HETATM    4  H   UNL     1     -41.230  56.296 -57.204  1.00  0.00     0.169 HD
ENDROOT
BRANCH   1   5
HETATM    5  C   UNL     1     -41.047  55.374 -54.887  1.00  0.00     0.195 C 
BRANCH   5   6
HETATM    6  N   UNL     1     -41.352  54.861 -53.544  1.00  0.00    -0.282 NA
HETATM    7  H   UNL     1     -41.034  55.526 -52.828  1.00  0.00     0.128 HD
BRANCH   6   8
HETATM    8  C   UNL     1     -40.732  53.623 -53.252  1.00  0.00     0.042 A 
HETATM    9  C   UNL     1     -40.264  53.368 -51.949  1.00  0.00     0.089 A 
HETATM   10  C   UNL     1     -39.674  52.149 -51.614  1.00  0.00     0.038 A 
HETATM   11  C   UNL     1     -39.522  51.170 -52.593  1.00  0.00     0.003 A 
HETATM   12  C   UNL     1     -39.978  51.407 -53.892  1.00  0.00     0.002 A 
HETATM   13  C   UNL     1     -40.586  52.624 -54.218  1.00  0.00     0.026 A 
BRANCH   9  14
HETATM   14  O   UNL     1     -40.431  54.335 -50.986  1.00  0.00    -0.354 OA
HETATM   15  C   UNL     1     -39.965  53.858 -49.723  1.00  0.00     0.210 C 
ENDBRANCH   9  14
ENDBRANCH   6   8
ENDBRANCH   5   6
ENDBRANCH   1   5
BRANCH   2  16
HETATM   16  C   UNL     1     -43.052  57.215 -57.582  1.00  0.00     0.045 A 
HETATM   17  C   UNL     1     -43.792  56.521 -58.596  1.00  0.00     0.001 A 
HETATM   18  C   UNL     1     -44.689  57.267 -59.409  1.00  0.00    -0.024 A 
HETATM   19  C   UNL     1     -43.708  55.128 -58.859  1.00  0.00     0.014 A 
HETATM   20  C   UNL     1     -45.434  56.635 -60.418  1.00  0.00     0.012 A 
HETATM   21  C   UNL     1     -44.843  58.644 -59.211  1.00  0.00     0.012 A 
HETATM   22  C   UNL     1     -45.319  55.268 -60.649  1.00  0.00     0.001 A 
HETATM   23  C   UNL     1     -44.458  54.513 -59.868  1.00  0.00     0.001 A 
HETATM   24  C   UNL     1     -44.123  59.304 -58.224  1.00  0.00     0.003 A 
HETATM   25  C   UNL     1     -43.235  58.596 -57.420  1.00  0.00     0.030 A 
ENDBRANCH   2  16
TORSDOF 5
ENDMDL
MODEL 10
REMARK VINA RESULT:      -7.4      2.987      7.224
REMARK  5 active torsions:
REMARK  status: ('A' for Active; 'I' for Inactive)
REMARK    1  A    between atoms: O_2  and  C_3 
REMARK    2  A    between atoms: C_4  and  N_5 
REMARK    3  A    between atoms: N_5  and  C_6 
REMARK    4  A    between atoms: C_6  and  C_7 
REMARK       I    between atoms: C_7  and  N_8 
REMARK    5  A    between atoms: N_8  and  C_9 
ROOT
HETATM    1  C   UNL     1     -42.445  55.063 -54.350  1.00  0.00     0.235 C 
HETATM    2  N   UNL     1     -41.486  56.062 -54.389  1.00  0.00    -0.325 N 
HETATM    3  O   UNL     1     -43.657  55.217 -54.200  1.00  0.00    -0.272 OA
HETATM    4  H   UNL     1     -40.567  55.776 -54.690  1.00  0.00     0.169 HD
ENDROOT
BRANCH   1   5
HETATM    5  C   UNL     1     -41.874  53.649 -54.550  1.00  0.00     0.195 C 
BRANCH   5   6
HETATM    6  N   UNL     1     -40.549  53.557 -53.919  1.00  0.00    -0.282 NA
HETATM    7  H   UNL     1     -39.818  53.853 -54.579  1.00  0.00     0.128 HD
BRANCH   6   8
HETATM    8  C   UNL     1     -40.208  52.252 -53.493  1.00  0.00     0.042 A 
HETATM    9  C   UNL     1     -39.813  52.034 -52.160  1.00  0.00     0.089 A 
HETATM   10  C   UNL     1     -39.496  50.757 -51.695  1.00  0.00     0.038 A 
HETATM   11  C   UNL     1     -39.551  49.676 -52.573  1.00  0.00     0.003 A 
HETATM   12  C   UNL     1     -39.939  49.875 -53.900  1.00  0.00     0.002 A 
HETATM   13  C   UNL     1     -40.273  51.154 -54.355  1.00  0.00     0.026 A 
BRANCH   9  14
HETATM   14  O   UNL     1     -39.775  53.104 -51.299  1.00  0.00    -0.354 OA
HETATM   15  C   UNL     1     -40.394  52.760 -50.058  1.00  0.00     0.210 C 
ENDBRANCH   9  14
ENDBRANCH   6   8
ENDBRANCH   5   6
ENDBRANCH   1   5
BRANCH   2  16
HETATM   16  C   UNL     1     -41.661  57.451 -54.139  1.00  0.00     0.045 A 
HETATM   17  C   UNL     1     -41.472  57.961 -52.811  1.00  0.00     0.001 A 
HETATM   18  C   UNL     1     -41.689  59.347 -52.582  1.00  0.00    -0.024 A 
HETATM   19  C   UNL     1     -41.076  57.188 -51.688  1.00  0.00     0.014 A 
HETATM   20  C   UNL     1     -41.522  59.896 -51.300  1.00  0.00     0.012 A 
HETATM   21  C   UNL     1     -42.071  60.186 -53.636  1.00  0.00     0.012 A 
HETATM   22  C   UNL     1     -41.138  59.103 -50.223  1.00  0.00     0.001 A 
HETATM   23  C   UNL     1     -40.913  57.749 -50.416  1.00  0.00     0.001 A 
HETATM   24  C   UNL     1     -42.247  59.681 -54.918  1.00  0.00     0.003 A 
HETATM   25  C   UNL     1     -42.046  58.326 -55.164  1.00  0.00     0.030 A 
ENDBRANCH   2  16
TORSDOF 5
ENDMDL
