MODEL 1
REMARK VINA RESULT:      -9.1      0.000      0.000
REMARK  4 active torsions:
REMARK  status: ('A' for Active; 'I' for Inactive)
REMARK    1  A    between atoms: C_5  and  N_6 
REMARK       I    between atoms: N_6  and  C_7 
REMARK    2  A    between atoms: C_7  and  C_8 
REMARK    3  A    between atoms: N_12  and  C_13 
REMARK    4  A    between atoms: C_24  and  O_25 
ROOT
HETATM    1  C   UNL     1     -42.327  55.997 -55.394  1.00  0.00     0.034 A 
HETATM    2  C   UNL     1     -41.665  54.792 -55.648  1.00  0.00     0.049 A 
HETATM    3  C   UNL     1     -41.257  54.061 -54.551  1.00  0.00     0.064 A 
HETATM    4  C   UNL     1     -41.482  54.450 -53.225  1.00  0.00     0.066 A 
HETATM    5  N   UNL     1     -40.934  53.449 -52.393  1.00  0.00    -0.293 N 
HETATM    6  C   UNL     1     -40.300  52.488 -53.228  1.00  0.00     0.328 A 
HETATM    7  O   UNL     1     -39.642  51.516 -52.898  1.00  0.00    -0.247 OA
HETATM    8  N   UNL     1     -40.555  52.867 -54.548  1.00  0.00    -0.306 N 
HETATM    9  C   UNL     1     -42.134  55.636 -52.965  1.00  0.00     0.033 A 
HETATM   10  C   UNL     1     -42.562  56.406 -54.059  1.00  0.00     0.019 A 
HETATM   11  H   UNL     1     -40.212  52.350 -55.342  1.00  0.00     0.171 HD
ENDROOT
BRANCH   1  12
HETATM   12  C   UNL     1     -42.832  56.875 -56.487  1.00  0.00     0.252 C 
HETATM   13  N   UNL     1     -44.191  56.897 -56.695  1.00  0.00    -0.346 N 
HETATM   14  H   UNL     1     -44.825  56.341 -56.141  1.00  0.00     0.163 HD
HETATM   15  O   UNL     1     -42.053  57.547 -57.152  1.00  0.00    -0.268 OA
BRANCH  13  16
HETATM   16  C   UNL     1     -44.785  57.745 -57.712  1.00  0.00     0.147 C 
HETATM   17  C   UNL     1     -45.211  56.964 -58.927  1.00  0.00    -0.027 A 
HETATM   18  C   UNL     1     -46.471  57.381 -59.370  1.00  0.00    -0.047 A 
HETATM   19  C   UNL     1     -44.500  55.994 -59.621  1.00  0.00     0.010 A 
HETATM   20  C   UNL     1     -47.053  56.824 -60.498  1.00  0.00     0.008 A 
HETATM   21  C   UNL     1     -47.011  58.492 -58.519  1.00  0.00     0.073 C 
HETATM   22  C   UNL     1     -46.354  55.829 -61.185  1.00  0.00     0.001 A 
HETATM   23  C   UNL     1     -45.084  55.420 -60.751  1.00  0.00     0.001 A 
HETATM   24  C   UNL     1     -46.130  58.392 -57.262  1.00  0.00     0.149 C 
BRANCH  24  25
HETATM   25  O   UNL     1     -46.810  57.582 -56.286  1.00  0.00    -0.393 OA
HETATM   26  H   UNL     1     -46.346  57.745 -55.447  1.00  0.00     0.210 HD
ENDBRANCH  24  25
ENDBRANCH  13  16
ENDBRANCH   1  12
BRANCH   5  27
HETATM   27  C   UNL     1     -40.776  53.420 -50.954  1.00  0.00     0.095 C 
HETATM   28  C   UNL     1     -39.484  53.960 -50.344  1.00  0.00     0.026 C 
HETATM   29  C   UNL     1     -39.843  54.149 -48.878  1.00  0.00     0.002 C 
HETATM   30  C   UNL     1     -41.235  54.754 -48.928  1.00  0.00     0.002 C 
HETATM   31  C   UNL     1     -41.865  54.232 -50.219  1.00  0.00     0.026 C 
ENDBRANCH   5  27
TORSDOF 4
ENDMDL
MODEL 2
REMARK VINA RESULT:      -9.1      1.410      2.563
REMARK  4 active torsions:
REMARK  status: ('A' for Active; 'I' for Inactive)
REMARK    1  A    between atoms: C_5  and  N_6 
REMARK       I    between atoms: N_6  and  C_7 
REMARK    2  A    between atoms: C_7  and  C_8 
REMARK    3  A    between atoms: N_12  and  C_13 
REMARK    4  A    between atoms: C_24  and  O_25 
ROOT
HETATM    1  C   UNL     1     -41.935  56.085 -54.888  1.00  0.00     0.034 A 
HETATM    2  C   UNL     1     -41.950  56.216 -53.496  1.00  0.00     0.049 A 
HETATM    3  C   UNL     1     -41.335  55.217 -52.769  1.00  0.00     0.064 A 
HETATM    4  C   UNL     1     -40.696  54.112 -53.344  1.00  0.00     0.066 A 
HETATM    5  N   UNL     1     -40.183  53.325 -52.289  1.00  0.00    -0.293 N 
HETATM    6  C   UNL     1     -40.589  53.922 -51.064  1.00  0.00     0.328 A 
HETATM    7  O   UNL     1     -40.422  53.508 -49.929  1.00  0.00    -0.247 OA
HETATM    8  N   UNL     1     -41.256  55.106 -51.390  1.00  0.00    -0.306 N 
HETATM    9  C   UNL     1     -40.676  53.976 -54.715  1.00  0.00     0.033 A 
HETATM   10  C   UNL     1     -41.294  54.973 -55.486  1.00  0.00     0.019 A 
HETATM   11  H   UNL     1     -41.648  55.721 -50.698  1.00  0.00     0.171 HD
ENDROOT
BRANCH   1  12
HETATM   12  C   UNL     1     -42.550  57.099 -55.791  1.00  0.00     0.252 C 
HETATM   13  N   UNL     1     -43.613  56.689 -56.560  1.00  0.00    -0.346 N 
HETATM   14  H   UNL     1     -43.963  55.744 -56.527  1.00  0.00     0.163 HD
HETATM   15  O   UNL     1     -42.118  58.244 -55.821  1.00  0.00    -0.268 OA
BRANCH  13  16
HETATM   16  C   UNL     1     -44.302  57.610 -57.446  1.00  0.00     0.147 C 
HETATM   17  C   UNL     1     -44.903  56.913 -58.637  1.00  0.00    -0.027 A 
HETATM   18  C   UNL     1     -46.194  57.387 -58.893  1.00  0.00    -0.047 A 
HETATM   19  C   UNL     1     -44.317  55.967 -59.468  1.00  0.00     0.010 A 
HETATM   20  C   UNL     1     -46.932  56.912 -59.966  1.00  0.00     0.008 A 
HETATM   21  C   UNL     1     -46.586  58.460 -57.920  1.00  0.00     0.073 C 
HETATM   22  C   UNL     1     -46.357  55.941 -60.789  1.00  0.00     0.001 A 
HETATM   23  C   UNL     1     -45.057  55.475 -60.544  1.00  0.00     0.001 A 
HETATM   24  C   UNL     1     -45.558  58.265 -56.793  1.00  0.00     0.149 C 
BRANCH  24  25
HETATM   25  O   UNL     1     -46.136  57.416 -55.784  1.00  0.00    -0.393 OA
HETATM   26  H   UNL     1     -46.675  56.768 -56.271  1.00  0.00     0.210 HD
ENDBRANCH  24  25
ENDBRANCH  13  16
ENDBRANCH   1  12
BRANCH   5  27
HETATM   27  C   UNL     1     -39.558  52.019 -52.323  1.00  0.00     0.095 C 
HETATM   28  C   UNL     1     -39.957  50.985 -51.271  1.00  0.00     0.026 C 
HETATM   29  C   UNL     1     -39.442  49.678 -51.855  1.00  0.00     0.002 C 
HETATM   30  C   UNL     1     -39.808  49.777 -53.326  1.00  0.00     0.002 C 
HETATM   31  C   UNL     1     -39.812  51.272 -53.650  1.00  0.00     0.026 C 
ENDBRANCH   5  27
TORSDOF 4
ENDMDL
MODEL 3
REMARK VINA RESULT:      -8.9      2.493      4.055
REMARK  4 active torsions:
REMARK  status: ('A' for Active; 'I' for Inactive)
REMARK    1  A    between atoms: C_5  and  N_6 
REMARK       I    between atoms: N_6  and  C_7 
REMARK    2  A    between atoms: C_7  and  C_8 
REMARK    3  A    between atoms: N_12  and  C_13 
REMARK    4  A    between atoms: C_24  and  O_25 
ROOT
HETATM    1  C   UNL     1     -42.300  55.475 -54.535  1.00  0.00     0.034 A 
HETATM    2  C   UNL     1     -41.992  55.913 -53.243  1.00  0.00     0.049 A 
HETATM    3  C   UNL     1     -41.255  55.056 -52.452  1.00  0.00     0.064 A 
HETATM    4  C   UNL     1     -40.795  53.804 -52.876  1.00  0.00     0.066 A 
HETATM    5  N   UNL     1     -40.075  53.232 -51.803  1.00  0.00    -0.293 N 
HETATM    6  C   UNL     1     -40.174  54.118 -50.694  1.00  0.00     0.328 A 
HETATM    7  O   UNL     1     -39.762  53.955 -49.558  1.00  0.00    -0.247 OA
HETATM    8  N   UNL     1     -40.865  55.248 -51.137  1.00  0.00    -0.306 N 
HETATM    9  C   UNL     1     -41.092  53.364 -54.148  1.00  0.00     0.033 A 
HETATM   10  C   UNL     1     -41.843  54.211 -54.979  1.00  0.00     0.019 A 
HETATM   11  H   UNL     1     -41.072  56.032 -50.540  1.00  0.00     0.171 HD
ENDROOT
BRANCH   1  12
HETATM   12  C   UNL     1     -43.078  56.309 -55.495  1.00  0.00     0.252 C 
HETATM   13  N   UNL     1     -42.527  56.508 -56.739  1.00  0.00    -0.346 N 
HETATM   14  H   UNL     1     -41.633  56.117 -56.996  1.00  0.00     0.163 HD
HETATM   15  O   UNL     1     -44.162  56.776 -55.172  1.00  0.00    -0.268 OA
BRANCH  13  16
HETATM   16  C   UNL     1     -43.221  57.276 -57.756  1.00  0.00     0.147 C 
HETATM   17  C   UNL     1     -42.580  58.617 -57.995  1.00  0.00    -0.027 A 
HETATM   18  C   UNL     1     -42.502  58.896 -59.363  1.00  0.00    -0.047 A 
HETATM   19  C   UNL     1     -42.152  59.546 -57.056  1.00  0.00     0.010 A 
HETATM   20  C   UNL     1     -41.976  60.094 -59.821  1.00  0.00     0.008 A 
HETATM   21  C   UNL     1     -43.098  57.789 -60.183  1.00  0.00     0.073 C 
HETATM   22  C   UNL     1     -41.521  61.021 -58.882  1.00  0.00     0.001 A 
HETATM   23  C   UNL     1     -41.611  60.751 -57.508  1.00  0.00     0.001 A 
HETATM   24  C   UNL     1     -43.142  56.629 -59.173  1.00  0.00     0.149 C 
BRANCH  24  25
HETATM   25  O   UNL     1     -41.951  55.836 -59.330  1.00  0.00    -0.393 OA
HETATM   26  H   UNL     1     -41.458  55.944 -58.498  1.00  0.00     0.210 HD
ENDBRANCH  24  25
ENDBRANCH  13  16
ENDBRANCH   1  12
BRANCH   5  27
HETATM   27  C   UNL     1     -39.510  51.907 -51.663  1.00  0.00     0.095 C 
HETATM   28  C   UNL     1     -40.120  50.950 -50.640  1.00  0.00     0.026 C 
HETATM   29  C   UNL     1     -39.573  49.595 -51.060  1.00  0.00     0.002 C 
HETATM   30  C   UNL     1     -39.688  49.619 -52.574  1.00  0.00     0.002 C 
HETATM   31  C   UNL     1     -39.575  51.091 -52.973  1.00  0.00     0.026 C 
ENDBRANCH   5  27
TORSDOF 4
ENDMDL
MODEL 4
REMARK VINA RESULT:      -8.5      3.372      8.702
REMARK  4 active torsions:
REMARK  status: ('A' for Active; 'I' for Inactive)
REMARK    1  A    between atoms: C_5  and  N_6 
REMARK       I    between atoms: N_6  and  C_7 
REMARK    2  A    between atoms: C_7  and  C_8 
REMARK    3  A    between atoms: N_12  and  C_13 
REMARK    4  A    between atoms: C_24  and  O_25 
ROOT
HETATM    1  C   UNL     1     -42.835  57.256 -55.826  1.00  0.00     0.034 A 
HETATM    2  C   UNL     1     -42.611  56.817 -57.135  1.00  0.00     0.049 A 
HETATM    3  C   UNL     1     -42.311  57.784 -58.073  1.00  0.00     0.064 A 
HETATM    4  C   UNL     1     -42.205  59.149 -57.783  1.00  0.00     0.066 A 
HETATM    5  N   UNL     1     -41.876  59.813 -58.985  1.00  0.00    -0.293 N 
HETATM    6  C   UNL     1     -41.865  58.844 -60.027  1.00  0.00     0.328 A 
HETATM    7  O   UNL     1     -41.706  59.022 -61.223  1.00  0.00    -0.247 OA
HETATM    8  N   UNL     1     -42.090  57.602 -59.429  1.00  0.00    -0.306 N 
HETATM    9  C   UNL     1     -42.423  59.589 -56.495  1.00  0.00     0.033 A 
HETATM   10  C   UNL     1     -42.733  58.633 -55.515  1.00  0.00     0.019 A 
HETATM   11  H   UNL     1     -42.132  56.743 -59.951  1.00  0.00     0.171 HD
ENDROOT
BRANCH   1  12
HETATM   12  C   UNL     1     -43.154  56.315 -54.714  1.00  0.00     0.252 C 
HETATM   13  N   UNL     1     -42.125  55.540 -54.236  1.00  0.00    -0.346 N 
HETATM   14  H   UNL     1     -41.193  55.593 -54.619  1.00  0.00     0.163 HD
HETATM   15  O   UNL     1     -44.288  56.261 -54.256  1.00  0.00    -0.268 OA
BRANCH  13  16
HETATM   16  C   UNL     1     -42.325  54.618 -53.133  1.00  0.00     0.147 C 
HETATM   17  C   UNL     1     -41.313  53.504 -53.130  1.00  0.00    -0.027 A 
HETATM   18  C   UNL     1     -40.837  53.265 -51.836  1.00  0.00    -0.047 A 
HETATM   19  C   UNL     1     -40.890  52.721 -54.197  1.00  0.00     0.010 A 
HETATM   20  C   UNL     1     -39.919  52.258 -51.585  1.00  0.00     0.008 A 
HETATM   21  C   UNL     1     -41.492  54.172 -50.836  1.00  0.00     0.073 C 
HETATM   22  C   UNL     1     -39.471  51.485 -52.658  1.00  0.00     0.001 A 
HETATM   23  C   UNL     1     -39.956  51.712 -53.954  1.00  0.00     0.001 A 
HETATM   24  C   UNL     1     -42.084  55.270 -51.737  1.00  0.00     0.149 C 
BRANCH  24  25
HETATM   25  O   UNL     1     -41.146  56.359 -51.814  1.00  0.00    -0.393 OA
HETATM   26  H   UNL     1     -40.439  56.048 -52.407  1.00  0.00     0.210 HD
ENDBRANCH  24  25
ENDBRANCH  13  16
ENDBRANCH   1  12
BRANCH   5  27
HETATM   27  C   UNL     1     -41.782  61.229 -59.270  1.00  0.00     0.095 C 
HETATM   28  C   UNL     1     -42.973  62.127 -58.939  1.00  0.00     0.026 C 
HETATM   29  C   UNL     1     -42.377  63.526 -58.976  1.00  0.00     0.002 C 
HETATM   30  C   UNL     1     -41.042  63.361 -58.270  1.00  0.00     0.002 C 
HETATM   31  C   UNL     1     -40.621  61.912 -58.516  1.00  0.00     0.026 C 
ENDBRANCH   5  27
TORSDOF 4
ENDMDL
MODEL 5
REMARK VINA RESULT:      -8.2      3.298      4.678
REMARK  4 active torsions:
REMARK  status: ('A' for Active; 'I' for Inactive)
REMARK    1  A    between atoms: C_5  and  N_6 
REMARK       I    between atoms: N_6  and  C_7 
REMARK    2  A    between atoms: C_7  and  C_8 
REMARK    3  A    between atoms: N_12  and  C_13 
REMARK    4  A    between atoms: C_24  and  O_25 
ROOT
HETATM    1  C   UNL     1     -43.286  57.046 -56.004  1.00  0.00     0.034 A 
HETATM    2  C   UNL     1     -43.867  56.962 -54.734  1.00  0.00     0.049 A 
HETATM    3  C   UNL     1     -43.446  55.928 -53.923  1.00  0.00     0.064 A 
HETATM    4  C   UNL     1     -42.475  54.990 -54.293  1.00  0.00     0.066 A 
HETATM    5  N   UNL     1     -42.307  54.104 -53.206  1.00  0.00    -0.293 N 
HETATM    6  C   UNL     1     -43.247  54.466 -52.202  1.00  0.00     0.328 A 
HETATM    7  O   UNL     1     -43.480  53.902 -51.146  1.00  0.00    -0.247 OA
HETATM    8  N   UNL     1     -43.900  55.616 -52.652  1.00  0.00    -0.306 N 
HETATM    9  C   UNL     1     -41.897  55.066 -55.542  1.00  0.00     0.033 A 
HETATM   10  C   UNL     1     -42.303  56.106 -56.395  1.00  0.00     0.019 A 
HETATM   11  H   UNL     1     -44.621  56.079 -52.123  1.00  0.00     0.171 HD
ENDROOT
BRANCH   1  12
HETATM   12  C   UNL     1     -43.641  58.123 -56.973  1.00  0.00     0.252 C 
HETATM   13  N   UNL     1     -42.865  58.227 -58.103  1.00  0.00    -0.346 N 
HETATM   14  H   UNL     1     -42.085  57.611 -58.274  1.00  0.00     0.163 HD
HETATM   15  O   UNL     1     -44.592  58.863 -56.755  1.00  0.00    -0.268 OA
BRANCH  13  16
HETATM   16  C   UNL     1     -43.149  59.219 -59.123  1.00  0.00     0.147 C 
HETATM   17  C   UNL     1     -42.177  60.368 -59.087  1.00  0.00    -0.027 A 
HETATM   18  C   UNL     1     -41.773  60.719 -60.380  1.00  0.00    -0.047 A 
HETATM   19  C   UNL     1     -41.731  61.085 -57.986  1.00  0.00     0.010 A 
HETATM   20  C   UNL     1     -40.902  61.775 -60.596  1.00  0.00     0.008 A 
HETATM   21  C   UNL     1     -42.443  59.864 -61.415  1.00  0.00     0.073 C 
HETATM   22  C   UNL     1     -40.429  62.483 -59.489  1.00  0.00     0.001 A 
HETATM   23  C   UNL     1     -40.844  62.143 -58.193  1.00  0.00     0.001 A 
HETATM   24  C   UNL     1     -42.954  58.681 -60.574  1.00  0.00     0.149 C 
BRANCH  24  25
HETATM   25  O   UNL     1     -41.976  57.626 -60.622  1.00  0.00    -0.393 OA
HETATM   26  H   UNL     1     -42.304  56.943 -60.010  1.00  0.00     0.210 HD
ENDBRANCH  24  25
ENDBRANCH  13  16
ENDBRANCH   1  12
BRANCH   5  27
HETATM   27  C   UNL     1     -41.532  52.885 -53.111  1.00  0.00     0.095 C 
HETATM   28  C   UNL     1     -40.852  52.345 -54.368  1.00  0.00     0.026 C 
HETATM   29  C   UNL     1     -39.840  51.352 -53.818  1.00  0.00     0.002 C 
HETATM   30  C   UNL     1     -39.255  52.072 -52.615  1.00  0.00     0.002 C 
HETATM   31  C   UNL     1     -40.359  53.002 -52.113  1.00  0.00     0.026 C 
ENDBRANCH   5  27
TORSDOF 4
ENDMDL
MODEL 6
REMARK VINA RESULT:      -8.2     15.472     19.111
REMARK  4 active torsions:
REMARK  status: ('A' for Active; 'I' for Inactive)
REMARK    1  A    between atoms: C_5  and  N_6 
REMARK       I    between atoms: N_6  and  C_7 
REMARK    2  A    between atoms: C_7  and  C_8 
REMARK    3  A    between atoms: N_12  and  C_13 
REMARK    4  A    between atoms: C_24  and  O_25 
ROOT
HETATM    1  C   UNL     1     -35.871  41.289 -55.099  1.00  0.00     0.034 A 
HETATM    2  C   UNL     1     -36.024  42.266 -56.088  1.00  0.00     0.049 A 
HETATM    3  C   UNL     1     -36.519  41.847 -57.307  1.00  0.00     0.064 A 
HETATM    4  C   UNL     1     -36.883  40.525 -57.590  1.00  0.00     0.066 A 
HETATM    5  N   UNL     1     -37.352  40.492 -58.922  1.00  0.00    -0.293 N 
HETATM    6  C   UNL     1     -37.190  41.794 -59.472  1.00  0.00     0.328 A 
HETATM    7  O   UNL     1     -37.396  42.163 -60.616  1.00  0.00    -0.247 OA
HETATM    8  N   UNL     1     -36.720  42.614 -58.443  1.00  0.00    -0.306 N 
HETATM    9  C   UNL     1     -36.737  39.557 -56.621  1.00  0.00     0.033 A 
HETATM   10  C   UNL     1     -36.233  39.947 -55.369  1.00  0.00     0.019 A 
HETATM   11  H   UNL     1     -36.519  43.592 -58.571  1.00  0.00     0.171 HD
ENDROOT
BRANCH   1  12
HETATM   12  C   UNL     1     -35.360  41.609 -53.736  1.00  0.00     0.252 C 
HETATM   13  N   UNL     1     -34.413  40.764 -53.208  1.00  0.00    -0.346 N 
HETATM   14  H   UNL     1     -34.077  39.957 -53.712  1.00  0.00     0.163 HD
HETATM   15  O   UNL     1     -35.774  42.593 -53.135  1.00  0.00    -0.268 OA
BRANCH  13  16
HETATM   16  C   UNL     1     -33.828  41.008 -51.902  1.00  0.00     0.147 C 
HETATM   17  C   UNL     1     -34.416  40.118 -50.840  1.00  0.00    -0.027 A 
HETATM   18  C   UNL     1     -33.415  39.611 -50.005  1.00  0.00    -0.047 A 
HETATM   19  C   UNL     1     -35.753  39.830 -50.600  1.00  0.00     0.010 A 
HETATM   20  C   UNL     1     -33.725  38.791 -48.931  1.00  0.00     0.008 A 
HETATM   21  C   UNL     1     -32.060  40.120 -50.402  1.00  0.00     0.073 C 
HETATM   22  C   UNL     1     -35.066  38.477 -48.701  1.00  0.00     0.001 A 
HETATM   23  C   UNL     1     -36.073  38.996 -49.527  1.00  0.00     0.001 A 
HETATM   24  C   UNL     1     -32.315  40.635 -51.829  1.00  0.00     0.149 C 
BRANCH  24  25
HETATM   25  O   UNL     1     -31.978  39.593 -52.762  1.00  0.00    -0.393 OA
HETATM   26  H   UNL     1     -31.115  39.848 -53.132  1.00  0.00     0.210 HD
ENDBRANCH  24  25
ENDBRANCH  13  16
ENDBRANCH   1  12
BRANCH   5  27
HETATM   27  C   UNL     1     -37.722  39.364 -59.750  1.00  0.00     0.095 C 
HETATM   28  C   UNL     1     -36.713  38.234 -59.949  1.00  0.00     0.026 C 
HETATM   29  C   UNL     1     -37.565  37.096 -60.490  1.00  0.00     0.002 C 
HETATM   30  C   UNL     1     -38.820  37.156 -59.636  1.00  0.00     0.002 C 
HETATM   31  C   UNL     1     -38.966  38.619 -59.219  1.00  0.00     0.026 C 
ENDBRANCH   5  27
TORSDOF 4
ENDMDL
MODEL 7
REMARK VINA RESULT:      -8.0      5.173      7.119
REMARK  4 active torsions:
REMARK  status: ('A' for Active; 'I' for Inactive)
REMARK    1  A    between atoms: C_5  and  N_6 
REMARK       I    between atoms: N_6  and  C_7 
REMARK    2  A    between atoms: C_7  and  C_8 
REMARK    3  A    between atoms: N_12  and  C_13 
REMARK    4  A    between atoms: C_24  and  O_25 
ROOT
HETATM    1  C   UNL     1     -42.956  58.191 -51.884  1.00  0.00     0.034 A 
HETATM    2  C   UNL     1     -43.658  57.786 -53.024  1.00  0.00     0.049 A 
HETATM    3  C   UNL     1     -43.397  56.517 -53.499  1.00  0.00     0.064 A 
HETATM    4  C   UNL     1     -42.499  55.627 -52.899  1.00  0.00     0.066 A 
HETATM    5  N   UNL     1     -42.512  54.436 -53.658  1.00  0.00    -0.293 N 
HETATM    6  C   UNL     1     -43.369  54.643 -54.775  1.00  0.00     0.328 A 
HETATM    7  O   UNL     1     -43.586  53.891 -55.710  1.00  0.00    -0.247 OA
HETATM    8  N   UNL     1     -43.932  55.913 -54.625  1.00  0.00    -0.306 N 
HETATM    9  C   UNL     1     -41.804  56.017 -51.774  1.00  0.00     0.033 A 
HETATM   10  C   UNL     1     -42.043  57.304 -51.265  1.00  0.00     0.019 A 
HETATM   11  H   UNL     1     -44.579  56.306 -55.288  1.00  0.00     0.171 HD
ENDROOT
BRANCH   1  12
HETATM   12  C   UNL     1     -43.153  59.531 -51.260  1.00  0.00     0.252 C 
HETATM   13  N   UNL     1     -44.272  59.699 -50.480  1.00  0.00    -0.346 N 
HETATM   14  H   UNL     1     -44.940  58.956 -50.336  1.00  0.00     0.163 HD
HETATM   15  O   UNL     1     -42.334  60.423 -51.441  1.00  0.00    -0.268 OA
BRANCH  13  16
HETATM   16  C   UNL     1     -44.536  60.955 -49.802  1.00  0.00     0.147 C 
HETATM   17  C   UNL     1     -45.533  61.805 -50.544  1.00  0.00    -0.027 A 
HETATM   18  C   UNL     1     -46.460  62.370 -49.662  1.00  0.00    -0.047 A 
HETATM   19  C   UNL     1     -45.573  62.100 -51.900  1.00  0.00     0.010 A 
HETATM   20  C   UNL     1     -47.456  63.219 -50.118  1.00  0.00     0.008 A 
HETATM   21  C   UNL     1     -46.174  61.979 -48.242  1.00  0.00     0.073 C 
HETATM   22  C   UNL     1     -47.517  63.498 -51.484  1.00  0.00     0.001 A 
HETATM   23  C   UNL     1     -46.579  62.945 -52.369  1.00  0.00     0.001 A 
HETATM   24  C   UNL     1     -45.239  60.770 -48.422  1.00  0.00     0.149 C 
BRANCH  24  25
HETATM   25  O   UNL     1     -46.029  59.568 -48.384  1.00  0.00    -0.393 OA
HETATM   26  H   UNL     1     -46.576  59.644 -47.583  1.00  0.00     0.210 HD
ENDBRANCH  24  25
ENDBRANCH  13  16
ENDBRANCH   1  12
BRANCH   5  27
HETATM   27  C   UNL     1     -41.678  53.257 -53.554  1.00  0.00     0.095 C 
HETATM   28  C   UNL     1     -40.392  53.191 -54.375  1.00  0.00     0.026 C 
HETATM   29  C   UNL     1     -39.615  52.062 -53.715  1.00  0.00     0.002 C 
HETATM   30  C   UNL     1     -39.823  52.308 -52.231  1.00  0.00     0.002 C 
HETATM   31  C   UNL     1     -41.178  53.008 -52.115  1.00  0.00     0.026 C 
ENDBRANCH   5  27
TORSDOF 4
ENDMDL
MODEL 8
REMARK VINA RESULT:      -7.7      1.819      2.673
REMARK  4 active torsions:
REMARK  status: ('A' for Active; 'I' for Inactive)
REMARK    1  A    between atoms: C_5  and  N_6 
REMARK       I    between atoms: N_6  and  C_7 
REMARK    2  A    between atoms: C_7  and  C_8 
REMARK    3  A    between atoms: N_12  and  C_13 
REMARK    4  A    between atoms: C_24  and  O_25 
ROOT
HETATM    1  C   UNL     1     -43.255  56.652 -56.087  1.00  0.00     0.034 A 
HETATM    2  C   UNL     1     -43.864  56.681 -54.828  1.00  0.00     0.049 A 
HETATM    3  C   UNL     1     -43.438  55.743 -53.909  1.00  0.00     0.064 A 
HETATM    4  C   UNL     1     -42.438  54.797 -54.163  1.00  0.00     0.066 A 
HETATM    5  N   UNL     1     -42.275  54.029 -52.989  1.00  0.00    -0.293 N 
HETATM    6  C   UNL     1     -43.246  54.466 -52.046  1.00  0.00     0.328 A 
HETATM    7  O   UNL     1     -43.490  54.004 -50.944  1.00  0.00    -0.247 OA
HETATM    8  N   UNL     1     -43.914  55.549 -52.623  1.00  0.00    -0.306 N 
HETATM    9  C   UNL     1     -41.833  54.763 -55.401  1.00  0.00     0.033 A 
HETATM   10  C   UNL     1     -42.243  55.702 -56.362  1.00  0.00     0.019 A 
HETATM   11  H   UNL     1     -44.657  56.044 -52.158  1.00  0.00     0.171 HD
ENDROOT
BRANCH   1  12
HETATM   12  C   UNL     1     -43.612  57.617 -57.166  1.00  0.00     0.252 C 
HETATM   13  N   UNL     1     -44.892  57.557 -57.662  1.00  0.00    -0.346 N 
HETATM   14  H   UNL     1     -45.565  56.887 -57.322  1.00  0.00     0.163 HD
HETATM   15  O   UNL     1     -42.786  58.427 -57.570  1.00  0.00    -0.268 OA
BRANCH  13  16
HETATM   16  C   UNL     1     -45.347  58.475 -58.690  1.00  0.00     0.147 C 
HETATM   17  C   UNL     1     -46.159  57.785 -59.753  1.00  0.00    -0.027 A 
HETATM   18  C   UNL     1     -47.287  58.541 -60.088  1.00  0.00    -0.047 A 
HETATM   19  C   UNL     1     -45.880  56.596 -60.414  1.00  0.00     0.010 A 
HETATM   20  C   UNL     1     -48.167  58.117 -61.071  1.00  0.00     0.008 A 
HETATM   21  C   UNL     1     -47.340  59.821 -59.307  1.00  0.00     0.073 C 
HETATM   22  C   UNL     1     -47.905  56.910 -61.722  1.00  0.00     0.001 A 
HETATM   23  C   UNL     1     -46.767  56.156 -61.398  1.00  0.00     0.001 A 
HETATM   24  C   UNL     1     -46.356  59.539 -58.159  1.00  0.00     0.149 C 
BRANCH  24  25
HETATM   25  O   UNL     1     -47.097  59.049 -57.027  1.00  0.00    -0.393 OA
HETATM   26  H   UNL     1     -46.484  58.462 -56.552  1.00  0.00     0.210 HD
ENDBRANCH  24  25
ENDBRANCH  13  16
ENDBRANCH   1  12
BRANCH   5  27
HETATM   27  C   UNL     1     -41.475  52.845 -52.756  1.00  0.00     0.095 C 
HETATM   28  C   UNL     1     -40.549  52.351 -53.867  1.00  0.00     0.026 C 
HETATM   29  C   UNL     1     -39.612  51.399 -53.142  1.00  0.00     0.002 C 
HETATM   30  C   UNL     1     -39.294  52.129 -51.849  1.00  0.00     0.002 C 
HETATM   31  C   UNL     1     -40.514  53.002 -51.557  1.00  0.00     0.026 C 
ENDBRANCH   5  27
TORSDOF 4
ENDMDL
MODEL 9
REMARK VINA RESULT:      -7.7     15.849     21.027
REMARK  4 active torsions:
REMARK  status: ('A' for Active; 'I' for Inactive)
REMARK    1  A    between atoms: C_5  and  N_6 
REMARK       I    between atoms: N_6  and  C_7 
REMARK    2  A    between atoms: C_7  and  C_8 
REMARK    3  A    between atoms: N_12  and  C_13 
REMARK    4  A    between atoms: C_24  and  O_25 
ROOT
HETATM    1  C   UNL     1     -33.789  39.001 -50.469  1.00  0.00     0.034 A 
HETATM    2  C   UNL     1     -35.118  39.289 -50.143  1.00  0.00     0.049 A 
HETATM    3  C   UNL     1     -35.893  39.859 -51.133  1.00  0.00     0.064 A 
HETATM    4  C   UNL     1     -35.430  40.140 -52.424  1.00  0.00     0.066 A 
HETATM    5  N   UNL     1     -36.506  40.702 -53.146  1.00  0.00    -0.293 N 
HETATM    6  C   UNL     1     -37.606  40.834 -52.254  1.00  0.00     0.328 A 
HETATM    7  O   UNL     1     -38.691  41.349 -52.463  1.00  0.00    -0.247 OA
HETATM    8  N   UNL     1     -37.214  40.267 -51.039  1.00  0.00    -0.306 N 
HETATM    9  C   UNL     1     -34.122  39.858 -52.753  1.00  0.00     0.033 A 
HETATM   10  C   UNL     1     -33.304  39.280 -51.769  1.00  0.00     0.019 A 
HETATM   11  H   UNL     1     -37.814  40.233 -50.232  1.00  0.00     0.171 HD
ENDROOT
BRANCH   1  12
HETATM   12  C   UNL     1     -32.849  38.373 -49.498  1.00  0.00     0.252 C 
HETATM   13  N   UNL     1     -33.107  38.567 -48.162  1.00  0.00    -0.346 N 
HETATM   14  H   UNL     1     -33.893  39.114 -47.844  1.00  0.00     0.163 HD
HETATM   15  O   UNL     1     -31.900  37.709 -49.896  1.00  0.00    -0.268 OA
BRANCH  13  16
HETATM   16  C   UNL     1     -32.271  37.968 -47.137  1.00  0.00     0.147 C 
HETATM   17  C   UNL     1     -31.423  38.989 -46.426  1.00  0.00    -0.027 A 
HETATM   18  C   UNL     1     -31.421  38.761 -45.046  1.00  0.00    -0.047 A 
HETATM   19  C   UNL     1     -30.661  40.011 -46.977  1.00  0.00     0.010 A 
HETATM   20  C   UNL     1     -30.679  39.558 -44.190  1.00  0.00     0.008 A 
HETATM   21  C   UNL     1     -32.244  37.558 -44.688  1.00  0.00     0.073 C 
HETATM   22  C   UNL     1     -29.932  40.604 -44.736  1.00  0.00     0.001 A 
HETATM   23  C   UNL     1     -29.920  40.826 -46.121  1.00  0.00     0.001 A 
HETATM   24  C   UNL     1     -33.089  37.356 -45.958  1.00  0.00     0.149 C 
BRANCH  24  25
HETATM   25  O   UNL     1     -34.351  38.026 -45.783  1.00  0.00    -0.393 OA
HETATM   26  H   UNL     1     -34.971  37.565 -46.376  1.00  0.00     0.210 HD
ENDBRANCH  24  25
ENDBRANCH  13  16
ENDBRANCH   1  12
BRANCH   5  27
HETATM   27  C   UNL     1     -36.532  41.288 -54.469  1.00  0.00     0.095 C 
HETATM   28  C   UNL     1     -35.442  42.288 -54.854  1.00  0.00     0.026 C 
HETATM   29  C   UNL     1     -35.549  42.353 -56.370  1.00  0.00     0.002 C 
HETATM   30  C   UNL     1     -35.740  40.902 -56.775  1.00  0.00     0.002 C 
HETATM   31  C   UNL     1     -36.436  40.231 -55.591  1.00  0.00     0.026 C 
ENDBRANCH   5  27
TORSDOF 4
ENDMDL
MODEL 10
REMARK VINA RESULT:      -7.7      2.791      8.860
REMARK  4 active torsions:
REMARK  status: ('A' for Active; 'I' for Inactive)
REMARK    1  A    between atoms: C_5  and  N_6 
REMARK       I    between atoms: N_6  and  C_7 
REMARK    2  A    between atoms: C_7  and  C_8 
REMARK    3  A    between atoms: N_12  and  C_13 
REMARK    4  A    between atoms: C_24  and  O_25 
ROOT
HETATM    1  C   UNL     1     -42.882  56.102 -56.547  1.00  0.00     0.034 A 
HETATM    2  C   UNL     1     -43.024  55.192 -57.599  1.00  0.00     0.049 A 
HETATM    3  C   UNL     1     -43.788  55.596 -58.674  1.00  0.00     0.064 A 
HETATM    4  C   UNL     1     -44.399  56.851 -58.771  1.00  0.00     0.066 A 
HETATM    5  N   UNL     1     -45.076  56.897 -60.010  1.00  0.00    -0.293 N 
HETATM    6  C   UNL     1     -44.937  55.624 -60.629  1.00  0.00     0.328 A 
HETATM    7  O   UNL     1     -45.440  55.229 -61.667  1.00  0.00    -0.247 OA
HETATM    8  N   UNL     1     -44.103  54.862 -59.807  1.00  0.00    -0.306 N 
HETATM    9  C   UNL     1     -44.264  57.755 -57.740  1.00  0.00     0.033 A 
HETATM   10  C   UNL     1     -43.495  57.376 -56.627  1.00  0.00     0.019 A 
HETATM   11  H   UNL     1     -43.845  53.913 -60.019  1.00  0.00     0.171 HD
ENDROOT
BRANCH   1  12
HETATM   12  C   UNL     1     -42.074  55.798 -55.332  1.00  0.00     0.252 C 
HETATM   13  N   UNL     1     -42.598  56.177 -54.120  1.00  0.00    -0.346 N 
HETATM   14  H   UNL     1     -43.488  56.648 -54.046  1.00  0.00     0.163 HD
HETATM   15  O   UNL     1     -40.996  55.224 -55.434  1.00  0.00    -0.268 OA
BRANCH  13  16
HETATM   16  C   UNL     1     -41.904  55.895 -52.876  1.00  0.00     0.147 C 
HETATM   17  C   UNL     1     -41.250  57.121 -52.298  1.00  0.00    -0.027 A 
HETATM   18  C   UNL     1     -41.459  57.193 -50.917  1.00  0.00    -0.047 A 
HETATM   19  C   UNL     1     -40.475  58.072 -52.949  1.00  0.00     0.010 A 
HETATM   20  C   UNL     1     -40.918  58.224 -50.164  1.00  0.00     0.008 A 
HETATM   21  C   UNL     1     -42.252  56.020 -50.420  1.00  0.00     0.073 C 
HETATM   22  C   UNL     1     -40.160  59.197 -50.817  1.00  0.00     0.001 A 
HETATM   23  C   UNL     1     -39.936  59.119 -52.199  1.00  0.00     0.001 A 
HETATM   24  C   UNL     1     -42.863  55.471 -51.721  1.00  0.00     0.149 C 
BRANCH  24  25
HETATM   25  O   UNL     1     -44.177  56.036 -51.887  1.00  0.00    -0.393 OA
HETATM   26  H   UNL     1     -44.443  55.807 -52.794  1.00  0.00     0.210 HD
ENDBRANCH  24  25
ENDBRANCH  13  16
ENDBRANCH   1  12
BRANCH   5  27
HETATM   27  C   UNL     1     -45.971  57.903 -60.544  1.00  0.00     0.095 C 
HETATM   28  C   UNL     1     -47.234  58.256 -59.761  1.00  0.00     0.026 C 
HETATM   29  C   UNL     1     -47.671  59.575 -60.380  1.00  0.00     0.002 C 
HETATM   30  C   UNL     1     -46.369  60.339 -60.542  1.00  0.00     0.002 C 
HETATM   31  C   UNL     1     -45.285  59.275 -60.722  1.00  0.00     0.026 C 
ENDBRANCH   5  27
TORSDOF 4
ENDMDL
