MODEL 1
REMARK VINA RESULT:      -8.1      0.000      0.000
REMARK  5 active torsions:
REMARK  status: ('A' for Active; 'I' for Inactive)
REMARK    1  A    between atoms: C_3  and  C_4 
REMARK    2  A    between atoms: C_4  and  N_5 
REMARK       I    between atoms: N_5  and  C_6 
REMARK    3  A    between atoms: C_6  and  C_7 
REMARK    4  A    between atoms: C_10  and  N_11 
REMARK       I    between atoms: N_11  and  C_12 
REMARK       I    between atoms: C_12  and  N_13 
REMARK    5  A    between atoms: N_13  and  C_14 
ROOT
HETATM    1  C   UNL     1     -42.631  54.940 -53.805  1.00  0.00     0.032 A 
HETATM    2  C   UNL     1     -43.401  56.108 -53.816  1.00  0.00     0.019 A 
HETATM    3  C   UNL     1     -43.827  56.660 -55.033  1.00  0.00     0.030 A 
HETATM    4  C   UNL     1     -43.486  56.058 -56.246  1.00  0.00     0.036 A 
HETATM    5  C   UNL     1     -42.748  54.868 -56.227  1.00  0.00     0.030 A 
HETATM    6  C   UNL     1     -42.326  54.313 -55.017  1.00  0.00     0.019 A 
ENDROOT
BRANCH   1   7
HETATM    7  C   UNL     1     -42.131  54.319 -52.546  1.00  0.00     0.251 C 
HETATM    8  N   UNL     1     -40.764  54.197 -52.414  1.00  0.00    -0.353 N 
HETATM    9  H   UNL     1     -40.181  54.316 -53.230  1.00  0.00     0.163 HD
HETATM   10  O   UNL     1     -42.927  53.910 -51.709  1.00  0.00    -0.268 OA
BRANCH   8  11
HETATM   11  C   UNL     1     -40.203  53.439 -51.314  1.00  0.00     0.164 C 
BRANCH  11  12
HETATM   12  C   UNL     1     -40.007  51.995 -51.679  1.00  0.00    -0.002 A 
HETATM   13  C   UNL     1     -39.715  51.618 -52.999  1.00  0.00     0.012 A 
HETATM   14  C   UNL     1     -39.490  50.278 -53.323  1.00  0.00     0.001 A 
HETATM   15  C   UNL     1     -39.544  49.299 -52.331  1.00  0.00     0.003 A 
HETATM   16  C   UNL     1     -39.823  49.662 -51.014  1.00  0.00     0.043 A 
HETATM   17  C   UNL     1     -40.048  50.999 -50.699  1.00  0.00     0.124 A 
HETATM   18  F   UNL     1     -40.306  51.324 -49.424  1.00  0.00    -0.205 F 
ENDBRANCH  11  12
ENDBRANCH   8  11
ENDBRANCH   1   7
BRANCH   4  19
HETATM   19  N   UNL     1     -43.852  56.565 -57.509  1.00  0.00    -0.309 N 
HETATM   20  C   UNL     1     -43.497  57.766 -58.064  1.00  0.00     0.325 C 
HETATM   21  N   UNL     1     -44.033  58.050 -59.293  1.00  0.00    -0.306 N 
HETATM   22  O   UNL     1     -42.696  58.566 -57.588  1.00  0.00    -0.247 OA
HETATM   23  H   UNL     1     -43.581  58.835 -59.745  1.00  0.00     0.171 HD
HETATM   24  H   UNL     1     -44.217  55.889 -58.163  1.00  0.00     0.170 HD
BRANCH  21  25
HETATM   25  C   UNL     1     -45.132  57.513 -59.934  1.00  0.00     0.072 A 
HETATM   26  C   UNL     1     -46.466  57.952 -60.089  1.00  0.00     0.169 A 
HETATM   27  N   UNL     1     -47.209  57.095 -60.793  1.00  0.00    -0.185 NA
HETATM   28  N   UNL     1     -46.342  56.127 -61.131  1.00  0.00    -0.287 N 
HETATM   29  H   UNL     1     -46.680  55.352 -61.691  1.00  0.00     0.188 HD
HETATM   30  C   UNL     1     -45.081  56.342 -60.655  1.00  0.00     0.140 A 
ENDBRANCH  21  25
ENDBRANCH   4  19
TORSDOF 5
ENDMDL
MODEL 2
REMARK VINA RESULT:      -8.0     14.910     16.209
REMARK  5 active torsions:
REMARK  status: ('A' for Active; 'I' for Inactive)
REMARK    1  A    between atoms: C_3  and  C_4 
REMARK    2  A    between atoms: C_4  and  N_5 
REMARK       I    between atoms: N_5  and  C_6 
REMARK    3  A    between atoms: C_6  and  C_7 
REMARK    4  A    between atoms: C_10  and  N_11 
REMARK       I    between atoms: N_11  and  C_12 
REMARK       I    between atoms: C_12  and  N_13 
REMARK    5  A    between atoms: N_13  and  C_14 
ROOT
HETATM    1  C   UNL     1     -36.029  41.730 -54.804  1.00  0.00     0.032 A 
HETATM    2  C   UNL     1     -35.120  42.161 -55.777  1.00  0.00     0.019 A 
HETATM    3  C   UNL     1     -35.308  41.813 -57.122  1.00  0.00     0.030 A 
HETATM    4  C   UNL     1     -36.398  41.030 -57.508  1.00  0.00     0.036 A 
HETATM    5  C   UNL     1     -37.325  40.634 -56.538  1.00  0.00     0.030 A 
HETATM    6  C   UNL     1     -37.143  40.982 -55.197  1.00  0.00     0.019 A 
ENDROOT
BRANCH   1   7
HETATM    7  C   UNL     1     -35.871  42.049 -53.358  1.00  0.00     0.251 C 
HETATM    8  N   UNL     1     -34.599  41.946 -52.834  1.00  0.00    -0.353 N 
HETATM    9  H   UNL     1     -33.891  41.459 -53.364  1.00  0.00     0.163 HD
HETATM   10  O   UNL     1     -36.852  42.347 -52.687  1.00  0.00    -0.268 OA
BRANCH   8  11
HETATM   11  C   UNL     1     -34.389  42.054 -51.405  1.00  0.00     0.164 C 
BRANCH  11  12
HETATM   12  C   UNL     1     -33.786  40.801 -50.836  1.00  0.00    -0.002 A 
HETATM   13  C   UNL     1     -34.556  39.919 -50.062  1.00  0.00     0.012 A 
HETATM   14  C   UNL     1     -34.001  38.733 -49.573  1.00  0.00     0.001 A 
HETATM   15  C   UNL     1     -32.675  38.411 -49.858  1.00  0.00     0.003 A 
HETATM   16  C   UNL     1     -31.903  39.275 -50.633  1.00  0.00     0.043 A 
HETATM   17  C   UNL     1     -32.462  40.454 -51.116  1.00  0.00     0.124 A 
HETATM   18  F   UNL     1     -31.702  41.264 -51.867  1.00  0.00    -0.205 F 
ENDBRANCH  11  12
ENDBRANCH   8  11
ENDBRANCH   1   7
BRANCH   4  19
HETATM   19  N   UNL     1     -36.640  40.617 -58.834  1.00  0.00    -0.309 N 
HETATM   20  C   UNL     1     -37.172  41.355 -59.857  1.00  0.00     0.325 C 
HETATM   21  N   UNL     1     -37.357  40.701 -61.047  1.00  0.00    -0.306 N 
HETATM   22  O   UNL     1     -37.428  42.556 -59.816  1.00  0.00    -0.247 OA
HETATM   23  H   UNL     1     -37.548  41.332 -61.815  1.00  0.00     0.171 HD
HETATM   24  H   UNL     1     -36.166  39.774 -59.123  1.00  0.00     0.170 HD
BRANCH  21  25
HETATM   25  C   UNL     1     -37.430  39.349 -61.321  1.00  0.00     0.072 A 
HETATM   26  C   UNL     1     -36.514  38.430 -61.879  1.00  0.00     0.169 A 
HETATM   27  N   UNL     1     -37.018  37.197 -61.972  1.00  0.00    -0.185 NA
HETATM   28  N   UNL     1     -38.241  37.313 -61.430  1.00  0.00    -0.287 N 
HETATM   29  H   UNL     1     -38.825  36.485 -61.376  1.00  0.00     0.188 HD
HETATM   30  C   UNL     1     -38.527  38.580 -61.009  1.00  0.00     0.140 A 
ENDBRANCH  21  25
ENDBRANCH   4  19
TORSDOF 5
ENDMDL
MODEL 3
REMARK VINA RESULT:      -7.9      5.259      6.221
REMARK  5 active torsions:
REMARK  status: ('A' for Active; 'I' for Inactive)
REMARK    1  A    between atoms: C_3  and  C_4 
REMARK    2  A    between atoms: C_4  and  N_5 
REMARK       I    between atoms: N_5  and  C_6 
REMARK    3  A    between atoms: C_6  and  C_7 
REMARK    4  A    between atoms: C_10  and  N_11 
REMARK       I    between atoms: N_11  and  C_12 
REMARK       I    between atoms: C_12  and  N_13 
REMARK    5  A    between atoms: N_13  and  C_14 
ROOT
HETATM    1  C   UNL     1     -41.766  56.011 -50.572  1.00  0.00     0.032 A 
HETATM    2  C   UNL     1     -43.030  56.179 -51.148  1.00  0.00     0.019 A 
HETATM    3  C   UNL     1     -43.455  57.452 -51.555  1.00  0.00     0.030 A 
HETATM    4  C   UNL     1     -42.629  58.566 -51.386  1.00  0.00     0.036 A 
HETATM    5  C   UNL     1     -41.351  58.386 -50.845  1.00  0.00     0.030 A 
HETATM    6  C   UNL     1     -40.921  57.118 -50.443  1.00  0.00     0.019 A 
ENDROOT
BRANCH   1   7
HETATM    7  C   UNL     1     -41.266  54.688 -50.101  1.00  0.00     0.251 C 
HETATM    8  N   UNL     1     -40.356  54.044 -50.912  1.00  0.00    -0.353 N 
HETATM    9  H   UNL     1     -40.236  54.364 -51.862  1.00  0.00     0.163 HD
HETATM   10  O   UNL     1     -41.697  54.208 -49.059  1.00  0.00    -0.268 OA
BRANCH   8  11
HETATM   11  C   UNL     1     -39.965  52.678 -50.626  1.00  0.00     0.164 C 
BRANCH  11  12
HETATM   12  C   UNL     1     -39.976  51.827 -51.864  1.00  0.00    -0.002 A 
HETATM   13  C   UNL     1     -40.275  52.382 -53.118  1.00  0.00     0.012 A 
HETATM   14  C   UNL     1     -40.241  51.594 -54.271  1.00  0.00     0.001 A 
HETATM   15  C   UNL     1     -39.899  50.245 -54.187  1.00  0.00     0.003 A 
HETATM   16  C   UNL     1     -39.592  49.684 -52.948  1.00  0.00     0.043 A 
HETATM   17  C   UNL     1     -39.629  50.475 -51.804  1.00  0.00     0.124 A 
HETATM   18  F   UNL     1     -39.320  49.914 -50.626  1.00  0.00    -0.205 F 
ENDBRANCH  11  12
ENDBRANCH   8  11
ENDBRANCH   1   7
BRANCH   4  19
HETATM   19  N   UNL     1     -42.995  59.879 -51.744  1.00  0.00    -0.309 N 
HETATM   20  C   UNL     1     -42.500  60.636 -52.773  1.00  0.00     0.325 C 
HETATM   21  N   UNL     1     -42.987  61.912 -52.878  1.00  0.00    -0.306 N 
HETATM   22  O   UNL     1     -41.718  60.246 -53.637  1.00  0.00    -0.247 OA
HETATM   23  H   UNL     1     -42.754  62.348 -53.761  1.00  0.00     0.171 HD
HETATM   24  H   UNL     1     -43.865  60.212 -51.356  1.00  0.00     0.170 HD
BRANCH  21  25
HETATM   25  C   UNL     1     -43.628  62.703 -51.945  1.00  0.00     0.072 A 
HETATM   26  C   UNL     1     -43.163  63.495 -50.872  1.00  0.00     0.169 A 
HETATM   27  N   UNL     1     -44.156  64.096 -50.211  1.00  0.00    -0.185 NA
HETATM   28  N   UNL     1     -45.255  63.728 -50.888  1.00  0.00    -0.287 N 
HETATM   29  H   UNL     1     -46.155  64.078 -50.573  1.00  0.00     0.188 HD
HETATM   30  C   UNL     1     -44.989  62.908 -51.946  1.00  0.00     0.140 A 
ENDBRANCH  21  25
ENDBRANCH   4  19
TORSDOF 5
ENDMDL
MODEL 4
REMARK VINA RESULT:      -7.9      4.375      5.370
REMARK  5 active torsions:
REMARK  status: ('A' for Active; 'I' for Inactive)
REMARK    1  A    between atoms: C_3  and  C_4 
REMARK    2  A    between atoms: C_4  and  N_5 
REMARK       I    between atoms: N_5  and  C_6 
REMARK    3  A    between atoms: C_6  and  C_7 
REMARK    4  A    between atoms: C_10  and  N_11 
REMARK       I    between atoms: N_11  and  C_12 
REMARK       I    between atoms: C_12  and  N_13 
REMARK    5  A    between atoms: N_13  and  C_14 
ROOT
HETATM    1  C   UNL     1     -42.250  55.845 -50.752  1.00  0.00     0.032 A 
HETATM    2  C   UNL     1     -41.648  56.988 -51.291  1.00  0.00     0.019 A 
HETATM    3  C   UNL     1     -42.439  58.037 -51.780  1.00  0.00     0.030 A 
HETATM    4  C   UNL     1     -43.833  57.956 -51.741  1.00  0.00     0.036 A 
HETATM    5  C   UNL     1     -44.429  56.828 -51.165  1.00  0.00     0.030 A 
HETATM    6  C   UNL     1     -43.645  55.782 -50.673  1.00  0.00     0.019 A 
ENDROOT
BRANCH   1   7
HETATM    7  C   UNL     1     -41.464  54.689 -50.237  1.00  0.00     0.251 C 
HETATM    8  N   UNL     1     -40.631  54.055 -51.135  1.00  0.00    -0.353 N 
HETATM    9  H   UNL     1     -40.747  54.237 -52.121  1.00  0.00     0.163 HD
HETATM   10  O   UNL     1     -41.606  54.323 -49.076  1.00  0.00    -0.268 OA
BRANCH   8  11
HETATM   11  C   UNL     1     -39.978  52.814 -50.771  1.00  0.00     0.164 C 
BRANCH  11  12
HETATM   12  C   UNL     1     -39.946  51.846 -51.919  1.00  0.00    -0.002 A 
HETATM   13  C   UNL     1     -40.152  52.283 -53.236  1.00  0.00     0.012 A 
HETATM   14  C   UNL     1     -40.077  51.385 -54.304  1.00  0.00     0.001 A 
HETATM   15  C   UNL     1     -39.787  50.041 -54.069  1.00  0.00     0.003 A 
HETATM   16  C   UNL     1     -39.571  49.596 -52.765  1.00  0.00     0.043 A 
HETATM   17  C   UNL     1     -39.649  50.497 -51.707  1.00  0.00     0.124 A 
HETATM   18  F   UNL     1     -39.428  50.046 -50.464  1.00  0.00    -0.205 F 
ENDBRANCH  11  12
ENDBRANCH   8  11
ENDBRANCH   1   7
BRANCH   4  19
HETATM   19  N   UNL     1     -44.694  58.955 -52.236  1.00  0.00    -0.309 N 
HETATM   20  C   UNL     1     -45.099  59.146 -53.530  1.00  0.00     0.325 C 
HETATM   21  N   UNL     1     -45.904  60.231 -53.762  1.00  0.00    -0.306 N 
HETATM   22  O   UNL     1     -44.860  58.396 -54.474  1.00  0.00    -0.247 OA
HETATM   23  H   UNL     1     -46.340  60.207 -54.675  1.00  0.00     0.171 HD
HETATM   24  H   UNL     1     -45.251  59.434 -51.544  1.00  0.00     0.170 HD
BRANCH  21  25
HETATM   25  C   UNL     1     -46.111  61.367 -53.005  1.00  0.00     0.072 A 
HETATM   26  C   UNL     1     -47.072  61.711 -52.028  1.00  0.00     0.169 A 
HETATM   27  N   UNL     1     -46.898  62.946 -51.552  1.00  0.00    -0.185 NA
HETATM   28  N   UNL     1     -45.798  63.379 -52.187  1.00  0.00    -0.287 N 
HETATM   29  H   UNL     1     -45.455  64.311 -51.976  1.00  0.00     0.188 HD
HETATM   30  C   UNL     1     -45.279  62.462 -53.055  1.00  0.00     0.140 A 
ENDBRANCH  21  25
ENDBRANCH   4  19
TORSDOF 5
ENDMDL
MODEL 5
REMARK VINA RESULT:      -7.7      1.818      2.395
REMARK  5 active torsions:
REMARK  status: ('A' for Active; 'I' for Inactive)
REMARK    1  A    between atoms: C_3  and  C_4 
REMARK    2  A    between atoms: C_4  and  N_5 
REMARK       I    between atoms: N_5  and  C_6 
REMARK    3  A    between atoms: C_6  and  C_7 
REMARK    4  A    between atoms: C_10  and  N_11 
REMARK       I    between atoms: N_11  and  C_12 
REMARK       I    between atoms: C_12  and  N_13 
REMARK    5  A    between atoms: N_13  and  C_14 
ROOT
HETATM    1  C   UNL     1     -42.345  55.295 -54.859  1.00  0.00     0.032 A 
HETATM    2  C   UNL     1     -42.839  54.572 -55.951  1.00  0.00     0.019 A 
HETATM    3  C   UNL     1     -43.143  55.229 -57.152  1.00  0.00     0.030 A 
HETATM    4  C   UNL     1     -42.962  56.609 -57.274  1.00  0.00     0.036 A 
HETATM    5  C   UNL     1     -42.431  57.321 -56.192  1.00  0.00     0.030 A 
HETATM    6  C   UNL     1     -42.123  56.669 -54.995  1.00  0.00     0.019 A 
ENDROOT
BRANCH   1   7
HETATM    7  C   UNL     1     -42.025  54.657 -53.551  1.00  0.00     0.251 C 
HETATM    8  N   UNL     1     -40.696  54.381 -53.304  1.00  0.00    -0.353 N 
HETATM    9  H   UNL     1     -40.041  54.406 -54.072  1.00  0.00     0.163 HD
HETATM   10  O   UNL     1     -42.928  54.369 -52.774  1.00  0.00    -0.268 OA
BRANCH   8  11
HETATM   11  C   UNL     1     -40.319  53.595 -52.147  1.00  0.00     0.164 C 
BRANCH  11  12
HETATM   12  C   UNL     1     -40.069  52.159 -52.509  1.00  0.00    -0.002 A 
HETATM   13  C   UNL     1     -39.958  51.762 -53.850  1.00  0.00     0.012 A 
HETATM   14  C   UNL     1     -39.682  50.432 -54.178  1.00  0.00     0.001 A 
HETATM   15  C   UNL     1     -39.504  49.485 -53.170  1.00  0.00     0.003 A 
HETATM   16  C   UNL     1     -39.603  49.868 -51.834  1.00  0.00     0.043 A 
HETATM   17  C   UNL     1     -39.880  51.194 -51.515  1.00  0.00     0.124 A 
HETATM   18  F   UNL     1     -39.960  51.540 -50.222  1.00  0.00    -0.205 F 
ENDBRANCH  11  12
ENDBRANCH   8  11
ENDBRANCH   1   7
BRANCH   4  19
HETATM   19  N   UNL     1     -43.268  57.344 -58.436  1.00  0.00    -0.309 N 
HETATM   20  C   UNL     1     -42.833  57.111 -59.714  1.00  0.00     0.325 C 
HETATM   21  N   UNL     1     -43.235  58.009 -60.667  1.00  0.00    -0.306 N 
HETATM   22  O   UNL     1     -42.179  56.138 -60.081  1.00  0.00    -0.247 OA
HETATM   23  H   UNL     1     -43.068  57.681 -61.610  1.00  0.00     0.171 HD
HETATM   24  H   UNL     1     -44.066  57.958 -58.368  1.00  0.00     0.170 HD
BRANCH  21  25
HETATM   25  C   UNL     1     -43.715  59.297 -60.534  1.00  0.00     0.072 A 
HETATM   26  C   UNL     1     -43.085  60.539 -60.299  1.00  0.00     0.169 A 
HETATM   27  N   UNL     1     -43.955  61.551 -60.233  1.00  0.00    -0.185 NA
HETATM   28  N   UNL     1     -45.139  60.966 -60.474  1.00  0.00    -0.287 N 
HETATM   29  H   UNL     1     -45.971  61.548 -60.488  1.00  0.00     0.188 HD
HETATM   30  C   UNL     1     -45.045  59.619 -60.678  1.00  0.00     0.140 A 
ENDBRANCH  21  25
ENDBRANCH   4  19
TORSDOF 5
ENDMDL
MODEL 6
REMARK VINA RESULT:      -7.6      2.964      9.434
REMARK  5 active torsions:
REMARK  status: ('A' for Active; 'I' for Inactive)
REMARK    1  A    between atoms: C_3  and  C_4 
REMARK    2  A    between atoms: C_4  and  N_5 
REMARK       I    between atoms: N_5  and  C_6 
REMARK    3  A    between atoms: C_6  and  C_7 
REMARK    4  A    between atoms: C_10  and  N_11 
REMARK       I    between atoms: N_11  and  C_12 
REMARK       I    between atoms: C_12  and  N_13 
REMARK    5  A    between atoms: N_13  and  C_14 
ROOT
HETATM    1  C   UNL     1     -42.730  56.446 -55.022  1.00  0.00     0.032 A 
HETATM    2  C   UNL     1     -43.224  56.291 -53.722  1.00  0.00     0.019 A 
HETATM    3  C   UNL     1     -42.703  55.293 -52.885  1.00  0.00     0.030 A 
HETATM    4  C   UNL     1     -41.693  54.441 -53.336  1.00  0.00     0.036 A 
HETATM    5  C   UNL     1     -41.176  54.627 -54.624  1.00  0.00     0.030 A 
HETATM    6  C   UNL     1     -41.688  55.622 -55.459  1.00  0.00     0.019 A 
ENDROOT
BRANCH   1   7
HETATM    7  C   UNL     1     -43.257  57.473 -55.964  1.00  0.00     0.251 C 
HETATM    8  N   UNL     1     -44.473  57.206 -56.557  1.00  0.00    -0.353 N 
HETATM    9  H   UNL     1     -44.841  56.267 -56.515  1.00  0.00     0.163 HD
HETATM   10  O   UNL     1     -42.595  58.476 -56.208  1.00  0.00    -0.268 OA
BRANCH   8  11
HETATM   11  C   UNL     1     -44.966  58.055 -57.623  1.00  0.00     0.164 C 
BRANCH  11  12
HETATM   12  C   UNL     1     -45.399  57.253 -58.817  1.00  0.00    -0.002 A 
HETATM   13  C   UNL     1     -46.740  57.240 -59.228  1.00  0.00     0.012 A 
HETATM   14  C   UNL     1     -47.129  56.528 -60.365  1.00  0.00     0.001 A 
HETATM   15  C   UNL     1     -46.180  55.828 -61.110  1.00  0.00     0.003 A 
HETATM   16  C   UNL     1     -44.843  55.840 -60.717  1.00  0.00     0.043 A 
HETATM   17  C   UNL     1     -44.464  56.551 -59.583  1.00  0.00     0.124 A 
HETATM   18  F   UNL     1     -43.170  56.556 -59.230  1.00  0.00    -0.205 F 
ENDBRANCH  11  12
ENDBRANCH   8  11
ENDBRANCH   1   7
BRANCH   4  19
HETATM   19  N   UNL     1     -41.138  53.400 -52.566  1.00  0.00    -0.309 N 
HETATM   20  C   UNL     1     -40.387  53.509 -51.426  1.00  0.00     0.325 C 
HETATM   21  N   UNL     1     -39.918  52.338 -50.892  1.00  0.00    -0.306 N 
HETATM   22  O   UNL     1     -40.160  54.551 -50.815  1.00  0.00    -0.247 OA
HETATM   23  H   UNL     1     -39.556  52.453 -49.954  1.00  0.00     0.171 HD
HETATM   24  H   UNL     1     -41.521  52.481 -52.732  1.00  0.00     0.170 HD
BRANCH  21  25
HETATM   25  C   UNL     1     -39.768  51.091 -51.466  1.00  0.00     0.072 A 
HETATM   26  C   UNL     1     -39.582  50.661 -52.799  1.00  0.00     0.169 A 
HETATM   27  N   UNL     1     -39.492  49.333 -52.901  1.00  0.00    -0.185 NA
HETATM   28  N   UNL     1     -39.573  48.911 -51.629  1.00  0.00    -0.287 N 
HETATM   29  H   UNL     1     -39.516  47.914 -51.447  1.00  0.00     0.188 HD
HETATM   30  C   UNL     1     -39.720  49.929 -50.731  1.00  0.00     0.140 A 
ENDBRANCH  21  25
ENDBRANCH   4  19
TORSDOF 5
ENDMDL
MODEL 7
REMARK VINA RESULT:      -7.6      4.779      6.591
REMARK  5 active torsions:
REMARK  status: ('A' for Active; 'I' for Inactive)
REMARK    1  A    between atoms: C_3  and  C_4 
REMARK    2  A    between atoms: C_4  and  N_5 
REMARK       I    between atoms: N_5  and  C_6 
REMARK    3  A    between atoms: C_6  and  C_7 
REMARK    4  A    between atoms: C_10  and  N_11 
REMARK       I    between atoms: N_11  and  C_12 
REMARK       I    between atoms: C_12  and  N_13 
REMARK    5  A    between atoms: N_13  and  C_14 
ROOT
HETATM    1  C   UNL     1     -41.624  56.139 -53.125  1.00  0.00     0.032 A 
HETATM    2  C   UNL     1     -41.183  56.568 -51.868  1.00  0.00     0.019 A 
HETATM    3  C   UNL     1     -41.905  57.540 -51.162  1.00  0.00     0.030 A 
HETATM    4  C   UNL     1     -43.068  58.095 -51.702  1.00  0.00     0.036 A 
HETATM    5  C   UNL     1     -43.526  57.633 -52.941  1.00  0.00     0.030 A 
HETATM    6  C   UNL     1     -42.811  56.662 -53.646  1.00  0.00     0.019 A 
ENDROOT
BRANCH   1   7
HETATM    7  C   UNL     1     -40.888  55.125 -53.932  1.00  0.00     0.251 C 
HETATM    8  N   UNL     1     -41.235  53.805 -53.738  1.00  0.00    -0.353 N 
HETATM    9  H   UNL     1     -41.787  53.559 -52.928  1.00  0.00     0.163 HD
HETATM   10  O   UNL     1     -39.996  55.481 -54.693  1.00  0.00    -0.268 OA
BRANCH   8  11
HETATM   11  C   UNL     1     -40.446  52.748 -54.337  1.00  0.00     0.164 C 
BRANCH  11  12
HETATM   12  C   UNL     1     -40.061  51.703 -53.330  1.00  0.00    -0.002 A 
HETATM   13  C   UNL     1     -39.960  52.019 -51.967  1.00  0.00     0.012 A 
HETATM   14  C   UNL     1     -39.644  51.032 -51.029  1.00  0.00     0.001 A 
HETATM   15  C   UNL     1     -39.434  49.716 -51.442  1.00  0.00     0.003 A 
HETATM   16  C   UNL     1     -39.541  49.388 -52.792  1.00  0.00     0.043 A 
HETATM   17  C   UNL     1     -39.855  50.376 -53.720  1.00  0.00     0.124 A 
HETATM   18  F   UNL     1     -39.961  50.034 -55.012  1.00  0.00    -0.205 F 
ENDBRANCH  11  12
ENDBRANCH   8  11
ENDBRANCH   1   7
BRANCH   4  19
HETATM   19  N   UNL     1     -43.833  59.093 -51.066  1.00  0.00    -0.309 N 
HETATM   20  C   UNL     1     -45.127  59.004 -50.626  1.00  0.00     0.325 C 
HETATM   21  N   UNL     1     -45.665  60.142 -50.085  1.00  0.00    -0.306 N 
HETATM   22  O   UNL     1     -45.811  57.984 -50.615  1.00  0.00    -0.247 OA
HETATM   23  H   UNL     1     -46.531  59.969 -49.592  1.00  0.00     0.171 HD
HETATM   24  H   UNL     1     -43.311  59.870 -50.688  1.00  0.00     0.170 HD
BRANCH  21  25
HETATM   25  C   UNL     1     -45.271  61.461 -50.205  1.00  0.00     0.072 A 
HETATM   26  C   UNL     1     -44.425  62.287 -49.432  1.00  0.00     0.169 A 
HETATM   27  N   UNL     1     -44.334  63.526 -49.920  1.00  0.00    -0.185 NA
HETATM   28  N   UNL     1     -45.084  63.484 -51.033  1.00  0.00    -0.287 N 
HETATM   29  H   UNL     1     -45.160  64.326 -51.595  1.00  0.00     0.188 HD
HETATM   30  C   UNL     1     -45.652  62.263 -51.256  1.00  0.00     0.140 A 
ENDBRANCH  21  25
ENDBRANCH   4  19
TORSDOF 5
ENDMDL
MODEL 8
REMARK VINA RESULT:      -7.5      5.045      7.313
REMARK  5 active torsions:
REMARK  status: ('A' for Active; 'I' for Inactive)
REMARK    1  A    between atoms: C_3  and  C_4 
REMARK    2  A    between atoms: C_4  and  N_5 
REMARK       I    between atoms: N_5  and  C_6 
REMARK    3  A    between atoms: C_6  and  C_7 
REMARK    4  A    between atoms: C_10  and  N_11 
REMARK       I    between atoms: N_11  and  C_12 
REMARK       I    between atoms: C_12  and  N_13 
REMARK    5  A    between atoms: N_13  and  C_14 
ROOT
HETATM    1  C   UNL     1     -42.123  56.388 -52.882  1.00  0.00     0.032 A 
HETATM    2  C   UNL     1     -43.517  56.333 -52.997  1.00  0.00     0.019 A 
HETATM    3  C   UNL     1     -44.321  57.194 -52.237  1.00  0.00     0.030 A 
HETATM    4  C   UNL     1     -43.746  58.112 -51.355  1.00  0.00     0.036 A 
HETATM    5  C   UNL     1     -42.351  58.189 -51.273  1.00  0.00     0.030 A 
HETATM    6  C   UNL     1     -41.546  57.336 -52.032  1.00  0.00     0.019 A 
ENDROOT
BRANCH   1   7
HETATM    7  C   UNL     1     -41.218  55.485 -53.647  1.00  0.00     0.251 C 
HETATM    8  N   UNL     1     -41.344  54.133 -53.410  1.00  0.00    -0.353 N 
HETATM    9  H   UNL     1     -41.859  53.825 -52.598  1.00  0.00     0.163 HD
HETATM   10  O   UNL     1     -40.385  55.960 -54.411  1.00  0.00    -0.268 OA
BRANCH   8  11
HETATM   11  C   UNL     1     -40.381  53.203 -53.965  1.00  0.00     0.164 C 
BRANCH  11  12
HETATM   12  C   UNL     1     -40.090  52.074 -53.018  1.00  0.00    -0.002 A 
HETATM   13  C   UNL     1     -40.147  52.266 -51.629  1.00  0.00     0.012 A 
HETATM   14  C   UNL     1     -39.917  51.201 -50.754  1.00  0.00     0.001 A 
HETATM   15  C   UNL     1     -39.638  49.930 -51.257  1.00  0.00     0.003 A 
HETATM   16  C   UNL     1     -39.588  49.725 -52.635  1.00  0.00     0.043 A 
HETATM   17  C   UNL     1     -39.816  50.791 -53.500  1.00  0.00     0.124 A 
HETATM   18  F   UNL     1     -39.771  50.566 -54.821  1.00  0.00    -0.205 F 
ENDBRANCH  11  12
ENDBRANCH   8  11
ENDBRANCH   1   7
BRANCH   4  19
HETATM   19  N   UNL     1     -44.486  58.990 -50.538  1.00  0.00    -0.309 N 
HETATM   20  C   UNL     1     -45.165  60.117 -50.920  1.00  0.00     0.325 C 
HETATM   21  N   UNL     1     -45.766  60.833 -49.919  1.00  0.00    -0.306 N 
HETATM   22  O   UNL     1     -45.335  60.493 -52.078  1.00  0.00    -0.247 OA
HETATM   23  H   UNL     1     -46.419  61.523 -50.269  1.00  0.00     0.171 HD
HETATM   24  H   UNL     1     -44.737  58.635 -49.628  1.00  0.00     0.170 HD
BRANCH  21  25
HETATM   25  C   UNL     1     -45.537  60.831 -48.557  1.00  0.00     0.072 A 
HETATM   26  C   UNL     1     -46.078  60.077 -47.492  1.00  0.00     0.169 A 
HETATM   27  N   UNL     1     -45.562  60.419 -46.309  1.00  0.00    -0.185 NA
HETATM   28  N   UNL     1     -44.656  61.361 -46.618  1.00  0.00    -0.287 N 
HETATM   29  H   UNL     1     -44.114  61.774 -45.866  1.00  0.00     0.188 HD
HETATM   30  C   UNL     1     -44.591  61.629 -47.955  1.00  0.00     0.140 A 
ENDBRANCH  21  25
ENDBRANCH   4  19
TORSDOF 5
ENDMDL
MODEL 9
REMARK VINA RESULT:      -7.5      4.730      5.284
REMARK  5 active torsions:
REMARK  status: ('A' for Active; 'I' for Inactive)
REMARK    1  A    between atoms: C_3  and  C_4 
REMARK    2  A    between atoms: C_4  and  N_5 
REMARK       I    between atoms: N_5  and  C_6 
REMARK    3  A    between atoms: C_6  and  C_7 
REMARK    4  A    between atoms: C_10  and  N_11 
REMARK       I    between atoms: N_11  and  C_12 
REMARK       I    between atoms: C_12  and  N_13 
REMARK    5  A    between atoms: N_13  and  C_14 
ROOT
HETATM    1  C   UNL     1     -41.675  56.046 -50.395  1.00  0.00     0.032 A 
HETATM    2  C   UNL     1     -40.896  57.207 -50.324  1.00  0.00     0.019 A 
HETATM    3  C   UNL     1     -41.404  58.426 -50.799  1.00  0.00     0.030 A 
HETATM    4  C   UNL     1     -42.684  58.497 -51.351  1.00  0.00     0.036 A 
HETATM    5  C   UNL     1     -43.473  57.341 -51.383  1.00  0.00     0.030 A 
HETATM    6  C   UNL     1     -42.973  56.126 -50.908  1.00  0.00     0.019 A 
ENDROOT
BRANCH   1   7
HETATM    7  C   UNL     1     -41.183  54.720 -49.928  1.00  0.00     0.251 C 
HETATM    8  N   UNL     1     -40.479  53.962 -50.839  1.00  0.00    -0.353 N 
HETATM    9  H   UNL     1     -40.514  54.215 -51.816  1.00  0.00     0.163 HD
HETATM   10  O   UNL     1     -41.447  54.336 -48.794  1.00  0.00    -0.268 OA
BRANCH   8  11
HETATM   11  C   UNL     1     -40.131  52.590 -50.531  1.00  0.00     0.164 C 
BRANCH  11  12
HETATM   12  C   UNL     1     -40.026  51.751 -51.772  1.00  0.00    -0.002 A 
HETATM   13  C   UNL     1     -40.157  52.328 -53.045  1.00  0.00     0.012 A 
HETATM   14  C   UNL     1     -40.015  51.550 -54.197  1.00  0.00     0.001 A 
HETATM   15  C   UNL     1     -39.731  50.189 -54.091  1.00  0.00     0.003 A 
HETATM   16  C   UNL     1     -39.589  49.606 -52.833  1.00  0.00     0.043 A 
HETATM   17  C   UNL     1     -39.733  50.387 -51.690  1.00  0.00     0.124 A 
HETATM   18  F   UNL     1     -39.582  49.805 -50.492  1.00  0.00    -0.205 F 
ENDBRANCH  11  12
ENDBRANCH   8  11
ENDBRANCH   1   7
BRANCH   4  19
HETATM   19  N   UNL     1     -43.253  59.676 -51.872  1.00  0.00    -0.309 N 
HETATM   20  C   UNL     1     -43.831  60.705 -51.178  1.00  0.00     0.325 C 
HETATM   21  N   UNL     1     -44.362  61.722 -51.928  1.00  0.00    -0.306 N 
HETATM   22  O   UNL     1     -43.852  60.822 -49.955  1.00  0.00    -0.247 OA
HETATM   23  H   UNL     1     -44.582  62.542 -51.376  1.00  0.00     0.171 HD
HETATM   24  H   UNL     1     -43.006  59.896 -52.826  1.00  0.00     0.170 HD
BRANCH  21  25
HETATM   25  C   UNL     1     -44.731  61.753 -53.258  1.00  0.00     0.072 A 
HETATM   26  C   UNL     1     -44.066  62.168 -54.433  1.00  0.00     0.169 A 
HETATM   27  N   UNL     1     -44.819  62.027 -55.526  1.00  0.00    -0.185 NA
HETATM   28  N   UNL     1     -45.952  61.477 -55.061  1.00  0.00    -0.287 N 
HETATM   29  H   UNL     1     -46.691  61.261 -55.723  1.00  0.00     0.188 HD
HETATM   30  C   UNL     1     -45.941  61.277 -53.710  1.00  0.00     0.140 A 
ENDBRANCH  21  25
ENDBRANCH   4  19
TORSDOF 5
ENDMDL
MODEL 10
REMARK VINA RESULT:      -7.2     15.789     18.551
REMARK  5 active torsions:
REMARK  status: ('A' for Active; 'I' for Inactive)
REMARK    1  A    between atoms: C_3  and  C_4 
REMARK    2  A    between atoms: C_4  and  N_5 
REMARK       I    between atoms: N_5  and  C_6 
REMARK    3  A    between atoms: C_6  and  C_7 
REMARK    4  A    between atoms: C_10  and  N_11 
REMARK       I    between atoms: N_11  and  C_12 
REMARK       I    between atoms: C_12  and  N_13 
REMARK    5  A    between atoms: N_13  and  C_14 
ROOT
HETATM    1  C   UNL     1     -36.125  40.916 -57.416  1.00  0.00     0.032 A 
HETATM    2  C   UNL     1     -35.058  41.726 -57.011  1.00  0.00     0.019 A 
HETATM    3  C   UNL     1     -34.608  41.687 -55.683  1.00  0.00     0.030 A 
HETATM    4  C   UNL     1     -35.219  40.848 -54.749  1.00  0.00     0.036 A 
HETATM    5  C   UNL     1     -36.260  40.012 -55.168  1.00  0.00     0.030 A 
HETATM    6  C   UNL     1     -36.708  40.043 -56.491  1.00  0.00     0.019 A 
ENDROOT
BRANCH   1   7
HETATM    7  C   UNL     1     -36.662  40.928 -58.806  1.00  0.00     0.251 C 
HETATM    8  N   UNL     1     -36.699  39.718 -59.467  1.00  0.00    -0.353 N 
HETATM    9  H   UNL     1     -36.175  38.940 -59.093  1.00  0.00     0.163 HD
HETATM   10  O   UNL     1     -37.006  41.986 -59.319  1.00  0.00    -0.268 OA
BRANCH   8  11
HETATM   11  C   UNL     1     -37.027  39.669 -60.877  1.00  0.00     0.164 C 
BRANCH  11  12
HETATM   12  C   UNL     1     -38.240  38.822 -61.137  1.00  0.00    -0.002 A 
HETATM   13  C   UNL     1     -39.113  38.476 -60.095  1.00  0.00     0.012 A 
HETATM   14  C   UNL     1     -40.263  37.724 -60.350  1.00  0.00     0.001 A 
HETATM   15  C   UNL     1     -40.559  37.318 -61.651  1.00  0.00     0.003 A 
HETATM   16  C   UNL     1     -39.704  37.664 -62.697  1.00  0.00     0.043 A 
HETATM   17  C   UNL     1     -38.560  38.411 -62.434  1.00  0.00     0.124 A 
HETATM   18  F   UNL     1     -37.759  38.739 -63.457  1.00  0.00    -0.205 F 
ENDBRANCH  11  12
ENDBRANCH   8  11
ENDBRANCH   1   7
BRANCH   4  19
HETATM   19  N   UNL     1     -34.842  40.773 -53.393  1.00  0.00    -0.309 N 
HETATM   20  C   UNL     1     -35.004  41.727 -52.424  1.00  0.00     0.325 C 
HETATM   21  N   UNL     1     -34.501  41.429 -51.186  1.00  0.00    -0.306 N 
HETATM   22  O   UNL     1     -35.617  42.785 -52.556  1.00  0.00    -0.247 OA
HETATM   23  H   UNL     1     -34.828  42.062 -50.467  1.00  0.00     0.171 HD
HETATM   24  H   UNL     1     -34.646  39.847 -53.044  1.00  0.00     0.170 HD
BRANCH  21  25
HETATM   25  C   UNL     1     -33.558  40.493 -50.806  1.00  0.00     0.072 A 
HETATM   26  C   UNL     1     -32.186  40.336 -51.101  1.00  0.00     0.169 A 
HETATM   27  N   UNL     1     -31.656  39.260 -50.513  1.00  0.00    -0.185 NA
HETATM   28  N   UNL     1     -32.676  38.752 -49.803  1.00  0.00    -0.287 N 
HETATM   29  H   UNL     1     -32.510  37.918 -49.249  1.00  0.00     0.188 HD
HETATM   30  C   UNL     1     -33.832  39.467 -49.932  1.00  0.00     0.140 A 
ENDBRANCH  21  25
ENDBRANCH   4  19
TORSDOF 5
ENDMDL
