MODEL 1
REMARK VINA RESULT:      -7.8      0.000      0.000
REMARK  10 active torsions:
REMARK  status: ('A' for Active; 'I' for Inactive)
REMARK    1  A    between atoms: N_7  and  C_8 
REMARK    2  A    between atoms: C_8  and  C_9 
REMARK       I    between atoms: C_9  and  N_10 
REMARK    3  A    between atoms: N_10  and  C_11 
REMARK    4  A    between atoms: C_11  and  C_12 
REMARK    5  A    between atoms: C_12  and  C_13 
REMARK    6  A    between atoms: C_13  and  C_14 
REMARK       I    between atoms: C_14  and  N_15 
REMARK    7  A    between atoms: N_15  and  C_16 
REMARK    8  A    between atoms: C_16  and  C_17 
REMARK    9  A    between atoms: C_17  and  C_18 
REMARK   10  A    between atoms: C_18  and  N_19 
ROOT
HETATM    1  C   UNL     1     -43.541  55.049 -57.354  1.00  0.00     0.123 C 
ENDROOT
BRANCH   1   2
HETATM    2  N   UNL     1     -42.420  55.530 -56.575  1.00  0.00    -0.360 N 
HETATM    3  C   UNL     1     -42.583  55.968 -55.273  1.00  0.00     0.235 C 
HETATM    4  O   UNL     1     -43.679  56.002 -54.719  1.00  0.00    -0.272 OA
HETATM    5  H   UNL     1     -41.512  55.600 -57.019  1.00  0.00     0.162 HD
BRANCH   3   6
HETATM    6  C   UNL     1     -41.277  56.328 -54.563  1.00  0.00     0.235 C 
BRANCH   6   7
HETATM    7  N   UNL     1     -41.010  55.384 -53.493  1.00  0.00    -0.299 N 
HETATM    8  C   UNL     1     -41.228  55.746 -52.177  1.00  0.00     0.214 A 
HETATM    9  N   UNL     1     -41.056  54.979 -51.150  1.00  0.00    -0.235 NA
HETATM   10  C   UNL     1     -40.621  53.729 -51.451  1.00  0.00     0.115 A 
HETATM   11  C   UNL     1     -40.313  53.242 -52.702  1.00  0.00     0.075 A 
HETATM   12  S   UNL     1     -40.402  52.554 -50.244  1.00  0.00    -0.074 SA
HETATM   13  C   UNL     1     -39.871  51.870 -52.674  1.00  0.00    -0.031 A 
HETATM   14  C   UNL     1     -40.481  54.141 -53.832  1.00  0.00     0.262 A 
HETATM   15  C   UNL     1     -39.458  51.095 -53.885  1.00  0.00     0.050 C 
HETATM   16  C   UNL     1     -39.912  51.369 -51.379  1.00  0.00    -0.012 A 
HETATM   17  C   UNL     1     -39.585  49.993 -50.895  1.00  0.00     0.057 C 
HETATM   18  O   UNL     1     -40.185  53.835 -54.985  1.00  0.00    -0.267 OA
ENDBRANCH   6   7
ENDBRANCH   3   6
ENDBRANCH   1   2
BRANCH   1  19
HETATM   19  C   UNL     1     -43.276  55.119 -58.858  1.00  0.00     0.029 C 
BRANCH  19  20
HETATM   20  C   UNL     1     -44.265  54.244 -59.625  1.00  0.00     0.104 C 
BRANCH  20  21
HETATM   21  C   UNL     1     -45.210  55.036 -60.505  1.00  0.00     0.217 C 
HETATM   22  N   UNL     1     -46.188  55.738 -59.843  1.00  0.00    -0.361 N 
HETATM   23  H   UNL     1     -46.294  55.580 -58.842  1.00  0.00     0.162 HD
HETATM   24  O   UNL     1     -45.135  55.036 -61.733  1.00  0.00    -0.274 OA
BRANCH  22  25
HETATM   25  C   UNL     1     -47.289  56.376 -60.533  1.00  0.00     0.124 C 
BRANCH  25  26
HETATM   26  C   UNL     1     -47.090  57.871 -60.781  1.00  0.00     0.047 C 
BRANCH  26  27
HETATM   27  C   UNL     1     -47.053  58.791 -59.558  1.00  0.00     0.236 C 
BRANCH  27  28
HETATM   28  N   UNL     1     -45.663  59.100 -59.048  1.00  0.00    -0.070 N 
HETATM   29  H   UNL     1     -45.662  60.131 -58.890  1.00  0.00     0.279 HD
HETATM   30  C   UNL     1     -45.286  58.373 -57.787  1.00  0.00     0.239 C 
HETATM   31  C   UNL     1     -43.917  58.824 -57.272  1.00  0.00     0.008 C 
HETATM   32  C   UNL     1     -43.965  60.232 -56.671  1.00  0.00     0.011 C 
HETATM   33  C   UNL     1     -42.850  58.707 -58.368  1.00  0.00     0.011 C 
HETATM   34  C   UNL     1     -43.268  59.402 -59.668  1.00  0.00     0.008 C 
HETATM   35  C   UNL     1     -42.215  59.179 -60.754  1.00  0.00     0.011 C 
HETATM   36  C   UNL     1     -44.634  58.900 -60.141  1.00  0.00     0.239 C 
ENDBRANCH  27  28
ENDBRANCH  26  27
ENDBRANCH  25  26
ENDBRANCH  22  25
ENDBRANCH  20  21
ENDBRANCH  19  20
ENDBRANCH   1  19
TORSDOF 10
ENDMDL
MODEL 2
REMARK VINA RESULT:      -7.7      2.252      4.390
REMARK  10 active torsions:
REMARK  status: ('A' for Active; 'I' for Inactive)
REMARK    1  A    between atoms: N_7  and  C_8 
REMARK    2  A    between atoms: C_8  and  C_9 
REMARK       I    between atoms: C_9  and  N_10 
REMARK    3  A    between atoms: N_10  and  C_11 
REMARK    4  A    between atoms: C_11  and  C_12 
REMARK    5  A    between atoms: C_12  and  C_13 
REMARK    6  A    between atoms: C_13  and  C_14 
REMARK       I    between atoms: C_14  and  N_15 
REMARK    7  A    between atoms: N_15  and  C_16 
REMARK    8  A    between atoms: C_16  and  C_17 
REMARK    9  A    between atoms: C_17  and  C_18 
REMARK   10  A    between atoms: C_18  and  N_19 
ROOT
HETATM    1  C   UNL     1     -44.122  57.853 -52.274  1.00  0.00     0.123 C 
ENDROOT
BRANCH   1   2
HETATM    2  N   UNL     1     -42.910  57.515 -51.557  1.00  0.00    -0.360 N 
HETATM    3  C   UNL     1     -42.828  56.374 -50.779  1.00  0.00     0.235 C 
HETATM    4  O   UNL     1     -43.775  55.608 -50.627  1.00  0.00    -0.272 OA
HETATM    5  H   UNL     1     -42.132  58.163 -51.584  1.00  0.00     0.162 HD
BRANCH   3   6
HETATM    6  C   UNL     1     -41.440  56.114 -50.192  1.00  0.00     0.235 C 
BRANCH   6   7
HETATM    7  N   UNL     1     -40.960  54.805 -50.597  1.00  0.00    -0.299 N 
HETATM    8  C   UNL     1     -40.627  53.861 -49.644  1.00  0.00     0.214 A 
HETATM    9  N   UNL     1     -40.222  52.658 -49.889  1.00  0.00    -0.235 NA
HETATM   10  C   UNL     1     -40.134  52.355 -51.209  1.00  0.00     0.115 A 
HETATM   11  C   UNL     1     -40.380  53.200 -52.268  1.00  0.00     0.075 A 
HETATM   12  S   UNL     1     -39.686  50.802 -51.732  1.00  0.00    -0.074 SA
HETATM   13  C   UNL     1     -40.186  52.565 -53.547  1.00  0.00    -0.031 A 
HETATM   14  C   UNL     1     -40.798  54.559 -51.958  1.00  0.00     0.262 A 
HETATM   15  C   UNL     1     -40.369  53.253 -54.863  1.00  0.00     0.050 C 
HETATM   16  C   UNL     1     -39.838  51.231 -53.383  1.00  0.00    -0.012 A 
HETATM   17  C   UNL     1     -39.585  50.193 -54.428  1.00  0.00     0.057 C 
HETATM   18  O   UNL     1     -40.992  55.415 -52.818  1.00  0.00    -0.267 OA
ENDBRANCH   6   7
ENDBRANCH   3   6
ENDBRANCH   1   2
BRANCH   1  19
HETATM   19  C   UNL     1     -43.858  58.787 -53.454  1.00  0.00     0.029 C 
BRANCH  19  20
HETATM   20  C   UNL     1     -42.425  58.634 -53.958  1.00  0.00     0.104 C 
BRANCH  20  21
HETATM   21  C   UNL     1     -42.339  58.081 -55.366  1.00  0.00     0.217 C 
HETATM   22  N   UNL     1     -42.325  56.711 -55.466  1.00  0.00    -0.361 N 
HETATM   23  H   UNL     1     -42.242  56.171 -54.606  1.00  0.00     0.162 HD
HETATM   24  O   UNL     1     -42.258  58.802 -56.361  1.00  0.00    -0.274 OA
BRANCH  22  25
HETATM   25  C   UNL     1     -42.043  56.026 -56.708  1.00  0.00     0.124 C 
BRANCH  25  26
HETATM   26  C   UNL     1     -43.226  55.240 -57.274  1.00  0.00     0.047 C 
BRANCH  26  27
HETATM   27  C   UNL     1     -43.656  55.549 -58.710  1.00  0.00     0.236 C 
BRANCH  27  28
HETATM   28  N   UNL     1     -44.957  56.313 -58.824  1.00  0.00    -0.070 N 
HETATM   29  H   UNL     1     -45.603  55.836 -58.159  1.00  0.00     0.279 HD
HETATM   30  C   UNL     1     -44.851  57.776 -58.495  1.00  0.00     0.239 C 
HETATM   31  C   UNL     1     -46.223  58.454 -58.520  1.00  0.00     0.008 C 
HETATM   32  C   UNL     1     -47.083  58.053 -57.317  1.00  0.00     0.011 C 
HETATM   33  C   UNL     1     -46.943  58.193 -59.849  1.00  0.00     0.011 C 
HETATM   34  C   UNL     1     -46.996  56.703 -60.203  1.00  0.00     0.008 C 
HETATM   35  C   UNL     1     -47.641  56.504 -61.575  1.00  0.00     0.011 C 
HETATM   36  C   UNL     1     -45.596  56.085 -60.178  1.00  0.00     0.239 C 
ENDBRANCH  27  28
ENDBRANCH  26  27
ENDBRANCH  25  26
ENDBRANCH  22  25
ENDBRANCH  20  21
ENDBRANCH  19  20
ENDBRANCH   1  19
TORSDOF 10
ENDMDL
MODEL 3
REMARK VINA RESULT:      -7.4      2.673      6.776
REMARK  10 active torsions:
REMARK  status: ('A' for Active; 'I' for Inactive)
REMARK    1  A    between atoms: N_7  and  C_8 
REMARK    2  A    between atoms: C_8  and  C_9 
REMARK       I    between atoms: C_9  and  N_10 
REMARK    3  A    between atoms: N_10  and  C_11 
REMARK    4  A    between atoms: C_11  and  C_12 
REMARK    5  A    between atoms: C_12  and  C_13 
REMARK    6  A    between atoms: C_13  and  C_14 
REMARK       I    between atoms: C_14  and  N_15 
REMARK    7  A    between atoms: N_15  and  C_16 
REMARK    8  A    between atoms: C_16  and  C_17 
REMARK    9  A    between atoms: C_17  and  C_18 
REMARK   10  A    between atoms: C_18  and  N_19 
ROOT
HETATM    1  C   UNL     1     -45.397  59.158 -59.806  1.00  0.00     0.123 C 
ENDROOT
BRANCH   1   2
HETATM    2  N   UNL     1     -45.274  59.938 -58.592  1.00  0.00    -0.360 N 
HETATM    3  C   UNL     1     -45.465  59.368 -57.347  1.00  0.00     0.235 C 
HETATM    4  O   UNL     1     -45.776  58.189 -57.200  1.00  0.00    -0.272 OA
HETATM    5  H   UNL     1     -45.103  60.934 -58.669  1.00  0.00     0.162 HD
BRANCH   3   6
HETATM    6  C   UNL     1     -45.179  60.308 -56.176  1.00  0.00     0.235 C 
BRANCH   6   7
HETATM    7  N   UNL     1     -44.021  59.847 -55.431  1.00  0.00    -0.299 N 
HETATM    8  C   UNL     1     -42.748  60.059 -55.925  1.00  0.00     0.214 A 
HETATM    9  N   UNL     1     -41.648  59.722 -55.334  1.00  0.00    -0.235 NA
HETATM   10  C   UNL     1     -41.822  59.112 -54.134  1.00  0.00     0.115 A 
HETATM   11  C   UNL     1     -43.021  58.789 -53.538  1.00  0.00     0.075 A 
HETATM   12  S   UNL     1     -40.497  58.657 -53.173  1.00  0.00    -0.074 SA
HETATM   13  C   UNL     1     -42.854  58.138 -52.263  1.00  0.00    -0.031 A 
HETATM   14  C   UNL     1     -44.239  59.147 -54.247  1.00  0.00     0.262 A 
HETATM   15  C   UNL     1     -43.986  57.664 -51.407  1.00  0.00     0.050 C 
HETATM   16  C   UNL     1     -41.508  58.041 -51.936  1.00  0.00    -0.012 A 
HETATM   17  C   UNL     1     -40.881  57.481 -50.700  1.00  0.00     0.057 C 
HETATM   18  O   UNL     1     -45.363  58.860 -53.840  1.00  0.00    -0.267 OA
ENDBRANCH   6   7
ENDBRANCH   3   6
ENDBRANCH   1   2
BRANCH   1  19
HETATM   19  C   UNL     1     -44.152  59.253 -60.687  1.00  0.00     0.029 C 
BRANCH  19  20
HETATM   20  C   UNL     1     -42.904  58.839 -59.911  1.00  0.00     0.104 C 
BRANCH  20  21
HETATM   21  C   UNL     1     -42.872  57.363 -59.569  1.00  0.00     0.217 C 
HETATM   22  N   UNL     1     -43.150  57.052 -58.260  1.00  0.00    -0.361 N 
HETATM   23  H   UNL     1     -43.228  57.818 -57.594  1.00  0.00     0.162 HD
HETATM   24  O   UNL     1     -42.589  56.494 -60.393  1.00  0.00    -0.274 OA
BRANCH  22  25
HETATM   25  C   UNL     1     -42.963  55.721 -57.722  1.00  0.00     0.124 C 
BRANCH  25  26
HETATM   26  C   UNL     1     -42.498  55.694 -56.266  1.00  0.00     0.047 C 
BRANCH  26  27
HETATM   27  C   UNL     1     -43.250  54.773 -55.302  1.00  0.00     0.236 C 
BRANCH  27  28
HETATM   28  N   UNL     1     -42.360  53.955 -54.393  1.00  0.00    -0.070 N 
HETATM   29  H   UNL     1     -42.805  53.012 -54.365  1.00  0.00     0.279 HD
HETATM   30  C   UNL     1     -40.932  53.849 -54.851  1.00  0.00     0.239 C 
HETATM   31  C   UNL     1     -40.124  52.914 -53.947  1.00  0.00     0.008 C 
HETATM   32  C   UNL     1     -40.500  51.445 -54.159  1.00  0.00     0.011 C 
HETATM   33  C   UNL     1     -40.248  53.329 -52.475  1.00  0.00     0.011 C 
HETATM   34  C   UNL     1     -41.707  53.490 -52.033  1.00  0.00     0.008 C 
HETATM   35  C   UNL     1     -41.774  53.991 -50.590  1.00  0.00     0.011 C 
HETATM   36  C   UNL     1     -42.457  54.445 -52.963  1.00  0.00     0.239 C 
ENDBRANCH  27  28
ENDBRANCH  26  27
ENDBRANCH  25  26
ENDBRANCH  22  25
ENDBRANCH  20  21
ENDBRANCH  19  20
ENDBRANCH   1  19
TORSDOF 10
ENDMDL
MODEL 4
REMARK VINA RESULT:      -7.4      2.904      5.281
REMARK  10 active torsions:
REMARK  status: ('A' for Active; 'I' for Inactive)
REMARK    1  A    between atoms: N_7  and  C_8 
REMARK    2  A    between atoms: C_8  and  C_9 
REMARK       I    between atoms: C_9  and  N_10 
REMARK    3  A    between atoms: N_10  and  C_11 
REMARK    4  A    between atoms: C_11  and  C_12 
REMARK    5  A    between atoms: C_12  and  C_13 
REMARK    6  A    between atoms: C_13  and  C_14 
REMARK       I    between atoms: C_14  and  N_15 
REMARK    7  A    between atoms: N_15  and  C_16 
REMARK    8  A    between atoms: C_16  and  C_17 
REMARK    9  A    between atoms: C_17  and  C_18 
REMARK   10  A    between atoms: C_18  and  N_19 
ROOT
HETATM    1  C   UNL     1     -41.902  60.091 -50.826  1.00  0.00     0.123 C 
ENDROOT
BRANCH   1   2
HETATM    2  N   UNL     1     -42.070  58.679 -50.552  1.00  0.00    -0.360 N 
HETATM    3  C   UNL     1     -40.990  57.814 -50.538  1.00  0.00     0.235 C 
HETATM    4  O   UNL     1     -39.844  58.184 -50.783  1.00  0.00    -0.272 OA
HETATM    5  H   UNL     1     -43.008  58.315 -50.430  1.00  0.00     0.162 HD
BRANCH   3   6
HETATM    6  C   UNL     1     -41.335  56.386 -50.115  1.00  0.00     0.235 C 
BRANCH   6   7
HETATM    7  N   UNL     1     -41.155  55.474 -51.230  1.00  0.00    -0.299 N 
HETATM    8  C   UNL     1     -41.434  55.887 -52.519  1.00  0.00     0.214 A 
HETATM    9  N   UNL     1     -41.279  55.173 -53.586  1.00  0.00    -0.235 NA
HETATM   10  C   UNL     1     -40.804  53.923 -53.358  1.00  0.00     0.115 A 
HETATM   11  C   UNL     1     -40.529  53.354 -52.135  1.00  0.00     0.075 A 
HETATM   12  S   UNL     1     -40.469  52.858 -54.639  1.00  0.00    -0.074 SA
HETATM   13  C   UNL     1     -40.042  52.002 -52.243  1.00  0.00    -0.031 A 
HETATM   14  C   UNL     1     -40.750  54.171 -50.952  1.00  0.00     0.262 A 
HETATM   15  C   UNL     1     -39.681  51.142 -51.073  1.00  0.00     0.050 C 
HETATM   16  C   UNL     1     -39.931  51.628 -53.576  1.00  0.00    -0.012 A 
HETATM   17  C   UNL     1     -39.432  50.341 -54.150  1.00  0.00     0.057 C 
HETATM   18  O   UNL     1     -40.592  53.752 -49.806  1.00  0.00    -0.267 OA
ENDBRANCH   6   7
ENDBRANCH   3   6
ENDBRANCH   1   2
BRANCH   1  19
HETATM   19  C   UNL     1     -42.970  60.629 -51.777  1.00  0.00     0.029 C 
BRANCH  19  20
HETATM   20  C   UNL     1     -44.319  59.963 -51.511  1.00  0.00     0.104 C 
BRANCH  20  21
HETATM   21  C   UNL     1     -44.915  59.304 -52.739  1.00  0.00     0.217 C 
HETATM   22  N   UNL     1     -44.534  58.002 -52.957  1.00  0.00    -0.361 N 
HETATM   23  H   UNL     1     -43.795  57.617 -52.371  1.00  0.00     0.162 HD
HETATM   24  O   UNL     1     -45.668  59.895 -53.513  1.00  0.00    -0.274 OA
BRANCH  22  25
HETATM   25  C   UNL     1     -44.844  57.297 -54.182  1.00  0.00     0.124 C 
BRANCH  25  26
HETATM   26  C   UNL     1     -43.708  57.287 -55.204  1.00  0.00     0.047 C 
BRANCH  26  27
HETATM   27  C   UNL     1     -43.770  58.313 -56.339  1.00  0.00     0.236 C 
BRANCH  27  28
HETATM   28  N   UNL     1     -43.774  57.712 -57.727  1.00  0.00    -0.070 N 
HETATM   29  H   UNL     1     -43.420  58.472 -58.346  1.00  0.00     0.279 HD
HETATM   30  C   UNL     1     -42.929  56.477 -57.874  1.00  0.00     0.239 C 
HETATM   31  C   UNL     1     -42.891  55.996 -59.327  1.00  0.00     0.008 C 
HETATM   32  C   UNL     1     -42.042  56.913 -60.212  1.00  0.00     0.011 C 
HETATM   33  C   UNL     1     -44.309  55.817 -59.884  1.00  0.00     0.011 C 
HETATM   34  C   UNL     1     -45.181  57.060 -59.679  1.00  0.00     0.008 C 
HETATM   35  C   UNL     1     -46.605  56.799 -60.168  1.00  0.00     0.011 C 
HETATM   36  C   UNL     1     -45.192  57.483 -58.209  1.00  0.00     0.239 C 
ENDBRANCH  27  28
ENDBRANCH  26  27
ENDBRANCH  25  26
ENDBRANCH  22  25
ENDBRANCH  20  21
ENDBRANCH  19  20
ENDBRANCH   1  19
TORSDOF 10
ENDMDL
MODEL 5
REMARK VINA RESULT:      -7.4      2.687      4.864
REMARK  10 active torsions:
REMARK  status: ('A' for Active; 'I' for Inactive)
REMARK    1  A    between atoms: N_7  and  C_8 
REMARK    2  A    between atoms: C_8  and  C_9 
REMARK       I    between atoms: C_9  and  N_10 
REMARK    3  A    between atoms: N_10  and  C_11 
REMARK    4  A    between atoms: C_11  and  C_12 
REMARK    5  A    between atoms: C_12  and  C_13 
REMARK    6  A    between atoms: C_13  and  C_14 
REMARK       I    between atoms: C_14  and  N_15 
REMARK    7  A    between atoms: N_15  and  C_16 
REMARK    8  A    between atoms: C_16  and  C_17 
REMARK    9  A    between atoms: C_17  and  C_18 
REMARK   10  A    between atoms: C_18  and  N_19 
ROOT
HETATM    1  C   UNL     1     -44.449  57.569 -52.689  1.00  0.00     0.123 C 
ENDROOT
BRANCH   1   2
HETATM    2  N   UNL     1     -43.190  57.384 -51.999  1.00  0.00    -0.360 N 
HETATM    3  C   UNL     1     -43.038  56.416 -51.023  1.00  0.00     0.235 C 
HETATM    4  O   UNL     1     -43.960  55.686 -50.667  1.00  0.00    -0.272 OA
HETATM    5  H   UNL     1     -42.428  58.022 -52.198  1.00  0.00     0.162 HD
BRANCH   3   6
HETATM    6  C   UNL     1     -41.613  56.284 -50.486  1.00  0.00     0.235 C 
BRANCH   6   7
HETATM    7  N   UNL     1     -41.084  54.965 -50.780  1.00  0.00    -0.299 N 
HETATM    8  C   UNL     1     -40.765  54.098 -49.753  1.00  0.00     0.214 A 
HETATM    9  N   UNL     1     -40.321  52.892 -49.898  1.00  0.00    -0.235 NA
HETATM   10  C   UNL     1     -40.173  52.503 -51.190  1.00  0.00     0.115 A 
HETATM   11  C   UNL     1     -40.399  53.266 -52.313  1.00  0.00     0.075 A 
HETATM   12  S   UNL     1     -39.665  50.930 -51.587  1.00  0.00    -0.074 SA
HETATM   13  C   UNL     1     -40.138  52.552 -53.538  1.00  0.00    -0.031 A 
HETATM   14  C   UNL     1     -40.862  54.630 -52.114  1.00  0.00     0.262 A 
HETATM   15  C   UNL     1     -40.286  53.142 -54.904  1.00  0.00     0.050 C 
HETATM   16  C   UNL     1     -39.762  51.242 -53.268  1.00  0.00    -0.012 A 
HETATM   17  C   UNL     1     -39.442  50.142 -54.228  1.00  0.00     0.057 C 
HETATM   18  O   UNL     1     -41.044  55.421 -53.038  1.00  0.00    -0.267 OA
ENDBRANCH   6   7
ENDBRANCH   3   6
ENDBRANCH   1   2
BRANCH   1  19
HETATM   19  C   UNL     1     -44.344  58.580 -53.830  1.00  0.00     0.029 C 
BRANCH  19  20
HETATM   20  C   UNL     1     -44.111  59.988 -53.287  1.00  0.00     0.104 C 
BRANCH  20  21
HETATM   21  C   UNL     1     -43.430  60.909 -54.280  1.00  0.00     0.217 C 
HETATM   22  N   UNL     1     -43.418  60.471 -55.583  1.00  0.00    -0.361 N 
HETATM   23  H   UNL     1     -43.739  59.523 -55.770  1.00  0.00     0.162 HD
HETATM   24  O   UNL     1     -42.896  61.967 -53.950  1.00  0.00    -0.274 OA
BRANCH  22  25
HETATM   25  C   UNL     1     -42.638  61.122 -56.613  1.00  0.00     0.124 C 
BRANCH  25  26
HETATM   26  C   UNL     1     -41.749  60.175 -57.419  1.00  0.00     0.047 C 
BRANCH  26  27
HETATM   27  C   UNL     1     -42.268  59.708 -58.782  1.00  0.00     0.236 C 
BRANCH  27  28
HETATM   28  N   UNL     1     -42.936  58.351 -58.767  1.00  0.00    -0.070 N 
HETATM   29  H   UNL     1     -43.940  58.552 -58.572  1.00  0.00     0.279 HD
HETATM   30  C   UNL     1     -42.794  57.574 -60.046  1.00  0.00     0.239 C 
HETATM   31  C   UNL     1     -43.591  56.267 -59.995  1.00  0.00     0.008 C 
HETATM   32  C   UNL     1     -45.100  56.511 -60.089  1.00  0.00     0.011 C 
HETATM   33  C   UNL     1     -43.222  55.445 -58.754  1.00  0.00     0.011 C 
HETATM   34  C   UNL     1     -43.314  56.262 -57.461  1.00  0.00     0.008 C 
HETATM   35  C   UNL     1     -42.850  55.426 -56.268  1.00  0.00     0.011 C 
HETATM   36  C   UNL     1     -42.487  57.545 -57.566  1.00  0.00     0.239 C 
ENDBRANCH  27  28
ENDBRANCH  26  27
ENDBRANCH  25  26
ENDBRANCH  22  25
ENDBRANCH  20  21
ENDBRANCH  19  20
ENDBRANCH   1  19
TORSDOF 10
ENDMDL
MODEL 6
REMARK VINA RESULT:      -7.3      3.252      8.932
REMARK  10 active torsions:
REMARK  status: ('A' for Active; 'I' for Inactive)
REMARK    1  A    between atoms: N_7  and  C_8 
REMARK    2  A    between atoms: C_8  and  C_9 
REMARK       I    between atoms: C_9  and  N_10 
REMARK    3  A    between atoms: N_10  and  C_11 
REMARK    4  A    between atoms: C_11  and  C_12 
REMARK    5  A    between atoms: C_12  and  C_13 
REMARK    6  A    between atoms: C_13  and  C_14 
REMARK       I    between atoms: C_14  and  N_15 
REMARK    7  A    between atoms: N_15  and  C_16 
REMARK    8  A    between atoms: C_16  and  C_17 
REMARK    9  A    between atoms: C_17  and  C_18 
REMARK   10  A    between atoms: C_18  and  N_19 
ROOT
HETATM    1  C   UNL     1     -42.376  58.922 -53.339  1.00  0.00     0.123 C 
ENDROOT
BRANCH   1   2
HETATM    2  N   UNL     1     -42.822  59.419 -54.624  1.00  0.00    -0.360 N 
HETATM    3  C   UNL     1     -44.159  59.663 -54.878  1.00  0.00     0.235 C 
HETATM    4  O   UNL     1     -45.040  59.447 -54.049  1.00  0.00    -0.272 OA
HETATM    5  H   UNL     1     -42.140  59.531 -55.365  1.00  0.00     0.162 HD
BRANCH   3   6
HETATM    6  C   UNL     1     -44.434  60.296 -56.242  1.00  0.00     0.235 C 
BRANCH   6   7
HETATM    7  N   UNL     1     -44.988  59.311 -57.152  1.00  0.00    -0.299 N 
HETATM    8  C   UNL     1     -46.354  59.238 -57.351  1.00  0.00     0.214 A 
HETATM    9  N   UNL     1     -46.953  58.426 -58.159  1.00  0.00    -0.235 NA
HETATM   10  C   UNL     1     -46.120  57.597 -58.838  1.00  0.00     0.115 A 
HETATM   11  C   UNL     1     -44.751  57.516 -58.710  1.00  0.00     0.075 A 
HETATM   12  S   UNL     1     -46.711  56.505 -59.998  1.00  0.00    -0.074 SA
HETATM   13  C   UNL     1     -44.166  56.523 -59.575  1.00  0.00    -0.031 A 
HETATM   14  C   UNL     1     -44.112  58.418 -57.765  1.00  0.00     0.262 A 
HETATM   15  C   UNL     1     -42.703  56.214 -59.631  1.00  0.00     0.050 C 
HETATM   16  C   UNL     1     -45.142  55.923 -60.361  1.00  0.00    -0.012 A 
HETATM   17  C   UNL     1     -44.983  54.879 -61.419  1.00  0.00     0.057 C 
HETATM   18  O   UNL     1     -42.906  58.399 -57.526  1.00  0.00    -0.267 OA
ENDBRANCH   6   7
ENDBRANCH   3   6
ENDBRANCH   1   2
BRANCH   1  19
HETATM   19  C   UNL     1     -42.021  60.049 -52.371  1.00  0.00     0.029 C 
BRANCH  19  20
HETATM   20  C   UNL     1     -42.078  59.561 -50.925  1.00  0.00     0.104 C 
BRANCH  20  21
HETATM   21  C   UNL     1     -41.222  58.337 -50.670  1.00  0.00     0.217 C 
HETATM   22  N   UNL     1     -41.898  57.220 -50.243  1.00  0.00    -0.361 N 
HETATM   23  H   UNL     1     -42.883  57.320 -50.005  1.00  0.00     0.162 HD
HETATM   24  O   UNL     1     -39.999  58.340 -50.805  1.00  0.00    -0.274 OA
BRANCH  22  25
HETATM   25  C   UNL     1     -41.217  56.038 -49.761  1.00  0.00     0.124 C 
BRANCH  25  26
HETATM   26  C   UNL     1     -41.691  54.735 -50.405  1.00  0.00     0.047 C 
BRANCH  26  27
HETATM   27  C   UNL     1     -42.698  54.841 -51.553  1.00  0.00     0.236 C 
BRANCH  27  28
HETATM   28  N   UNL     1     -42.140  54.479 -52.912  1.00  0.00    -0.070 N 
HETATM   29  H   UNL     1     -42.968  54.167 -53.463  1.00  0.00     0.279 HD
HETATM   30  C   UNL     1     -41.434  55.605 -53.614  1.00  0.00     0.239 C 
HETATM   31  C   UNL     1     -41.001  55.198 -55.025  1.00  0.00     0.008 C 
HETATM   32  C   UNL     1     -42.192  55.094 -55.983  1.00  0.00     0.011 C 
HETATM   33  C   UNL     1     -40.178  53.904 -54.996  1.00  0.00     0.011 C 
HETATM   34  C   UNL     1     -40.880  52.779 -54.229  1.00  0.00     0.008 C 
HETATM   35  C   UNL     1     -39.982  51.544 -54.151  1.00  0.00     0.011 C 
HETATM   36  C   UNL     1     -41.274  53.240 -52.824  1.00  0.00     0.239 C 
ENDBRANCH  27  28
ENDBRANCH  26  27
ENDBRANCH  25  26
ENDBRANCH  22  25
ENDBRANCH  20  21
ENDBRANCH  19  20
ENDBRANCH   1  19
TORSDOF 10
ENDMDL
MODEL 7
REMARK VINA RESULT:      -7.2      2.800      5.123
REMARK  10 active torsions:
REMARK  status: ('A' for Active; 'I' for Inactive)
REMARK    1  A    between atoms: N_7  and  C_8 
REMARK    2  A    between atoms: C_8  and  C_9 
REMARK       I    between atoms: C_9  and  N_10 
REMARK    3  A    between atoms: N_10  and  C_11 
REMARK    4  A    between atoms: C_11  and  C_12 
REMARK    5  A    between atoms: C_12  and  C_13 
REMARK    6  A    between atoms: C_13  and  C_14 
REMARK       I    between atoms: C_14  and  N_15 
REMARK    7  A    between atoms: N_15  and  C_16 
REMARK    8  A    between atoms: C_16  and  C_17 
REMARK    9  A    between atoms: C_17  and  C_18 
REMARK   10  A    between atoms: C_18  and  N_19 
ROOT
HETATM    1  C   UNL     1     -45.512  58.944 -50.639  1.00  0.00     0.123 C 
ENDROOT
BRANCH   1   2
HETATM    2  N   UNL     1     -44.088  58.740 -50.806  1.00  0.00    -0.360 N 
HETATM    3  C   UNL     1     -43.588  57.965 -51.838  1.00  0.00     0.235 C 
HETATM    4  O   UNL     1     -44.314  57.389 -52.643  1.00  0.00    -0.272 OA
HETATM    5  H   UNL     1     -43.456  59.126 -50.114  1.00  0.00     0.162 HD
BRANCH   3   6
HETATM    6  C   UNL     1     -42.062  57.956 -51.932  1.00  0.00     0.235 C 
BRANCH   6   7
HETATM    7  N   UNL     1     -41.557  56.603 -51.784  1.00  0.00    -0.299 N 
HETATM    8  C   UNL     1     -41.397  56.054 -50.526  1.00  0.00     0.214 A 
HETATM    9  N   UNL     1     -40.988  54.853 -50.277  1.00  0.00    -0.235 NA
HETATM   10  C   UNL     1     -40.705  54.118 -51.383  1.00  0.00     0.115 A 
HETATM   11  C   UNL     1     -40.766  54.540 -52.692  1.00  0.00     0.075 A 
HETATM   12  S   UNL     1     -40.220  52.494 -51.265  1.00  0.00    -0.074 SA
HETATM   13  C   UNL     1     -40.393  53.511 -53.630  1.00  0.00    -0.031 A 
HETATM   14  C   UNL     1     -41.193  55.909 -52.935  1.00  0.00     0.262 A 
HETATM   15  C   UNL     1     -40.355  53.699 -55.114  1.00  0.00     0.050 C 
HETATM   16  C   UNL     1     -40.106  52.326 -52.965  1.00  0.00    -0.012 A 
HETATM   17  C   UNL     1     -39.720  51.000 -53.538  1.00  0.00     0.057 C 
HETATM   18  O   UNL     1     -41.232  56.412 -54.057  1.00  0.00    -0.267 OA
ENDBRANCH   6   7
ENDBRANCH   3   6
ENDBRANCH   1   2
BRANCH   1  19
HETATM   19  C   UNL     1     -45.934  60.378 -50.955  1.00  0.00     0.029 C 
BRANCH  19  20
HETATM   20  C   UNL     1     -46.350  60.511 -52.418  1.00  0.00     0.104 C 
BRANCH  20  21
HETATM   21  C   UNL     1     -45.225  60.974 -53.322  1.00  0.00     0.217 C 
HETATM   22  N   UNL     1     -45.178  60.381 -54.561  1.00  0.00    -0.361 N 
HETATM   23  H   UNL     1     -45.803  59.597 -54.738  1.00  0.00     0.162 HD
HETATM   24  O   UNL     1     -44.386  61.803 -52.971  1.00  0.00    -0.274 OA
BRANCH  22  25
HETATM   25  C   UNL     1     -44.059  60.554 -55.462  1.00  0.00     0.124 C 
BRANCH  25  26
HETATM   26  C   UNL     1     -43.065  59.393 -55.457  1.00  0.00     0.047 C 
BRANCH  26  27
HETATM   27  C   UNL     1     -43.543  58.051 -56.020  1.00  0.00     0.236 C 
BRANCH  27  28
HETATM   28  N   UNL     1     -43.336  57.887 -57.509  1.00  0.00    -0.070 N 
HETATM   29  H   UNL     1     -44.076  58.476 -57.946  1.00  0.00     0.279 HD
HETATM   30  C   UNL     1     -41.976  58.303 -57.998  1.00  0.00     0.239 C 
HETATM   31  C   UNL     1     -41.882  58.217 -59.524  1.00  0.00     0.008 C 
HETATM   32  C   UNL     1     -42.678  59.331 -60.211  1.00  0.00     0.011 C 
HETATM   33  C   UNL     1     -42.296  56.828 -60.024  1.00  0.00     0.011 C 
HETATM   34  C   UNL     1     -43.657  56.388 -59.475  1.00  0.00     0.008 C 
HETATM   35  C   UNL     1     -43.981  54.965 -59.928  1.00  0.00     0.011 C 
HETATM   36  C   UNL     1     -43.685  56.480 -57.948  1.00  0.00     0.239 C 
ENDBRANCH  27  28
ENDBRANCH  26  27
ENDBRANCH  25  26
ENDBRANCH  22  25
ENDBRANCH  20  21
ENDBRANCH  19  20
ENDBRANCH   1  19
TORSDOF 10
ENDMDL
MODEL 8
REMARK VINA RESULT:      -7.1      2.997      8.665
REMARK  10 active torsions:
REMARK  status: ('A' for Active; 'I' for Inactive)
REMARK    1  A    between atoms: N_7  and  C_8 
REMARK    2  A    between atoms: C_8  and  C_9 
REMARK       I    between atoms: C_9  and  N_10 
REMARK    3  A    between atoms: N_10  and  C_11 
REMARK    4  A    between atoms: C_11  and  C_12 
REMARK    5  A    between atoms: C_12  and  C_13 
REMARK    6  A    between atoms: C_13  and  C_14 
REMARK       I    between atoms: C_14  and  N_15 
REMARK    7  A    between atoms: N_15  and  C_16 
REMARK    8  A    between atoms: C_16  and  C_17 
REMARK    9  A    between atoms: C_17  and  C_18 
REMARK   10  A    between atoms: C_18  and  N_19 
ROOT
HETATM    1  C   UNL     1     -45.519  55.426 -60.812  1.00  0.00     0.123 C 
ENDROOT
BRANCH   1   2
HETATM    2  N   UNL     1     -45.806  56.839 -60.938  1.00  0.00    -0.360 N 
HETATM    3  C   UNL     1     -46.506  57.522 -59.959  1.00  0.00     0.235 C 
HETATM    4  O   UNL     1     -46.946  56.970 -58.954  1.00  0.00    -0.272 OA
HETATM    5  H   UNL     1     -45.538  57.316 -61.790  1.00  0.00     0.162 HD
BRANCH   3   6
HETATM    6  C   UNL     1     -46.615  59.028 -60.201  1.00  0.00     0.235 C 
BRANCH   6   7
HETATM    7  N   UNL     1     -45.523  59.723 -59.544  1.00  0.00    -0.299 N 
HETATM    8  C   UNL     1     -45.570  59.965 -58.184  1.00  0.00     0.214 A 
HETATM    9  N   UNL     1     -44.644  60.544 -57.492  1.00  0.00    -0.235 NA
HETATM   10  C   UNL     1     -43.561  60.925 -58.216  1.00  0.00     0.115 A 
HETATM   11  C   UNL     1     -43.391  60.798 -59.576  1.00  0.00     0.075 A 
HETATM   12  S   UNL     1     -42.209  61.639 -57.474  1.00  0.00    -0.074 SA
HETATM   13  C   UNL     1     -42.123  61.312 -60.032  1.00  0.00    -0.031 A 
HETATM   14  C   UNL     1     -44.468  60.178 -60.331  1.00  0.00     0.262 A 
HETATM   15  C   UNL     1     -41.683  61.316 -61.462  1.00  0.00     0.050 C 
HETATM   16  C   UNL     1     -41.368  61.769 -58.960  1.00  0.00    -0.012 A 
HETATM   17  C   UNL     1     -39.986  62.339 -58.963  1.00  0.00     0.057 C 
HETATM   18  O   UNL     1     -44.451  60.062 -61.555  1.00  0.00    -0.267 OA
ENDBRANCH   6   7
ENDBRANCH   3   6
ENDBRANCH   1   2
BRANCH   1  19
HETATM   19  C   UNL     1     -44.243  55.161 -60.013  1.00  0.00     0.029 C 
BRANCH  19  20
HETATM   20  C   UNL     1     -43.325  56.381 -60.035  1.00  0.00     0.104 C 
BRANCH  20  21
HETATM   21  C   UNL     1     -43.019  56.927 -58.655  1.00  0.00     0.217 C 
HETATM   22  N   UNL     1     -43.884  56.541 -57.659  1.00  0.00    -0.361 N 
HETATM   23  H   UNL     1     -44.726  56.036 -57.929  1.00  0.00     0.162 HD
HETATM   24  O   UNL     1     -42.078  57.688 -58.433  1.00  0.00    -0.274 OA
BRANCH  22  25
HETATM   25  C   UNL     1     -43.859  57.129 -56.337  1.00  0.00     0.124 C 
BRANCH  25  26
HETATM   26  C   UNL     1     -43.212  56.245 -55.271  1.00  0.00     0.047 C 
BRANCH  26  27
HETATM   27  C   UNL     1     -43.167  54.737 -55.536  1.00  0.00     0.236 C 
BRANCH  27  28
HETATM   28  N   UNL     1     -42.326  53.953 -54.553  1.00  0.00    -0.070 N 
HETATM   29  H   UNL     1     -42.759  53.004 -54.532  1.00  0.00     0.279 HD
HETATM   30  C   UNL     1     -40.870  53.859 -54.915  1.00  0.00     0.239 C 
HETATM   31  C   UNL     1     -40.110  52.957 -53.939  1.00  0.00     0.008 C 
HETATM   32  C   UNL     1     -40.451  51.478 -54.141  1.00  0.00     0.011 C 
HETATM   33  C   UNL     1     -40.336  53.401 -52.488  1.00  0.00     0.011 C 
HETATM   34  C   UNL     1     -41.822  53.549 -52.145  1.00  0.00     0.008 C 
HETATM   35  C   UNL     1     -41.991  54.080 -50.722  1.00  0.00     0.011 C 
HETATM   36  C   UNL     1     -42.523  54.473 -53.144  1.00  0.00     0.239 C 
ENDBRANCH  27  28
ENDBRANCH  26  27
ENDBRANCH  25  26
ENDBRANCH  22  25
ENDBRANCH  20  21
ENDBRANCH  19  20
ENDBRANCH   1  19
TORSDOF 10
ENDMDL
MODEL 9
REMARK VINA RESULT:      -7.1      2.864      4.887
REMARK  10 active torsions:
REMARK  status: ('A' for Active; 'I' for Inactive)
REMARK    1  A    between atoms: N_7  and  C_8 
REMARK    2  A    between atoms: C_8  and  C_9 
REMARK       I    between atoms: C_9  and  N_10 
REMARK    3  A    between atoms: N_10  and  C_11 
REMARK    4  A    between atoms: C_11  and  C_12 
REMARK    5  A    between atoms: C_12  and  C_13 
REMARK    6  A    between atoms: C_13  and  C_14 
REMARK       I    between atoms: C_14  and  N_15 
REMARK    7  A    between atoms: N_15  and  C_16 
REMARK    8  A    between atoms: C_16  and  C_17 
REMARK    9  A    between atoms: C_17  and  C_18 
REMARK   10  A    between atoms: C_18  and  N_19 
ROOT
HETATM    1  C   UNL     1     -44.860  57.735 -51.222  1.00  0.00     0.123 C 
ENDROOT
BRANCH   1   2
HETATM    2  N   UNL     1     -43.459  57.521 -50.928  1.00  0.00    -0.360 N 
HETATM    3  C   UNL     1     -42.968  56.261 -50.634  1.00  0.00     0.235 C 
HETATM    4  O   UNL     1     -43.689  55.268 -50.576  1.00  0.00    -0.272 OA
HETATM    5  H   UNL     1     -42.843  58.325 -50.879  1.00  0.00     0.162 HD
BRANCH   3   6
HETATM    6  C   UNL     1     -41.450  56.202 -50.466  1.00  0.00     0.235 C 
BRANCH   6   7
HETATM    7  N   UNL     1     -40.959  54.875 -50.789  1.00  0.00    -0.299 N 
HETATM    8  C   UNL     1     -40.627  53.992 -49.779  1.00  0.00     0.214 A 
HETATM    9  N   UNL     1     -40.213  52.779 -49.950  1.00  0.00    -0.235 NA
HETATM   10  C   UNL     1     -40.113  52.399 -51.248  1.00  0.00     0.115 A 
HETATM   11  C   UNL     1     -40.357  53.177 -52.357  1.00  0.00     0.075 A 
HETATM   12  S   UNL     1     -39.652  50.820 -51.675  1.00  0.00    -0.074 SA
HETATM   13  C   UNL     1     -40.150  52.469 -53.596  1.00  0.00    -0.031 A 
HETATM   14  C   UNL     1     -40.785  54.549 -52.132  1.00  0.00     0.262 A 
HETATM   15  C   UNL     1     -40.327  53.076 -54.951  1.00  0.00     0.050 C 
HETATM   16  C   UNL     1     -39.794  51.149 -53.349  1.00  0.00    -0.012 A 
HETATM   17  C   UNL     1     -39.527  50.052 -54.329  1.00  0.00     0.057 C 
HETATM   18  O   UNL     1     -40.978  55.352 -53.043  1.00  0.00    -0.267 OA
ENDBRANCH   6   7
ENDBRANCH   3   6
ENDBRANCH   1   2
BRANCH   1  19
HETATM   19  C   UNL     1     -45.359  59.089 -50.720  1.00  0.00     0.029 C 
BRANCH  19  20
HETATM   20  C   UNL     1     -46.164  59.806 -51.801  1.00  0.00     0.104 C 
BRANCH  20  21
HETATM   21  C   UNL     1     -45.309  60.330 -52.938  1.00  0.00     0.217 C 
HETATM   22  N   UNL     1     -45.969  60.552 -54.122  1.00  0.00    -0.361 N 
HETATM   23  H   UNL     1     -46.934  60.234 -54.198  1.00  0.00     0.162 HD
HETATM   24  O   UNL     1     -44.098  60.521 -52.828  1.00  0.00    -0.274 OA
BRANCH  22  25
HETATM   25  C   UNL     1     -45.273  60.852 -55.355  1.00  0.00     0.124 C 
BRANCH  25  26
HETATM   26  C   UNL     1     -46.054  60.497 -56.619  1.00  0.00     0.047 C 
BRANCH  26  27
HETATM   27  C   UNL     1     -46.086  59.025 -57.039  1.00  0.00     0.236 C 
BRANCH  27  28
HETATM   28  N   UNL     1     -44.763  58.305 -56.902  1.00  0.00    -0.070 N 
HETATM   29  H   UNL     1     -44.045  59.059 -56.954  1.00  0.00     0.279 HD
HETATM   30  C   UNL     1     -44.610  57.519 -55.629  1.00  0.00     0.239 C 
HETATM   31  C   UNL     1     -43.207  56.917 -55.510  1.00  0.00     0.008 C 
HETATM   32  C   UNL     1     -42.150  57.982 -55.203  1.00  0.00     0.011 C 
HETATM   33  C   UNL     1     -42.850  56.102 -56.760  1.00  0.00     0.011 C 
HETATM   34  C   UNL     1     -43.064  56.892 -58.055  1.00  0.00     0.008 C 
HETATM   35  C   UNL     1     -42.782  56.009 -59.271  1.00  0.00     0.011 C 
HETATM   36  C   UNL     1     -44.485  57.455 -58.124  1.00  0.00     0.239 C 
ENDBRANCH  27  28
ENDBRANCH  26  27
ENDBRANCH  25  26
ENDBRANCH  22  25
ENDBRANCH  20  21
ENDBRANCH  19  20
ENDBRANCH   1  19
TORSDOF 10
ENDMDL
MODEL 10
REMARK VINA RESULT:      -7.0      2.997      5.698
REMARK  10 active torsions:
REMARK  status: ('A' for Active; 'I' for Inactive)
REMARK    1  A    between atoms: N_7  and  C_8 
REMARK    2  A    between atoms: C_8  and  C_9 
REMARK       I    between atoms: C_9  and  N_10 
REMARK    3  A    between atoms: N_10  and  C_11 
REMARK    4  A    between atoms: C_11  and  C_12 
REMARK    5  A    between atoms: C_12  and  C_13 
REMARK    6  A    between atoms: C_13  and  C_14 
REMARK       I    between atoms: C_14  and  N_15 
REMARK    7  A    between atoms: N_15  and  C_16 
REMARK    8  A    between atoms: C_16  and  C_17 
REMARK    9  A    between atoms: C_17  and  C_18 
REMARK   10  A    between atoms: C_18  and  N_19 
ROOT
HETATM    1  C   UNL     1     -41.459  53.798 -54.199  1.00  0.00     0.123 C 
ENDROOT
BRANCH   1   2
HETATM    2  N   UNL     1     -41.484  54.790 -53.145  1.00  0.00    -0.360 N 
HETATM    3  C   UNL     1     -41.418  54.427 -51.811  1.00  0.00     0.235 C 
HETATM    4  O   UNL     1     -41.367  53.255 -51.448  1.00  0.00    -0.272 OA
HETATM    5  H   UNL     1     -41.612  55.764 -53.395  1.00  0.00     0.162 HD
BRANCH   3   6
HETATM    6  C   UNL     1     -41.337  55.607 -50.843  1.00  0.00     0.235 C 
BRANCH   6   7
HETATM    7  N   UNL     1     -42.441  56.522 -51.070  1.00  0.00    -0.299 N 
HETATM    8  C   UNL     1     -43.712  56.200 -50.635  1.00  0.00     0.214 A 
HETATM    9  N   UNL     1     -44.758  56.951 -50.754  1.00  0.00    -0.235 NA
HETATM   10  C   UNL     1     -44.528  58.139 -51.367  1.00  0.00     0.115 A 
HETATM   11  C   UNL     1     -43.335  58.577 -51.896  1.00  0.00     0.075 A 
HETATM   12  S   UNL     1     -45.762  59.291 -51.555  1.00  0.00    -0.074 SA
HETATM   13  C   UNL     1     -43.431  59.889 -52.486  1.00  0.00    -0.031 A 
HETATM   14  C   UNL     1     -42.186  57.693 -51.780  1.00  0.00     0.262 A 
HETATM   15  C   UNL     1     -42.293  60.600 -53.146  1.00  0.00     0.050 C 
HETATM   16  C   UNL     1     -44.713  60.402 -52.328  1.00  0.00    -0.012 A 
HETATM   17  C   UNL     1     -45.246  61.735 -52.743  1.00  0.00     0.057 C 
HETATM   18  O   UNL     1     -41.085  57.953 -52.263  1.00  0.00    -0.267 OA
ENDBRANCH   6   7
ENDBRANCH   3   6
ENDBRANCH   1   2
BRANCH   1  19
HETATM   19  C   UNL     1     -42.595  53.989 -55.203  1.00  0.00     0.029 C 
BRANCH  19  20
HETATM   20  C   UNL     1     -43.776  54.708 -54.557  1.00  0.00     0.104 C 
BRANCH  20  21
HETATM   21  C   UNL     1     -43.805  56.195 -54.847  1.00  0.00     0.217 C 
HETATM   22  N   UNL     1     -45.051  56.776 -54.840  1.00  0.00    -0.361 N 
HETATM   23  H   UNL     1     -45.862  56.164 -54.773  1.00  0.00     0.162 HD
HETATM   24  O   UNL     1     -42.792  56.845 -55.103  1.00  0.00    -0.274 OA
BRANCH  22  25
HETATM   25  C   UNL     1     -45.278  58.131 -55.295  1.00  0.00     0.124 C 
BRANCH  25  26
HETATM   26  C   UNL     1     -45.939  58.227 -56.670  1.00  0.00     0.047 C 
BRANCH  26  27
HETATM   27  C   UNL     1     -45.257  59.108 -57.721  1.00  0.00     0.236 C 
BRANCH  27  28
HETATM   28  N   UNL     1     -44.369  58.356 -58.688  1.00  0.00    -0.070 N 
HETATM   29  H   UNL     1     -44.476  58.862 -59.594  1.00  0.00     0.279 HD
HETATM   30  C   UNL     1     -42.922  58.295 -58.286  1.00  0.00     0.239 C 
HETATM   31  C   UNL     1     -42.071  57.622 -59.366  1.00  0.00     0.008 C 
HETATM   32  C   UNL     1     -41.888  58.519 -60.594  1.00  0.00     0.011 C 
HETATM   33  C   UNL     1     -42.642  56.249 -59.742  1.00  0.00     0.011 C 
HETATM   34  C   UNL     1     -44.132  56.312 -60.095  1.00  0.00     0.008 C 
HETATM   35  C   UNL     1     -44.674  54.909 -60.372  1.00  0.00     0.011 C 
HETATM   36  C   UNL     1     -44.931  56.979 -58.973  1.00  0.00     0.239 C 
ENDBRANCH  27  28
ENDBRANCH  26  27
ENDBRANCH  25  26
ENDBRANCH  22  25
ENDBRANCH  20  21
ENDBRANCH  19  20
ENDBRANCH   1  19
TORSDOF 10
ENDMDL
