MODEL 1
REMARK VINA RESULT:      -7.7      0.000      0.000
REMARK  8 active torsions:
REMARK  status: ('A' for Active; 'I' for Inactive)
REMARK    1  A    between atoms: C_1  and  C_15 
REMARK    2  A    between atoms: C_2  and  C_11 
REMARK    3  A    between atoms: C_2  and  N_12 
REMARK    4  A    between atoms: C_5  and  C_6 
REMARK    5  A    between atoms: C_6  and  O_7 
REMARK       I    between atoms: N_10  and  C_11 
REMARK    6  A    between atoms: C_16  and  O_17 
REMARK    7  A    between atoms: C_20  and  O_22 
REMARK    8  A    between atoms: C_25  and  O_26 
ROOT
HETATM    1  C           1     -42.984  57.087 -53.312  0.00  0.00     0.231 C 
HETATM    2  N           1     -42.190  57.202 -54.602  0.00  0.00    -0.054 N 
HETATM    3  C           1     -44.359  57.785 -53.454  0.00  0.00     0.055 C 
HETATM    4  C           1     -44.409  59.137 -54.180  0.00  0.00     0.065 C 
HETATM    5  C           1     -43.508  59.108 -55.421  0.00  0.00     0.066 C 
HETATM    6  C           1     -42.087  58.596 -55.186  0.00  0.00     0.239 C 
HETATM    7  C           1     -45.191  57.756 -52.150  0.00  0.00     0.010 C 
HETATM    8  C           1     -45.659  59.132 -51.650  0.00  0.00     0.001 C 
HETATM    9  C           1     -44.543  60.166 -51.815  0.00  0.00     0.003 C 
HETATM   10  C           1     -44.150  60.357 -53.288  0.00  0.00     0.038 C 
HETATM   11  H           1     -42.735  56.649 -55.305  0.00  0.00     0.281 HD
ENDROOT
BRANCH   2  12
HETATM   12  C           1     -40.836  56.529 -54.503  0.00  0.00     0.338 C 
BRANCH  12  13
HETATM   13  C           1     -40.966  55.019 -54.635  0.00  0.00     0.248 C 
HETATM   14  N           1     -40.411  54.332 -53.596  0.00  0.00    -0.319 N 
HETATM   15  C           1     -40.281  53.019 -53.325  0.00  0.00     0.094 A 
HETATM   16  H           1     -40.055  54.891 -52.839  0.00  0.00     0.169 HD
HETATM   17  C           1     -40.013  52.492 -52.111  0.00  0.00     0.080 A 
HETATM   18  S           1     -40.181  52.014 -54.381  0.00  0.00    -0.076 SA
HETATM   19  C           1     -39.822  51.167 -52.244  0.00  0.00    -0.030 A 
HETATM   20  C           1     -39.528  50.169 -51.153  0.00  0.00     0.050 C 
HETATM   21  C           1     -39.927  50.839 -53.543  0.00  0.00    -0.012 A 
HETATM   22  C           1     -39.777  49.451 -54.113  0.00  0.00     0.057 C 
HETATM   23  O           1     -41.536  54.519 -55.571  0.00  0.00    -0.271 OA
BRANCH  17  24
HETATM   24  C           1     -39.956  53.176 -50.925  0.00  0.00     0.296 C 
HETATM   25  O           1     -39.114  54.043 -50.795  0.00  0.00    -0.259 OA
BRANCH  24  26
HETATM   26  O           1     -40.818  52.916 -49.895  0.00  0.00    -0.322 OA
HETATM   27  C           1     -40.519  53.419 -48.614  0.00  0.00     0.213 C 
ENDBRANCH  24  26
ENDBRANCH  17  24
ENDBRANCH  12  13
ENDBRANCH   2  12
BRANCH   1  28
HETATM   28  C           1     -42.149  57.308 -52.042  0.00  0.00     0.009 A 
HETATM   29  C           1     -42.025  56.320 -51.121  0.00  0.00     0.076 A 
HETATM   30  C           1     -41.318  56.603 -50.009  0.00  0.00     0.040 A 
HETATM   31  C           1     -40.708  57.780 -49.826  0.00  0.00     0.039 A 
HETATM   32  C           1     -40.773  58.761 -50.741  0.00  0.00     0.069 A 
HETATM   33  C           1     -41.525  58.479 -51.822  0.00  0.00     0.048 A 
BRANCH  29  34
HETATM   34  O           1     -42.672  55.122 -51.309  0.00  0.00    -0.355 OA
HETATM   35  C           1     -43.739  54.770 -50.460  0.00  0.00     0.210 C 
ENDBRANCH  29  34
BRANCH  32  36
HETATM   36  O           1     -40.140  59.953 -50.487  0.00  0.00    -0.356 OA
HETATM   37  C           1     -38.769  59.940 -50.162  0.00  0.00     0.210 C 
ENDBRANCH  32  36
ENDBRANCH   1  28
BRANCH   4  38
HETATM   38  O           1     -45.715  59.279 -54.703  0.00  0.00    -0.389 OA
HETATM   39  H           1     -45.797  60.049 -55.264  0.00  0.00     0.210 HD
ENDBRANCH   4  38
TORSDOF 8
ENDMDL
MODEL 2
REMARK VINA RESULT:      -7.5      3.190      6.017
REMARK  8 active torsions:
REMARK  status: ('A' for Active; 'I' for Inactive)
REMARK    1  A    between atoms: C_1  and  C_15 
REMARK    2  A    between atoms: C_2  and  C_11 
REMARK    3  A    between atoms: C_2  and  N_12 
REMARK    4  A    between atoms: C_5  and  C_6 
REMARK    5  A    between atoms: C_6  and  O_7 
REMARK       I    between atoms: N_10  and  C_11 
REMARK    6  A    between atoms: C_16  and  O_17 
REMARK    7  A    between atoms: C_20  and  O_22 
REMARK    8  A    between atoms: C_25  and  O_26 
ROOT
HETATM    1  C           1     -43.114  57.958 -57.331  0.00  0.00     0.231 C 
HETATM    2  N           1     -43.095  57.907 -55.813  0.00  0.00    -0.054 N 
HETATM    3  C           1     -42.183  59.081 -57.852  0.00  0.00     0.055 C 
HETATM    4  C           1     -42.197  60.427 -57.114  0.00  0.00     0.065 C 
HETATM    5  C           1     -42.240  60.202 -55.597  0.00  0.00     0.066 C 
HETATM    6  C           1     -43.317  59.230 -55.111  0.00  0.00     0.239 C 
HETATM    7  C           1     -42.208  59.223 -59.392  0.00  0.00     0.010 C 
HETATM    8  C           1     -42.547  60.631 -59.906  0.00  0.00     0.001 C 
HETATM    9  C           1     -43.670  61.247 -59.069  0.00  0.00     0.003 C 
HETATM   10  C           1     -43.264  61.416 -57.597  0.00  0.00     0.038 C 
HETATM   11  H           1     -42.117  57.624 -55.565  0.00  0.00     0.281 HD
ENDROOT
BRANCH   2  12
HETATM   12  C           1     -43.994  56.817 -55.265  0.00  0.00     0.338 C 
BRANCH  12  13
HETATM   13  C           1     -43.252  55.493 -55.174  0.00  0.00     0.248 C 
HETATM   14  N           1     -42.661  55.282 -53.963  0.00  0.00    -0.319 N 
HETATM   15  C           1     -41.905  54.282 -53.469  0.00  0.00     0.094 A 
HETATM   16  H           1     -42.845  55.974 -53.257  0.00  0.00     0.169 HD
HETATM   17  C           1     -41.672  54.049 -52.159  0.00  0.00     0.080 A 
HETATM   18  S           1     -41.044  53.466 -54.321  0.00  0.00    -0.076 SA
HETATM   19  C           1     -40.770  53.058 -52.047  0.00  0.00    -0.030 A 
HETATM   20  C           1     -40.235  52.445 -50.778  0.00  0.00     0.050 C 
HETATM   21  C           1     -40.388  52.674 -53.277  0.00  0.00    -0.012 A 
HETATM   22  C           1     -39.387  51.589 -53.587  0.00  0.00     0.057 C 
HETATM   23  O           1     -43.234  54.720 -56.099  0.00  0.00    -0.271 OA
BRANCH  17  24
HETATM   24  C           1     -42.262  54.695 -51.104  0.00  0.00     0.296 C 
HETATM   25  O           1     -43.436  54.480 -50.876  0.00  0.00    -0.259 OA
BRANCH  24  26
HETATM   26  O           1     -41.569  55.563 -50.305  0.00  0.00    -0.322 OA
HETATM   27  C           1     -41.356  56.879 -50.754  0.00  0.00     0.213 C 
ENDBRANCH  24  26
ENDBRANCH  17  24
ENDBRANCH  12  13
ENDBRANCH   2  12
BRANCH   1  28
HETATM   28  C           1     -44.511  57.786 -57.945  0.00  0.00     0.009 A 
HETATM   29  C           1     -44.752  56.795 -58.840  0.00  0.00     0.076 A 
HETATM   30  C           1     -45.987  56.736 -59.373  0.00  0.00     0.040 A 
HETATM   31  C           1     -46.968  57.572 -59.008  0.00  0.00     0.039 A 
HETATM   32  C           1     -46.773  58.532 -58.090  0.00  0.00     0.069 A 
HETATM   33  C           1     -45.519  58.609 -57.605  0.00  0.00     0.048 A 
BRANCH  29  34
HETATM   34  O           1     -43.733  55.955 -59.222  0.00  0.00    -0.355 OA
HETATM   35  C           1     -44.038  54.657 -59.675  0.00  0.00     0.210 C 
ENDBRANCH  29  34
BRANCH  32  36
HETATM   36  O           1     -47.814  59.371 -57.771  0.00  0.00    -0.356 OA
HETATM   37  C           1     -47.586  60.761 -57.749  0.00  0.00     0.210 C 
ENDBRANCH  32  36
ENDBRANCH   1  28
BRANCH   4  38
HETATM   38  O           1     -40.940  61.035 -57.338  0.00  0.00    -0.389 OA
HETATM   39  H           1     -40.833  61.318 -58.245  0.00  0.00     0.210 HD
ENDBRANCH   4  38
TORSDOF 8
ENDMDL
MODEL 3
REMARK VINA RESULT:      -7.3      3.142      6.022
REMARK  8 active torsions:
REMARK  status: ('A' for Active; 'I' for Inactive)
REMARK    1  A    between atoms: C_1  and  C_15 
REMARK    2  A    between atoms: C_2  and  C_11 
REMARK    3  A    between atoms: C_2  and  N_12 
REMARK    4  A    between atoms: C_5  and  C_6 
REMARK    5  A    between atoms: C_6  and  O_7 
REMARK       I    between atoms: N_10  and  C_11 
REMARK    6  A    between atoms: C_16  and  O_17 
REMARK    7  A    between atoms: C_20  and  O_22 
REMARK    8  A    between atoms: C_25  and  O_26 
ROOT
HETATM    1  C           1     -43.027  58.707 -56.452  0.00  0.00     0.231 C 
HETATM    2  N           1     -42.863  57.910 -55.169  0.00  0.00    -0.054 N 
HETATM    3  C           1     -44.244  59.660 -56.351  0.00  0.00     0.055 C 
HETATM    4  C           1     -45.527  59.123 -55.701  0.00  0.00     0.065 C 
HETATM    5  C           1     -45.185  58.291 -54.458  0.00  0.00     0.066 C 
HETATM    6  C           1     -44.112  57.220 -54.663  0.00  0.00     0.239 C 
HETATM    7  C           1     -44.500  60.455 -57.653  0.00  0.00     0.010 C 
HETATM    8  C           1     -45.918  60.314 -58.229  0.00  0.00     0.001 C 
HETATM    9  C           1     -46.394  58.864 -58.119  0.00  0.00     0.003 C 
HETATM   10  C           1     -46.478  58.395 -56.658  0.00  0.00     0.038 C 
HETATM   11  H           1     -42.626  58.622 -54.437  0.00  0.00     0.281 HD
ENDROOT
BRANCH   2  12
HETATM   12  C           1     -41.679  56.966 -55.228  0.00  0.00     0.338 C 
BRANCH  12  13
HETATM   13  C           1     -41.179  56.630 -53.831  0.00  0.00     0.248 C 
HETATM   14  N           1     -41.198  55.296 -53.552  0.00  0.00    -0.319 N 
HETATM   15  C           1     -40.875  54.578 -52.459  0.00  0.00     0.094 A 
HETATM   16  H           1     -41.460  54.691 -54.313  0.00  0.00     0.169 HD
HETATM   17  C           1     -40.625  53.251 -52.438  0.00  0.00     0.080 A 
HETATM   18  S           1     -40.993  55.124 -51.109  0.00  0.00    -0.076 SA
HETATM   19  C           1     -40.471  52.858 -51.160  0.00  0.00    -0.030 A 
HETATM   20  C           1     -40.149  51.473 -50.661  0.00  0.00     0.050 C 
HETATM   21  C           1     -40.658  53.914 -50.352  0.00  0.00    -0.012 A 
HETATM   22  C           1     -40.575  53.895 -48.847  0.00  0.00     0.057 C 
HETATM   23  O           1     -40.789  57.489 -53.082  0.00  0.00    -0.271 OA
BRANCH  17  24
HETATM   24  C           1     -40.524  52.428 -53.528  0.00  0.00     0.296 C 
HETATM   25  O           1     -41.444  52.402 -54.323  0.00  0.00    -0.259 OA
BRANCH  24  26
HETATM   26  O           1     -39.423  51.646 -53.749  0.00  0.00    -0.322 OA
HETATM   27  C           1     -39.608  50.306 -54.140  0.00  0.00     0.213 C 
ENDBRANCH  24  26
ENDBRANCH  17  24
ENDBRANCH  12  13
ENDBRANCH   2  12
BRANCH   1  28
HETATM   28  C           1     -42.811  57.884 -57.730  0.00  0.00     0.009 A 
HETATM   29  C           1     -41.962  58.320 -58.694  0.00  0.00     0.076 A 
HETATM   30  C           1     -41.862  57.571 -59.809  0.00  0.00     0.040 A 
HETATM   31  C           1     -42.517  56.413 -59.958  0.00  0.00     0.039 A 
HETATM   32  C           1     -43.329  55.932 -59.002  0.00  0.00     0.069 A 
HETATM   33  C           1     -43.457  56.718 -57.917  0.00  0.00     0.048 A 
BRANCH  29  34
HETATM   34  O           1     -41.309  59.520 -58.539  0.00  0.00    -0.355 OA
HETATM   35  C           1     -41.544  60.560 -59.459  0.00  0.00     0.210 C 
ENDBRANCH  29  34
BRANCH  32  36
HETATM   36  O           1     -43.989  54.747 -59.222  0.00  0.00    -0.356 OA
HETATM   37  C           1     -44.893  54.661 -60.299  0.00  0.00     0.210 C 
ENDBRANCH  32  36
ENDBRANCH   1  28
BRANCH   4  38
HETATM   38  O           1     -46.230  60.238 -55.189  0.00  0.00    -0.389 OA
HETATM   39  H           1     -47.173  60.081 -55.150  0.00  0.00     0.210 HD
ENDBRANCH   4  38
TORSDOF 8
ENDMDL
MODEL 4
REMARK VINA RESULT:      -6.9      3.273      7.121
REMARK  8 active torsions:
REMARK  status: ('A' for Active; 'I' for Inactive)
REMARK    1  A    between atoms: C_1  and  C_15 
REMARK    2  A    between atoms: C_2  and  C_11 
REMARK    3  A    between atoms: C_2  and  N_12 
REMARK    4  A    between atoms: C_5  and  C_6 
REMARK    5  A    between atoms: C_6  and  O_7 
REMARK       I    between atoms: N_10  and  C_11 
REMARK    6  A    between atoms: C_16  and  O_17 
REMARK    7  A    between atoms: C_20  and  O_22 
REMARK    8  A    between atoms: C_25  and  O_26 
ROOT
HETATM    1  C           1     -41.350  57.033 -52.892  0.00  0.00     0.231 C 
HETATM    2  N           1     -41.778  56.910 -54.344  0.00  0.00    -0.054 N 
HETATM    3  C           1     -41.174  55.633 -52.254  0.00  0.00     0.055 C 
HETATM    4  C           1     -42.221  54.557 -52.579  0.00  0.00     0.065 C 
HETATM    5  C           1     -42.590  54.607 -54.067  0.00  0.00     0.066 C 
HETATM    6  C           1     -42.953  55.992 -54.605  0.00  0.00     0.239 C 
HETATM    7  C           1     -40.799  55.692 -50.754  0.00  0.00     0.010 C 
HETATM    8  C           1     -41.733  54.905 -49.822  0.00  0.00     0.001 C 
HETATM    9  C           1     -43.191  55.093 -50.247  0.00  0.00     0.003 C 
HETATM   10  C           1     -43.451  54.557 -51.664  0.00  0.00     0.038 C 
HETATM   11  H           1     -40.964  56.461 -54.828  0.00  0.00     0.281 HD
ENDROOT
BRANCH   2  12
HETATM   12  C           1     -41.958  58.262 -55.005  0.00  0.00     0.338 C 
BRANCH  12  13
HETATM   13  C           1     -43.352  58.398 -55.597  0.00  0.00     0.248 C 
HETATM   14  N           1     -43.465  57.871 -56.849  0.00  0.00    -0.319 N 
HETATM   15  C           1     -44.483  57.796 -57.730  0.00  0.00     0.094 A 
HETATM   16  H           1     -42.653  57.392 -57.200  0.00  0.00     0.169 HD
HETATM   17  C           1     -44.547  56.957 -58.785  0.00  0.00     0.080 A 
HETATM   18  S           1     -45.543  58.801 -57.777  0.00  0.00    -0.076 SA
HETATM   19  C           1     -45.637  57.257 -59.514  0.00  0.00    -0.030 A 
HETATM   20  C           1     -46.124  56.563 -60.761  0.00  0.00     0.050 C 
HETATM   21  C           1     -46.259  58.310 -58.958  0.00  0.00    -0.012 A 
HETATM   22  C           1     -47.520  58.958 -59.472  0.00  0.00     0.057 C 
HETATM   23  O           1     -44.250  58.908 -54.976  0.00  0.00    -0.271 OA
BRANCH  17  24
HETATM   24  C           1     -43.664  55.949 -59.073  0.00  0.00     0.296 C 
HETATM   25  O           1     -43.691  54.942 -58.393  0.00  0.00    -0.259 OA
BRANCH  24  26
HETATM   26  O           1     -42.765  56.043 -60.101  0.00  0.00    -0.322 OA
HETATM   27  C           1     -41.944  57.183 -60.184  0.00  0.00     0.213 C 
ENDBRANCH  24  26
ENDBRANCH  17  24
ENDBRANCH  12  13
ENDBRANCH   2  12
BRANCH   1  28
HETATM   28  C           1     -42.087  58.134 -52.114  0.00  0.00     0.009 A 
HETATM   29  C           1     -41.406  59.195 -51.613  0.00  0.00     0.076 A 
HETATM   30  C           1     -42.111  60.095 -50.901  0.00  0.00     0.040 A 
HETATM   31  C           1     -43.435  59.998 -50.729  0.00  0.00     0.039 A 
HETATM   32  C           1     -44.143  58.983 -51.252  0.00  0.00     0.069 A 
HETATM   33  C           1     -43.416  58.067 -51.918  0.00  0.00     0.048 A 
BRANCH  29  34
HETATM   34  O           1     -40.044  59.275 -51.778  0.00  0.00    -0.355 OA
HETATM   35  C           1     -39.221  59.480 -50.655  0.00  0.00     0.210 C 
ENDBRANCH  29  34
BRANCH  32  36
HETATM   36  O           1     -45.498  58.929 -51.025  0.00  0.00    -0.356 OA
HETATM   37  C           1     -46.301  60.008 -51.444  0.00  0.00     0.210 C 
ENDBRANCH  32  36
ENDBRANCH   1  28
BRANCH   4  38
HETATM   38  O           1     -41.589  53.302 -52.421  0.00  0.00    -0.389 OA
HETATM   39  H           1     -42.189  52.574 -52.578  0.00  0.00     0.210 HD
ENDBRANCH   4  38
TORSDOF 8
ENDMDL
MODEL 5
REMARK VINA RESULT:      -6.9      3.180      5.536
REMARK  8 active torsions:
REMARK  status: ('A' for Active; 'I' for Inactive)
REMARK    1  A    between atoms: C_1  and  C_15 
REMARK    2  A    between atoms: C_2  and  C_11 
REMARK    3  A    between atoms: C_2  and  N_12 
REMARK    4  A    between atoms: C_5  and  C_6 
REMARK    5  A    between atoms: C_6  and  O_7 
REMARK       I    between atoms: N_10  and  C_11 
REMARK    6  A    between atoms: C_16  and  O_17 
REMARK    7  A    between atoms: C_20  and  O_22 
REMARK    8  A    between atoms: C_25  and  O_26 
ROOT
HETATM    1  C           1     -44.396  57.691 -56.909  0.00  0.00     0.231 C 
HETATM    2  N           1     -43.456  56.500 -56.982  0.00  0.00    -0.054 N 
HETATM    3  C           1     -45.624  57.475 -57.827  0.00  0.00     0.055 C 
HETATM    4  C           1     -45.387  56.864 -59.215  0.00  0.00     0.065 C 
HETATM    5  C           1     -44.370  55.719 -59.126  0.00  0.00     0.066 C 
HETATM    6  C           1     -43.078  56.049 -58.377  0.00  0.00     0.239 C 
HETATM    7  C           1     -46.590  58.684 -57.843  0.00  0.00     0.010 C 
HETATM    8  C           1     -46.894  59.248 -59.239  0.00  0.00     0.001 C 
HETATM    9  C           1     -45.622  59.282 -60.089  0.00  0.00     0.003 C 
HETATM   10  C           1     -45.045  57.876 -60.314  0.00  0.00     0.038 C 
HETATM   11  H           1     -43.998  55.703 -56.572  0.00  0.00     0.281 HD
ENDROOT
BRANCH   2  12
HETATM   12  C           1     -42.240  56.675 -56.094  0.00  0.00     0.338 C 
BRANCH  12  13
HETATM   13  C           1     -42.066  55.483 -55.166  0.00  0.00     0.248 C 
HETATM   14  N           1     -41.672  55.826 -53.907  0.00  0.00    -0.319 N 
HETATM   15  C           1     -41.384  55.109 -52.803  0.00  0.00     0.094 A 
HETATM   16  H           1     -41.617  56.813 -53.716  0.00  0.00     0.169 HD
HETATM   17  C           1     -41.334  55.594 -51.544  0.00  0.00     0.080 A 
HETATM   18  S           1     -40.852  53.751 -52.878  0.00  0.00    -0.076 SA
HETATM   19  C           1     -40.886  54.626 -50.723  0.00  0.00    -0.030 A 
HETATM   20  C           1     -40.700  54.707 -49.229  0.00  0.00     0.050 C 
HETATM   21  C           1     -40.609  53.531 -51.449  0.00  0.00    -0.012 A 
HETATM   22  C           1     -40.082  52.227 -50.905  0.00  0.00     0.057 C 
HETATM   23  O           1     -42.290  54.360 -55.540  0.00  0.00    -0.271 OA
BRANCH  17  24
HETATM   24  C           1     -41.693  56.855 -51.146  0.00  0.00     0.296 C 
HETATM   25  O           1     -42.874  57.133 -51.095  0.00  0.00    -0.259 OA
BRANCH  24  26
HETATM   26  O           1     -40.764  57.800 -50.803  0.00  0.00    -0.322 OA
HETATM   27  C           1     -40.395  58.769 -51.755  0.00  0.00     0.213 C 
ENDBRANCH  24  26
ENDBRANCH  17  24
ENDBRANCH  12  13
ENDBRANCH   2  12
BRANCH   1  28
HETATM   28  C           1     -43.682  59.052 -56.906  0.00  0.00     0.009 A 
HETATM   29  C           1     -43.852  59.915 -55.874  0.00  0.00     0.076 A 
HETATM   30  C           1     -43.234  61.109 -55.964  0.00  0.00     0.040 A 
HETATM   31  C           1     -42.436  61.429 -56.989  0.00  0.00     0.039 A 
HETATM   32  C           1     -42.211  60.577 -58.003  0.00  0.00     0.069 A 
HETATM   33  C           1     -42.876  59.409 -57.922  0.00  0.00     0.048 A 
BRANCH  29  34
HETATM   34  O           1     -44.689  59.585 -54.835  0.00  0.00    -0.355 OA
HETATM   35  C           1     -44.145  59.317 -53.565  0.00  0.00     0.210 C 
ENDBRANCH  29  34
BRANCH  32  36
HETATM   36  O           1     -41.395  60.971 -59.037  0.00  0.00    -0.356 OA
HETATM   37  C           1     -40.652  62.160 -58.902  0.00  0.00     0.210 C 
ENDBRANCH  32  36
ENDBRANCH   1  28
BRANCH   4  38
HETATM   38  O           1     -46.590  56.229 -59.600  0.00  0.00    -0.389 OA
HETATM   39  H           1     -46.757  55.435 -59.092  0.00  0.00     0.210 HD
ENDBRANCH   4  38
TORSDOF 8
ENDMDL
MODEL 6
REMARK VINA RESULT:      -6.8      2.894      5.832
REMARK  8 active torsions:
REMARK  status: ('A' for Active; 'I' for Inactive)
REMARK    1  A    between atoms: C_1  and  C_15 
REMARK    2  A    between atoms: C_2  and  C_11 
REMARK    3  A    between atoms: C_2  and  N_12 
REMARK    4  A    between atoms: C_5  and  C_6 
REMARK    5  A    between atoms: C_6  and  O_7 
REMARK       I    between atoms: N_10  and  C_11 
REMARK    6  A    between atoms: C_16  and  O_17 
REMARK    7  A    between atoms: C_20  and  O_22 
REMARK    8  A    between atoms: C_25  and  O_26 
ROOT
HETATM    1  C           1     -42.837  58.464 -56.228  0.00  0.00     0.231 C 
HETATM    2  N           1     -42.780  57.224 -55.353  0.00  0.00    -0.054 N 
HETATM    3  C           1     -43.997  59.391 -55.786  0.00  0.00     0.055 C 
HETATM    4  C           1     -45.338  58.740 -55.418  0.00  0.00     0.065 C 
HETATM    5  C           1     -45.104  57.469 -54.591  0.00  0.00     0.066 C 
HETATM    6  C           1     -44.090  56.485 -55.177  0.00  0.00     0.239 C 
HETATM    7  C           1     -44.146  60.644 -56.681  0.00  0.00     0.010 C 
HETATM    8  C           1     -45.543  60.841 -57.290  0.00  0.00     0.001 C 
HETATM    9  C           1     -46.112  59.501 -57.761  0.00  0.00     0.003 C 
HETATM   10  C           1     -46.289  58.511 -56.599  0.00  0.00     0.038 C 
HETATM   11  H           1     -42.533  57.578 -54.398  0.00  0.00     0.281 HD
ENDROOT
BRANCH   2  12
HETATM   12  C           1     -41.655  56.291 -55.754  0.00  0.00     0.338 C 
BRANCH  12  13
HETATM   13  C           1     -41.604  55.074 -54.843  0.00  0.00     0.248 C 
HETATM   14  N           1     -41.313  55.377 -53.546  0.00  0.00    -0.319 N 
HETATM   15  C           1     -41.149  54.627 -52.439  0.00  0.00     0.094 A 
HETATM   16  H           1     -41.245  56.357 -53.327  0.00  0.00     0.169 HD
HETATM   17  C           1     -41.197  55.082 -51.169  0.00  0.00     0.080 A 
HETATM   18  S           1     -40.655  53.253 -52.499  0.00  0.00    -0.076 SA
HETATM   19  C           1     -40.855  54.083 -50.335  0.00  0.00    -0.030 A 
HETATM   20  C           1     -40.801  54.125 -48.829  0.00  0.00     0.050 C 
HETATM   21  C           1     -40.549  52.994 -51.060  0.00  0.00    -0.012 A 
HETATM   22  C           1     -40.115  51.662 -50.504  0.00  0.00     0.057 C 
HETATM   23  O           1     -41.829  53.968 -55.263  0.00  0.00    -0.271 OA
BRANCH  17  24
HETATM   24  C           1     -41.549  56.346 -50.774  0.00  0.00     0.296 C 
HETATM   25  O           1     -40.693  57.065 -50.298  0.00  0.00    -0.259 OA
BRANCH  24  26
HETATM   26  O           1     -42.827  56.818 -50.905  0.00  0.00    -0.322 OA
HETATM   27  C           1     -43.034  58.050 -51.554  0.00  0.00     0.213 C 
ENDBRANCH  24  26
ENDBRANCH  17  24
ENDBRANCH  12  13
ENDBRANCH   2  12
BRANCH   1  28
HETATM   28  C           1     -42.616  58.186 -57.722  0.00  0.00     0.009 A 
HETATM   29  C           1     -41.767  58.957 -58.446  0.00  0.00     0.076 A 
HETATM   30  C           1     -41.661  58.685 -59.761  0.00  0.00     0.040 A 
HETATM   31  C           1     -42.311  57.667 -60.339  0.00  0.00     0.039 A 
HETATM   32  C           1     -43.123  56.858 -59.639  0.00  0.00     0.069 A 
HETATM   33  C           1     -43.256  57.175 -58.337  0.00  0.00     0.048 A 
BRANCH  29  34
HETATM   34  O           1     -41.119  60.011 -57.848  0.00  0.00    -0.355 OA
HETATM   35  C           1     -41.093  61.263 -58.491  0.00  0.00     0.210 C 
ENDBRANCH  29  34
BRANCH  32  36
HETATM   36  O           1     -43.777  55.842 -60.293  0.00  0.00    -0.356 OA
HETATM   37  C           1     -44.256  54.748 -59.544  0.00  0.00     0.210 C 
ENDBRANCH  32  36
ENDBRANCH   1  28
BRANCH   4  38
HETATM   38  O           1     -45.994  59.619 -54.525  0.00  0.00    -0.389 OA
HETATM   39  H           1     -46.868  59.308 -54.291  0.00  0.00     0.210 HD
ENDBRANCH   4  38
TORSDOF 8
ENDMDL
MODEL 7
REMARK VINA RESULT:      -6.6      2.702      7.425
REMARK  8 active torsions:
REMARK  status: ('A' for Active; 'I' for Inactive)
REMARK    1  A    between atoms: C_1  and  C_15 
REMARK    2  A    between atoms: C_2  and  C_11 
REMARK    3  A    between atoms: C_2  and  N_12 
REMARK    4  A    between atoms: C_5  and  C_6 
REMARK    5  A    between atoms: C_6  and  O_7 
REMARK       I    between atoms: N_10  and  C_11 
REMARK    6  A    between atoms: C_16  and  O_17 
REMARK    7  A    between atoms: C_20  and  O_22 
REMARK    8  A    between atoms: C_25  and  O_26 
ROOT
HETATM    1  C           1     -42.287  56.119 -52.878  0.00  0.00     0.231 C 
HETATM    2  N           1     -43.792  56.025 -52.693  0.00  0.00    -0.054 N 
HETATM    3  C           1     -41.891  55.740 -54.326  0.00  0.00     0.055 C 
HETATM    4  C           1     -42.595  54.539 -54.974  0.00  0.00     0.065 C 
HETATM    5  C           1     -44.092  54.557 -54.641  0.00  0.00     0.066 C 
HETATM    6  C           1     -44.430  54.734 -53.160  0.00  0.00     0.239 C 
HETATM    7  C           1     -40.361  55.756 -54.560  0.00  0.00     0.010 C 
HETATM    8  C           1     -39.778  54.448 -55.116  0.00  0.00     0.001 C 
HETATM    9  C           1     -40.428  53.243 -54.433  0.00  0.00     0.003 C 
HETATM   10  C           1     -41.942  53.181 -54.694  0.00  0.00     0.038 C 
HETATM   11  H           1     -44.188  56.769 -53.316  0.00  0.00     0.281 HD
ENDROOT
BRANCH   2  12
HETATM   12  C           1     -44.220  56.391 -51.286  0.00  0.00     0.338 C 
BRANCH  12  13
HETATM   13  C           1     -44.778  57.805 -51.236  0.00  0.00     0.248 C 
HETATM   14  N           1     -43.940  58.739 -51.771  0.00  0.00    -0.319 N 
HETATM   15  C           1     -44.020  60.077 -51.908  0.00  0.00     0.094 A 
HETATM   16  H           1     -43.102  58.385 -52.200  0.00  0.00     0.169 HD
HETATM   17  C           1     -43.277  60.825 -52.751  0.00  0.00     0.080 A 
HETATM   18  S           1     -44.769  60.910 -50.970  0.00  0.00    -0.076 SA
HETATM   19  C           1     -43.531  62.126 -52.520  0.00  0.00    -0.030 A 
HETATM   20  C           1     -42.953  63.315 -53.243  0.00  0.00     0.050 C 
HETATM   21  C           1     -44.406  62.226 -51.505  0.00  0.00    -0.012 A 
HETATM   22  C           1     -44.947  63.513 -50.936  0.00  0.00     0.057 C 
HETATM   23  O           1     -45.869  58.033 -50.780  0.00  0.00    -0.271 OA
BRANCH  17  24
HETATM   24  C           1     -42.412  60.353 -53.704  0.00  0.00     0.296 C 
HETATM   25  O           1     -41.314  59.970 -53.353  0.00  0.00    -0.259 OA
BRANCH  24  26
HETATM   26  O           1     -42.752  60.297 -55.029  0.00  0.00    -0.322 OA
HETATM   27  C           1     -42.171  59.303 -55.838  0.00  0.00     0.213 C 
ENDBRANCH  24  26
ENDBRANCH  17  24
ENDBRANCH  12  13
ENDBRANCH   2  12
BRANCH   1  28
HETATM   28  C           1     -41.476  55.561 -51.699  0.00  0.00     0.009 A 
HETATM   29  C           1     -40.877  56.401 -50.818  0.00  0.00     0.076 A 
HETATM   30  C           1     -40.142  55.840 -49.838  0.00  0.00     0.040 A 
HETATM   31  C           1     -40.040  54.514 -49.686  0.00  0.00     0.039 A 
HETATM   32  C           1     -40.660  53.658 -50.514  0.00  0.00     0.069 A 
HETATM   33  C           1     -41.348  54.234 -51.517  0.00  0.00     0.048 A 
BRANCH  29  34
HETATM   34  O           1     -40.972  57.761 -50.995  0.00  0.00    -0.355 OA
HETATM   35  C           1     -40.692  58.621 -49.916  0.00  0.00     0.210 C 
ENDBRANCH  29  34
BRANCH  32  36
HETATM   36  O           1     -40.502  52.307 -50.316  0.00  0.00    -0.356 OA
HETATM   37  C           1     -39.755  51.565 -51.253  0.00  0.00     0.210 C 
ENDBRANCH  32  36
ENDBRANCH   1  28
BRANCH   4  38
HETATM   38  O           1     -42.549  54.738 -56.374  0.00  0.00    -0.389 OA
HETATM   39  H           1     -42.794  55.629 -56.619  0.00  0.00     0.210 HD
ENDBRANCH   4  38
TORSDOF 8
ENDMDL
MODEL 8
REMARK VINA RESULT:      -6.5      3.389      6.470
REMARK  8 active torsions:
REMARK  status: ('A' for Active; 'I' for Inactive)
REMARK    1  A    between atoms: C_1  and  C_15 
REMARK    2  A    between atoms: C_2  and  C_11 
REMARK    3  A    between atoms: C_2  and  N_12 
REMARK    4  A    between atoms: C_5  and  C_6 
REMARK    5  A    between atoms: C_6  and  O_7 
REMARK       I    between atoms: N_10  and  C_11 
REMARK    6  A    between atoms: C_16  and  O_17 
REMARK    7  A    between atoms: C_20  and  O_22 
REMARK    8  A    between atoms: C_25  and  O_26 
ROOT
HETATM    1  C           1     -44.252  58.899 -56.731  0.00  0.00     0.231 C 
HETATM    2  N           1     -42.796  58.510 -56.534  0.00  0.00    -0.054 N 
HETATM    3  C           1     -45.010  57.796 -57.511  0.00  0.00     0.055 C 
HETATM    4  C           1     -44.300  57.141 -58.705  0.00  0.00     0.065 C 
HETATM    5  C           1     -42.828  56.871 -58.366  0.00  0.00     0.066 C 
HETATM    6  C           1     -42.064  58.060 -57.780  0.00  0.00     0.239 C 
HETATM    7  C           1     -46.485  58.162 -57.799  0.00  0.00     0.010 C 
HETATM    8  C           1     -46.891  58.098 -59.279  0.00  0.00     0.001 C 
HETATM    9  C           1     -45.781  58.674 -60.160  0.00  0.00     0.003 C 
HETATM   10  C           1     -44.476  57.872 -60.040  0.00  0.00     0.038 C 
HETATM   11  H           1     -42.824  57.668 -55.911  0.00  0.00     0.281 HD
ENDROOT
BRANCH   2  12
HETATM   12  C           1     -42.020  59.566 -55.772  0.00  0.00     0.338 C 
BRANCH  12  13
HETATM   13  C           1     -41.636  59.067 -54.387  0.00  0.00     0.248 C 
HETATM   14  N           1     -41.661  57.709 -54.272  0.00  0.00    -0.319 N 
HETATM   15  C           1     -41.421  56.866 -53.249  0.00  0.00     0.094 A 
HETATM   16  H           1     -41.849  57.198 -55.119  0.00  0.00     0.169 HD
HETATM   17  C           1     -41.156  55.547 -53.364  0.00  0.00     0.080 A 
HETATM   18  S           1     -41.661  57.246 -51.858  0.00  0.00    -0.076 SA
HETATM   19  C           1     -41.106  55.004 -52.134  0.00  0.00    -0.030 A 
HETATM   20  C           1     -40.808  53.570 -51.777  0.00  0.00     0.050 C 
HETATM   21  C           1     -41.376  55.956 -51.225  0.00  0.00    -0.012 A 
HETATM   22  C           1     -41.421  55.756 -49.731  0.00  0.00     0.057 C 
HETATM   23  O           1     -41.323  59.832 -53.511  0.00  0.00    -0.271 OA
BRANCH  17  24
HETATM   24  C           1     -40.951  54.861 -54.532  0.00  0.00     0.296 C 
HETATM   25  O           1     -39.882  54.984 -55.098  0.00  0.00    -0.259 OA
BRANCH  24  26
HETATM   26  O           1     -41.907  54.044 -55.072  0.00  0.00    -0.322 OA
HETATM   27  C           1     -43.192  54.566 -55.310  0.00  0.00     0.213 C 
ENDBRANCH  24  26
ENDBRANCH  17  24
ENDBRANCH  12  13
ENDBRANCH   2  12
BRANCH   1  28
HETATM   28  C           1     -44.460  60.373 -57.108  0.00  0.00     0.009 A 
HETATM   29  C           1     -45.145  61.203 -56.282  0.00  0.00     0.076 A 
HETATM   30  C           1     -45.330  62.470 -56.700  0.00  0.00     0.040 A 
HETATM   31  C           1     -44.822  62.928 -57.851  0.00  0.00     0.039 A 
HETATM   32  C           1     -44.100  62.143 -58.667  0.00  0.00     0.069 A 
HETATM   33  C           1     -43.967  60.867 -58.258  0.00  0.00     0.048 A 
BRANCH  29  34
HETATM   34  O           1     -45.679  60.718 -55.112  0.00  0.00    -0.355 OA
HETATM   35  C           1     -45.103  61.086 -53.881  0.00  0.00     0.210 C 
ENDBRANCH  29  34
BRANCH  32  36
HETATM   36  O           1     -43.620  62.667 -59.844  0.00  0.00    -0.356 OA
HETATM   37  C           1     -43.228  64.020 -59.876  0.00  0.00     0.210 C 
ENDBRANCH  32  36
ENDBRANCH   1  28
BRANCH   4  38
HETATM   38  O           1     -44.860  55.852 -58.863  0.00  0.00    -0.389 OA
HETATM   39  H           1     -44.426  55.200 -58.315  0.00  0.00     0.210 HD
ENDBRANCH   4  38
TORSDOF 8
ENDMDL
MODEL 9
REMARK VINA RESULT:      -6.4      2.661      5.636
REMARK  8 active torsions:
REMARK  status: ('A' for Active; 'I' for Inactive)
REMARK    1  A    between atoms: C_1  and  C_15 
REMARK    2  A    between atoms: C_2  and  C_11 
REMARK    3  A    between atoms: C_2  and  N_12 
REMARK    4  A    between atoms: C_5  and  C_6 
REMARK    5  A    between atoms: C_6  and  O_7 
REMARK       I    between atoms: N_10  and  C_11 
REMARK    6  A    between atoms: C_16  and  O_17 
REMARK    7  A    between atoms: C_20  and  O_22 
REMARK    8  A    between atoms: C_25  and  O_26 
ROOT
HETATM    1  C           1     -42.920  58.380 -56.157  0.00  0.00     0.231 C 
HETATM    2  N           1     -43.126  57.231 -55.185  0.00  0.00    -0.054 N 
HETATM    3  C           1     -42.600  59.689 -55.393  0.00  0.00     0.055 C 
HETATM    4  C           1     -43.402  59.994 -54.119  0.00  0.00     0.065 C 
HETATM    5  C           1     -43.574  58.720 -53.282  0.00  0.00     0.066 C 
HETATM    6  C           1     -44.088  57.499 -54.047  0.00  0.00     0.239 C 
HETATM    7  C           1     -42.441  60.912 -56.327  0.00  0.00     0.010 C 
HETATM    8  C           1     -43.346  62.107 -55.988  0.00  0.00     0.001 C 
HETATM    9  C           1     -44.746  61.622 -55.605  0.00  0.00     0.003 C 
HETATM   10  C           1     -44.724  60.734 -54.351  0.00  0.00     0.038 C 
HETATM   11  H           1     -42.193  57.091 -54.730  0.00  0.00     0.281 HD
ENDROOT
BRANCH   2  12
HETATM   12  C           1     -43.441  55.929 -55.896  0.00  0.00     0.338 C 
BRANCH  12  13
HETATM   13  C           1     -42.882  54.741 -55.130  0.00  0.00     0.248 C 
HETATM   14  N           1     -42.190  55.092 -54.009  0.00  0.00    -0.319 N 
HETATM   15  C           1     -41.526  54.383 -53.076  0.00  0.00     0.094 A 
HETATM   16  H           1     -42.195  56.071 -53.777  0.00  0.00     0.169 HD
HETATM   17  C           1     -41.179  54.831 -51.850  0.00  0.00     0.080 A 
HETATM   18  S           1     -40.888  53.104 -53.381  0.00  0.00    -0.076 SA
HETATM   19  C           1     -40.414  53.902 -51.248  0.00  0.00    -0.030 A 
HETATM   20  C           1     -39.825  53.959 -49.861  0.00  0.00     0.050 C 
HETATM   21  C           1     -40.231  52.872 -52.091  0.00  0.00    -0.012 A 
HETATM   22  C           1     -39.431  51.628 -51.799  0.00  0.00     0.057 C 
HETATM   23  O           1     -43.075  53.610 -55.500  0.00  0.00    -0.271 OA
BRANCH  17  24
HETATM   24  C           1     -41.550  56.024 -51.289  0.00  0.00     0.296 C 
HETATM   25  O           1     -40.976  57.035 -51.643  0.00  0.00    -0.259 OA
BRANCH  24  26
HETATM   26  O           1     -42.544  56.109 -50.352  0.00  0.00    -0.322 OA
HETATM   27  C           1     -43.873  55.870 -50.747  0.00  0.00     0.213 C 
ENDBRANCH  24  26
ENDBRANCH  17  24
ENDBRANCH  12  13
ENDBRANCH   2  12
BRANCH   1  28
HETATM   28  C           1     -43.926  58.406 -57.317  0.00  0.00     0.009 A 
HETATM   29  C           1     -43.506  58.228 -58.595  0.00  0.00     0.076 A 
HETATM   30  C           1     -44.437  58.312 -59.565  0.00  0.00     0.040 A 
HETATM   31  C           1     -45.734  58.506 -59.300  0.00  0.00     0.039 A 
HETATM   32  C           1     -46.187  58.639 -58.043  0.00  0.00     0.069 A 
HETATM   33  C           1     -45.237  58.602 -57.090  0.00  0.00     0.048 A 
BRANCH  29  34
HETATM   34  O           1     -42.168  58.050 -58.858  0.00  0.00    -0.355 OA
HETATM   35  C           1     -41.756  57.727 -60.165  0.00  0.00     0.210 C 
ENDBRANCH  29  34
BRANCH  32  36
HETATM   36  O           1     -47.529  58.854 -57.836  0.00  0.00    -0.356 OA
HETATM   37  C           1     -48.125  60.008 -58.382  0.00  0.00     0.210 C 
ENDBRANCH  32  36
ENDBRANCH   1  28
BRANCH   4  38
HETATM   38  O           1     -42.596  60.832 -53.313  0.00  0.00    -0.389 OA
HETATM   39  H           1     -42.927  61.728 -53.284  0.00  0.00     0.210 HD
ENDBRANCH   4  38
TORSDOF 8
ENDMDL
MODEL 10
REMARK VINA RESULT:      -6.4      3.665      8.364
REMARK  8 active torsions:
REMARK  status: ('A' for Active; 'I' for Inactive)
REMARK    1  A    between atoms: C_1  and  C_15 
REMARK    2  A    between atoms: C_2  and  C_11 
REMARK    3  A    between atoms: C_2  and  N_12 
REMARK    4  A    between atoms: C_5  and  C_6 
REMARK    5  A    between atoms: C_6  and  O_7 
REMARK       I    between atoms: N_10  and  C_11 
REMARK    6  A    between atoms: C_16  and  O_17 
REMARK    7  A    between atoms: C_20  and  O_22 
REMARK    8  A    between atoms: C_25  and  O_26 
ROOT
HETATM    1  C           1     -44.330  56.794 -53.436  0.00  0.00     0.231 C 
HETATM    2  N           1     -44.901  57.319 -52.130  0.00  0.00    -0.054 N 
HETATM    3  C           1     -43.851  55.330 -53.273  0.00  0.00     0.055 C 
HETATM    4  C           1     -43.096  54.959 -51.988  0.00  0.00     0.065 C 
HETATM    5  C           1     -43.760  55.618 -50.772  0.00  0.00     0.066 C 
HETATM    6  C           1     -44.031  57.117 -50.907  0.00  0.00     0.239 C 
HETATM    7  C           1     -43.201  54.758 -54.555  0.00  0.00     0.010 C 
HETATM    8  C           1     -41.783  54.196 -54.366  0.00  0.00     0.001 C 
HETATM    9  C           1     -40.969  55.106 -53.444  0.00  0.00     0.003 C 
HETATM   10  C           1     -41.583  55.197 -52.038  0.00  0.00     0.038 C 
HETATM   11  H           1     -45.757  56.741 -51.957  0.00  0.00     0.281 HD
ENDROOT
BRANCH   2  12
HETATM   12  C           1     -45.383  58.751 -52.250  0.00  0.00     0.338 C 
BRANCH  12  13
HETATM   13  C           1     -45.744  59.322 -50.888  0.00  0.00     0.248 C 
HETATM   14  N           1     -45.108  60.493 -50.602  0.00  0.00    -0.319 N 
HETATM   15  C           1     -45.114  61.307 -49.528  0.00  0.00     0.094 A 
HETATM   16  H           1     -44.545  60.880 -51.340  0.00  0.00     0.169 HD
HETATM   17  C           1     -44.702  62.593 -49.517  0.00  0.00     0.080 A 
HETATM   18  S           1     -45.351  60.807 -48.176  0.00  0.00    -0.076 SA
HETATM   19  C           1     -44.725  63.046 -48.250  0.00  0.00    -0.030 A 
HETATM   20  C           1     -44.377  64.430 -47.766  0.00  0.00     0.050 C 
HETATM   21  C           1     -45.113  62.050 -47.437  0.00  0.00    -0.012 A 
HETATM   22  C           1     -45.265  62.146 -45.940  0.00  0.00     0.057 C 
HETATM   23  O           1     -46.540  58.772 -50.169  0.00  0.00    -0.271 OA
BRANCH  17  24
HETATM   24  C           1     -44.334  63.335 -50.608  0.00  0.00     0.296 C 
HETATM   25  O           1     -43.162  63.627 -50.743  0.00  0.00    -0.259 OA
BRANCH  24  26
HETATM   26  O           1     -45.242  63.750 -51.544  0.00  0.00    -0.322 OA
HETATM   27  C           1     -45.008  63.448 -52.899  0.00  0.00     0.213 C 
ENDBRANCH  24  26
ENDBRANCH  17  24
ENDBRANCH  12  13
ENDBRANCH   2  12
BRANCH   1  28
HETATM   28  C           1     -43.445  57.803 -54.182  0.00  0.00     0.009 A 
HETATM   29  C           1     -43.785  58.228 -55.425  0.00  0.00     0.076 A 
HETATM   30  C           1     -42.935  59.075 -56.037  0.00  0.00     0.040 A 
HETATM   31  C           1     -41.827  59.536 -55.444  0.00  0.00     0.039 A 
HETATM   32  C           1     -41.488  59.169 -54.197  0.00  0.00     0.069 A 
HETATM   33  C           1     -42.322  58.283 -53.619  0.00  0.00     0.048 A 
BRANCH  29  34
HETATM   34  O           1     -44.914  57.735 -56.033  0.00  0.00    -0.355 OA
HETATM   35  C           1     -45.324  58.268 -57.270  0.00  0.00     0.210 C 
ENDBRANCH  29  34
BRANCH  32  36
HETATM   36  O           1     -40.328  59.662 -53.649  0.00  0.00    -0.356 OA
HETATM   37  C           1     -39.720  58.954 -52.593  0.00  0.00     0.210 C 
ENDBRANCH  32  36
ENDBRANCH   1  28
BRANCH   4  38
HETATM   38  O           1     -43.288  53.574 -51.780  0.00  0.00    -0.389 OA
HETATM   39  H           1     -44.203  53.316 -51.892  0.00  0.00     0.210 HD
ENDBRANCH   4  38
TORSDOF 8
ENDMDL
