MODEL 1
REMARK VINA RESULT:      -7.7      0.000      0.000
REMARK  9 active torsions:
REMARK  status: ('A' for Active; 'I' for Inactive)
REMARK    1  A    between atoms: C_2  and  C_3 
REMARK    2  A    between atoms: C_3  and  O_4 
REMARK    3  A    between atoms: O_4  and  C_5 
REMARK    4  A    between atoms: C_8  and  C_9 
REMARK    5  A    between atoms: N_11  and  C_12 
REMARK    6  A    between atoms: C_19  and  C_20 
REMARK    7  A    between atoms: C_20  and  S_21 
REMARK    8  A    between atoms: S_21  and  C_22 
REMARK    9  A    between atoms: C_22  and  N_23 
ROOT
HETATM    1  C   UNL     1     -41.927  55.313 -54.579  1.00  0.00     0.096 C 
HETATM    2  N   UNL     1     -41.706  53.993 -54.627  1.00  0.00    -0.167 NA
HETATM    3  N   UNL     1     -40.967  53.689 -53.537  1.00  0.00    -0.244 N 
HETATM    4  C   UNL     1     -40.883  54.775 -52.695  1.00  0.00     0.129 C 
HETATM    5  C   UNL     1     -41.515  55.837 -53.314  1.00  0.00     0.001 C 
ENDROOT
BRANCH   1   6
HETATM    6  C   UNL     1     -42.651  55.974 -55.668  1.00  0.00    -0.005 A 
HETATM    7  C   UNL     1     -42.476  55.538 -56.990  1.00  0.00     0.016 A 
HETATM    8  C   UNL     1     -43.213  56.102 -58.039  1.00  0.00     0.037 A 
HETATM    9  C   UNL     1     -44.137  57.110 -57.779  1.00  0.00     0.068 A 
HETATM   10  C   UNL     1     -44.278  57.584 -56.473  1.00  0.00     0.037 A 
HETATM   11  C   UNL     1     -43.536  57.029 -55.424  1.00  0.00     0.016 A 
BRANCH   9  12
HETATM   12  O   UNL     1     -44.949  57.715 -58.695  1.00  0.00    -0.351 OA
BRANCH  12  13
HETATM   13  C   UNL     1     -44.867  57.260 -60.048  1.00  0.00     0.179 C 
BRANCH  13  14
HETATM   14  C   UNL     1     -45.751  56.014 -60.206  1.00  0.00     0.002 C 
HETATM   15  C   UNL     1     -45.090  54.982 -61.122  1.00  0.00     0.011 C 
HETATM   16  C   UNL     1     -47.125  56.403 -60.751  1.00  0.00     0.011 C 
ENDBRANCH  13  14
ENDBRANCH  12  13
ENDBRANCH   9  12
ENDBRANCH   1   6
BRANCH   5  17
HETATM   17  C   UNL     1     -41.717  57.193 -52.730  1.00  0.00     0.125 C 
BRANCH  17  18
HETATM   18  S   UNL     1     -42.365  57.150 -51.031  1.00  0.00    -0.090 SA
BRANCH  18  19
HETATM   19  C   UNL     1     -43.937  56.507 -51.265  1.00  0.00     0.131 C 
HETATM   20  N   UNL     1     -44.791  57.209 -51.965  1.00  0.00    -0.380 N 
HETATM   21  H   UNL     1     -44.485  58.097 -52.347  1.00  0.00     0.158 HD
HETATM   22  H   UNL     1     -45.724  56.887 -52.175  1.00  0.00     0.158 HD
BRANCH  19  23
HETATM   23  N   UNL     1     -44.234  55.325 -50.793  1.00  0.00    -0.380 N 
HETATM   24  H   UNL     1     -44.662  54.644 -51.413  1.00  0.00     0.158 HD
HETATM   25  H   UNL     1     -44.061  55.045 -49.838  1.00  0.00     0.158 HD
ENDBRANCH  19  23
ENDBRANCH  18  19
ENDBRANCH  17  18
ENDBRANCH   5  17
BRANCH   3  26
HETATM   26  C   UNL     1     -40.474  52.372 -53.330  1.00  0.00     0.058 A 
HETATM   27  C   UNL     1     -40.540  51.440 -54.378  1.00  0.00     0.031 A 
HETATM   28  C   UNL     1     -40.074  50.137 -54.193  1.00  0.00     0.002 A 
HETATM   29  C   UNL     1     -39.541  49.755 -52.965  1.00  0.00     0.000 A 
HETATM   30  C   UNL     1     -39.465  50.676 -51.921  1.00  0.00     0.002 A 
HETATM   31  C   UNL     1     -39.928  51.983 -52.098  1.00  0.00     0.031 A 
ENDBRANCH   3  26
TORSDOF 9
ENDMDL
MODEL 2
REMARK VINA RESULT:      -7.4      1.093      1.851
REMARK  9 active torsions:
REMARK  status: ('A' for Active; 'I' for Inactive)
REMARK    1  A    between atoms: C_2  and  C_3 
REMARK    2  A    between atoms: C_3  and  O_4 
REMARK    3  A    between atoms: O_4  and  C_5 
REMARK    4  A    between atoms: C_8  and  C_9 
REMARK    5  A    between atoms: N_11  and  C_12 
REMARK    6  A    between atoms: C_19  and  C_20 
REMARK    7  A    between atoms: C_20  and  S_21 
REMARK    8  A    between atoms: S_21  and  C_22 
REMARK    9  A    between atoms: C_22  and  N_23 
ROOT
HETATM    1  C   UNL     1     -41.608  55.201 -54.451  1.00  0.00     0.096 C 
HETATM    2  N   UNL     1     -41.447  53.876 -54.547  1.00  0.00    -0.167 NA
HETATM    3  N   UNL     1     -40.766  53.492 -53.444  1.00  0.00    -0.244 N 
HETATM    4  C   UNL     1     -40.663  54.538 -52.555  1.00  0.00     0.129 C 
HETATM    5  C   UNL     1     -41.221  55.653 -53.151  1.00  0.00     0.001 C 
ENDROOT
BRANCH   1   6
HETATM    6  C   UNL     1     -42.258  55.940 -55.537  1.00  0.00    -0.005 A 
HETATM    7  C   UNL     1     -42.714  55.256 -56.674  1.00  0.00     0.016 A 
HETATM    8  C   UNL     1     -43.405  55.927 -57.690  1.00  0.00     0.037 A 
HETATM    9  C   UNL     1     -43.651  57.293 -57.582  1.00  0.00     0.068 A 
HETATM   10  C   UNL     1     -43.155  57.989 -56.478  1.00  0.00     0.037 A 
HETATM   11  C   UNL     1     -42.455  57.323 -55.466  1.00  0.00     0.016 A 
BRANCH   9  12
HETATM   12  O   UNL     1     -44.346  58.059 -58.473  1.00  0.00    -0.351 OA
BRANCH  12  13
HETATM   13  C   UNL     1     -44.247  57.712 -59.856  1.00  0.00     0.179 C 
BRANCH  13  14
HETATM   14  C   UNL     1     -43.261  58.672 -60.539  1.00  0.00     0.002 C 
HETATM   15  C   UNL     1     -41.826  58.148 -60.440  1.00  0.00     0.011 C 
HETATM   16  C   UNL     1     -43.360  60.065 -59.919  1.00  0.00     0.011 C 
ENDBRANCH  13  14
ENDBRANCH  12  13
ENDBRANCH   9  12
ENDBRANCH   1   6
BRANCH   5  17
HETATM   17  C   UNL     1     -41.381  56.993 -52.518  1.00  0.00     0.125 C 
BRANCH  17  18
HETATM   18  S   UNL     1     -42.274  56.932 -50.934  1.00  0.00    -0.090 SA
BRANCH  18  19
HETATM   19  C   UNL     1     -43.790  56.285 -51.405  1.00  0.00     0.131 C 
HETATM   20  N   UNL     1     -44.509  56.962 -52.263  1.00  0.00    -0.380 N 
HETATM   21  H   UNL     1     -44.135  57.834 -52.622  1.00  0.00     0.158 HD
HETATM   22  H   UNL     1     -45.396  56.635 -52.615  1.00  0.00     0.158 HD
BRANCH  19  23
HETATM   23  N   UNL     1     -44.173  55.123 -50.945  1.00  0.00    -0.380 N 
HETATM   24  H   UNL     1     -44.649  54.481 -51.573  1.00  0.00     0.158 HD
HETATM   25  H   UNL     1     -44.023  54.821 -49.993  1.00  0.00     0.158 HD
ENDBRANCH  19  23
ENDBRANCH  18  19
ENDBRANCH  17  18
ENDBRANCH   5  17
BRANCH   3  26
HETATM   26  C   UNL     1     -40.343  52.145 -53.275  1.00  0.00     0.058 A 
HETATM   27  C   UNL     1     -39.897  51.718 -52.015  1.00  0.00     0.031 A 
HETATM   28  C   UNL     1     -39.463  50.403 -51.829  1.00  0.00     0.002 A 
HETATM   29  C   UNL     1     -39.474  49.508 -52.895  1.00  0.00     0.000 A 
HETATM   30  C   UNL     1     -39.923  49.922 -54.149  1.00  0.00     0.002 A 
HETATM   31  C   UNL     1     -40.359  51.236 -54.343  1.00  0.00     0.031 A 
ENDBRANCH   3  26
TORSDOF 9
ENDMDL
MODEL 3
REMARK VINA RESULT:      -7.4      2.188      2.812
REMARK  9 active torsions:
REMARK  status: ('A' for Active; 'I' for Inactive)
REMARK    1  A    between atoms: C_2  and  C_3 
REMARK    2  A    between atoms: C_3  and  O_4 
REMARK    3  A    between atoms: O_4  and  C_5 
REMARK    4  A    between atoms: C_8  and  C_9 
REMARK    5  A    between atoms: N_11  and  C_12 
REMARK    6  A    between atoms: C_19  and  C_20 
REMARK    7  A    between atoms: C_20  and  S_21 
REMARK    8  A    between atoms: S_21  and  C_22 
REMARK    9  A    between atoms: C_22  and  N_23 
ROOT
HETATM    1  C   UNL     1     -42.569  55.633 -55.513  1.00  0.00     0.096 C 
HETATM    2  N   UNL     1     -41.733  54.609 -55.304  1.00  0.00    -0.167 NA
HETATM    3  N   UNL     1     -41.856  54.275 -54.000  1.00  0.00    -0.244 N 
HETATM    4  C   UNL     1     -42.909  54.953 -53.428  1.00  0.00     0.129 C 
HETATM    5  C   UNL     1     -43.418  55.819 -54.378  1.00  0.00     0.001 C 
ENDROOT
BRANCH   1   6
HETATM    6  C   UNL     1     -42.622  56.278 -56.829  1.00  0.00    -0.005 A 
HETATM    7  C   UNL     1     -43.042  55.547 -57.950  1.00  0.00     0.016 A 
HETATM    8  C   UNL     1     -43.174  56.159 -59.202  1.00  0.00     0.037 A 
HETATM    9  C   UNL     1     -42.887  57.513 -59.350  1.00  0.00     0.068 A 
HETATM   10  C   UNL     1     -42.418  58.234 -58.250  1.00  0.00     0.037 A 
HETATM   11  C   UNL     1     -42.276  57.622 -56.999  1.00  0.00     0.016 A 
BRANCH   9  12
HETATM   12  O   UNL     1     -43.013  58.243 -60.497  1.00  0.00    -0.351 OA
BRANCH  12  13
HETATM   13  C   UNL     1     -41.892  59.036 -60.897  1.00  0.00     0.179 C 
BRANCH  13  14
HETATM   14  C   UNL     1     -42.405  60.372 -61.454  1.00  0.00     0.002 C 
HETATM   15  C   UNL     1     -41.518  61.535 -61.000  1.00  0.00     0.011 C 
HETATM   16  C   UNL     1     -43.851  60.609 -61.020  1.00  0.00     0.011 C 
ENDBRANCH  13  14
ENDBRANCH  12  13
ENDBRANCH   9  12
ENDBRANCH   1   6
BRANCH   5  17
HETATM   17  C   UNL     1     -44.606  56.702 -54.207  1.00  0.00     0.125 C 
BRANCH  17  18
HETATM   18  S   UNL     1     -44.206  58.293 -53.420  1.00  0.00    -0.090 SA
BRANCH  18  19
HETATM   19  C   UNL     1     -44.080  57.852 -51.769  1.00  0.00     0.131 C 
HETATM   20  N   UNL     1     -45.055  57.159 -51.240  1.00  0.00    -0.380 N 
HETATM   21  H   UNL     1     -45.838  56.902 -51.831  1.00  0.00     0.158 HD
HETATM   22  H   UNL     1     -45.042  56.833 -50.284  1.00  0.00     0.158 HD
BRANCH  19  23
HETATM   23  N   UNL     1     -43.007  58.168 -51.091  1.00  0.00    -0.380 N 
HETATM   24  H   UNL     1     -42.649  57.507 -50.408  1.00  0.00     0.158 HD
HETATM   25  H   UNL     1     -42.508  59.038 -51.208  1.00  0.00     0.158 HD
ENDBRANCH  19  23
ENDBRANCH  18  19
ENDBRANCH  17  18
ENDBRANCH   5  17
BRANCH   3  26
HETATM   26  C   UNL     1     -41.030  53.275 -53.418  1.00  0.00     0.058 A 
HETATM   27  C   UNL     1     -40.545  52.231 -54.222  1.00  0.00     0.031 A 
HETATM   28  C   UNL     1     -39.744  51.229 -53.668  1.00  0.00     0.002 A 
HETATM   29  C   UNL     1     -39.421  51.263 -52.315  1.00  0.00     0.000 A 
HETATM   30  C   UNL     1     -39.892  52.301 -51.511  1.00  0.00     0.002 A 
HETATM   31  C   UNL     1     -40.694  53.307 -52.057  1.00  0.00     0.031 A 
ENDBRANCH   3  26
TORSDOF 9
ENDMDL
MODEL 4
REMARK VINA RESULT:      -7.4      1.795      2.237
REMARK  9 active torsions:
REMARK  status: ('A' for Active; 'I' for Inactive)
REMARK    1  A    between atoms: C_2  and  C_3 
REMARK    2  A    between atoms: C_3  and  O_4 
REMARK    3  A    between atoms: O_4  and  C_5 
REMARK    4  A    between atoms: C_8  and  C_9 
REMARK    5  A    between atoms: N_11  and  C_12 
REMARK    6  A    between atoms: C_19  and  C_20 
REMARK    7  A    between atoms: C_20  and  S_21 
REMARK    8  A    between atoms: S_21  and  C_22 
REMARK    9  A    between atoms: C_22  and  N_23 
ROOT
HETATM    1  C   UNL     1     -41.594  55.162 -54.528  1.00  0.00     0.096 C 
HETATM    2  N   UNL     1     -41.413  53.837 -54.563  1.00  0.00    -0.167 NA
HETATM    3  N   UNL     1     -40.745  53.512 -53.433  1.00  0.00    -0.244 N 
HETATM    4  C   UNL     1     -40.673  54.597 -52.589  1.00  0.00     0.129 C 
HETATM    5  C   UNL     1     -41.236  55.677 -53.243  1.00  0.00     0.001 C 
ENDROOT
BRANCH   1   6
HETATM    6  C   UNL     1     -42.236  55.843 -55.656  1.00  0.00    -0.005 A 
HETATM    7  C   UNL     1     -42.271  57.245 -55.699  1.00  0.00     0.016 A 
HETATM    8  C   UNL     1     -42.810  57.919 -56.801  1.00  0.00     0.037 A 
HETATM    9  C   UNL     1     -43.323  57.199 -57.877  1.00  0.00     0.068 A 
HETATM   10  C   UNL     1     -43.338  55.804 -57.817  1.00  0.00     0.037 A 
HETATM   11  C   UNL     1     -42.809  55.128 -56.712  1.00  0.00     0.016 A 
BRANCH   9  12
HETATM   12  O   UNL     1     -43.837  57.725 -59.027  1.00  0.00    -0.351 OA
BRANCH  12  13
HETATM   13  C   UNL     1     -44.751  58.818 -58.899  1.00  0.00     0.179 C 
BRANCH  13  14
HETATM   14  C   UNL     1     -46.173  58.310 -59.179  1.00  0.00     0.002 C 
HETATM   15  C   UNL     1     -46.934  58.060 -57.875  1.00  0.00     0.011 C 
HETATM   16  C   UNL     1     -46.126  57.034 -60.018  1.00  0.00     0.011 C 
ENDBRANCH  13  14
ENDBRANCH  12  13
ENDBRANCH   9  12
ENDBRANCH   1   6
BRANCH   5  17
HETATM   17  C   UNL     1     -41.427  57.040 -52.672  1.00  0.00     0.125 C 
BRANCH  17  18
HETATM   18  S   UNL     1     -41.268  57.084 -50.860  1.00  0.00    -0.090 SA
BRANCH  18  19
HETATM   19  C   UNL     1     -40.699  58.678 -50.591  1.00  0.00     0.131 C 
HETATM   20  N   UNL     1     -41.268  59.384 -49.649  1.00  0.00    -0.380 N 
HETATM   21  H   UNL     1     -42.013  58.956 -49.110  1.00  0.00     0.158 HD
HETATM   22  H   UNL     1     -40.970  60.318 -49.407  1.00  0.00     0.158 HD
BRANCH  19  23
HETATM   23  N   UNL     1     -39.689  59.135 -51.285  1.00  0.00    -0.380 N 
HETATM   24  H   UNL     1     -39.878  59.695 -52.112  1.00  0.00     0.158 HD
HETATM   25  H   UNL     1     -38.723  58.963 -51.046  1.00  0.00     0.158 HD
ENDBRANCH  19  23
ENDBRANCH  18  19
ENDBRANCH  17  18
ENDBRANCH   5  17
BRANCH   3  26
HETATM   26  C   UNL     1     -40.305  52.180 -53.198  1.00  0.00     0.058 A 
HETATM   27  C   UNL     1     -40.316  51.256 -54.255  1.00  0.00     0.031 A 
HETATM   28  C   UNL     1     -39.902  49.939 -54.044  1.00  0.00     0.002 A 
HETATM   29  C   UNL     1     -39.474  49.536 -52.782  1.00  0.00     0.000 A 
HETATM   30  C   UNL     1     -39.453  50.450 -51.728  1.00  0.00     0.002 A 
HETATM   31  C   UNL     1     -39.865  51.770 -51.932  1.00  0.00     0.031 A 
ENDBRANCH   3  26
TORSDOF 9
ENDMDL
MODEL 5
REMARK VINA RESULT:      -7.3      2.626      7.498
REMARK  9 active torsions:
REMARK  status: ('A' for Active; 'I' for Inactive)
REMARK    1  A    between atoms: C_2  and  C_3 
REMARK    2  A    between atoms: C_3  and  O_4 
REMARK    3  A    between atoms: O_4  and  C_5 
REMARK    4  A    between atoms: C_8  and  C_9 
REMARK    5  A    between atoms: N_11  and  C_12 
REMARK    6  A    between atoms: C_19  and  C_20 
REMARK    7  A    between atoms: C_20  and  S_21 
REMARK    8  A    between atoms: S_21  and  C_22 
REMARK    9  A    between atoms: C_22  and  N_23 
ROOT
HETATM    1  C   UNL     1     -42.655  55.834 -56.073  1.00  0.00     0.096 C 
HETATM    2  N   UNL     1     -43.222  55.332 -57.176  1.00  0.00    -0.167 NA
HETATM    3  N   UNL     1     -43.781  56.376 -57.828  1.00  0.00    -0.244 N 
HETATM    4  C   UNL     1     -43.404  57.564 -57.244  1.00  0.00     0.129 C 
HETATM    5  C   UNL     1     -42.650  57.263 -56.126  1.00  0.00     0.001 C 
ENDROOT
BRANCH   1   6
HETATM    6  C   UNL     1     -42.015  54.938 -55.106  1.00  0.00    -0.005 A 
HETATM    7  C   UNL     1     -40.700  54.497 -55.324  1.00  0.00     0.016 A 
HETATM    8  C   UNL     1     -40.040  53.703 -54.380  1.00  0.00     0.037 A 
HETATM    9  C   UNL     1     -40.686  53.337 -53.202  1.00  0.00     0.068 A 
HETATM   10  C   UNL     1     -42.012  53.729 -53.003  1.00  0.00     0.037 A 
HETATM   11  C   UNL     1     -42.677  54.515 -53.950  1.00  0.00     0.016 A 
BRANCH   9  12
HETATM   12  O   UNL     1     -40.149  52.606 -52.181  1.00  0.00    -0.351 OA
BRANCH  12  13
HETATM   13  C   UNL     1     -39.172  51.620 -52.523  1.00  0.00     0.179 C 
BRANCH  13  14
HETATM   14  C   UNL     1     -39.894  50.325 -52.924  1.00  0.00     0.002 C 
HETATM   15  C   UNL     1     -39.593  49.197 -51.933  1.00  0.00     0.011 C 
HETATM   16  C   UNL     1     -39.493  49.909 -54.338  1.00  0.00     0.011 C 
ENDBRANCH  13  14
ENDBRANCH  12  13
ENDBRANCH   9  12
ENDBRANCH   1   6
BRANCH   5  17
HETATM   17  C   UNL     1     -41.984  58.251 -55.231  1.00  0.00     0.125 C 
BRANCH  17  18
HETATM   18  S   UNL     1     -42.598  58.192 -53.519  1.00  0.00    -0.090 SA
BRANCH  18  19
HETATM   19  C   UNL     1     -44.296  58.236 -53.748  1.00  0.00     0.131 C 
HETATM   20  N   UNL     1     -44.838  59.365 -54.126  1.00  0.00    -0.380 N 
HETATM   21  H   UNL     1     -44.230  60.163 -54.277  1.00  0.00     0.158 HD
HETATM   22  H   UNL     1     -45.825  59.465 -54.313  1.00  0.00     0.158 HD
BRANCH  19  23
HETATM   23  N   UNL     1     -45.002  57.147 -53.594  1.00  0.00    -0.380 N 
HETATM   24  H   UNL     1     -45.392  56.943 -52.679  1.00  0.00     0.158 HD
HETATM   25  H   UNL     1     -45.186  56.490 -54.339  1.00  0.00     0.158 HD
ENDBRANCH  19  23
ENDBRANCH  18  19
ENDBRANCH  17  18
ENDBRANCH   5  17
BRANCH   3  26
HETATM   26  C   UNL     1     -44.554  56.177 -59.005  1.00  0.00     0.058 A 
HETATM   27  C   UNL     1     -44.188  55.163 -59.905  1.00  0.00     0.031 A 
HETATM   28  C   UNL     1     -44.924  54.959 -61.074  1.00  0.00     0.002 A 
HETATM   29  C   UNL     1     -46.027  55.761 -61.352  1.00  0.00     0.000 A 
HETATM   30  C   UNL     1     -46.403  56.765 -60.460  1.00  0.00     0.002 A 
HETATM   31  C   UNL     1     -45.672  56.975 -59.287  1.00  0.00     0.031 A 
ENDBRANCH   3  26
TORSDOF 9
ENDMDL
MODEL 6
REMARK VINA RESULT:      -7.3      3.797      6.742
REMARK  9 active torsions:
REMARK  status: ('A' for Active; 'I' for Inactive)
REMARK    1  A    between atoms: C_2  and  C_3 
REMARK    2  A    between atoms: C_3  and  O_4 
REMARK    3  A    between atoms: O_4  and  C_5 
REMARK    4  A    between atoms: C_8  and  C_9 
REMARK    5  A    between atoms: N_11  and  C_12 
REMARK    6  A    between atoms: C_19  and  C_20 
REMARK    7  A    between atoms: C_20  and  S_21 
REMARK    8  A    between atoms: S_21  and  C_22 
REMARK    9  A    between atoms: C_22  and  N_23 
ROOT
HETATM    1  C   UNL     1     -41.820  57.020 -52.913  1.00  0.00     0.096 C 
HETATM    2  N   UNL     1     -41.244  55.932 -52.388  1.00  0.00    -0.167 NA
HETATM    3  N   UNL     1     -41.078  55.059 -53.406  1.00  0.00    -0.244 N 
HETATM    4  C   UNL     1     -41.367  55.662 -54.609  1.00  0.00     0.129 C 
HETATM    5  C   UNL     1     -41.821  56.940 -54.340  1.00  0.00     0.001 C 
ENDROOT
BRANCH   1   6
HETATM    6  C   UNL     1     -42.198  58.139 -52.044  1.00  0.00    -0.005 A 
HETATM    7  C   UNL     1     -41.203  58.924 -51.441  1.00  0.00     0.016 A 
HETATM    8  C   UNL     1     -41.537  60.043 -50.670  1.00  0.00     0.037 A 
HETATM    9  C   UNL     1     -42.872  60.394 -50.491  1.00  0.00     0.068 A 
HETATM   10  C   UNL     1     -43.868  59.588 -51.045  1.00  0.00     0.037 A 
HETATM   11  C   UNL     1     -43.538  58.462 -51.809  1.00  0.00     0.016 A 
BRANCH   9  12
HETATM   12  O   UNL     1     -43.336  61.478 -49.803  1.00  0.00    -0.351 OA
BRANCH  12  13
HETATM   13  C   UNL     1     -44.747  61.710 -49.814  1.00  0.00     0.179 C 
BRANCH  13  14
HETATM   14  C   UNL     1     -45.162  62.307 -48.462  1.00  0.00     0.002 C 
HETATM   15  C   UNL     1     -44.494  63.666 -48.232  1.00  0.00     0.011 C 
HETATM   16  C   UNL     1     -44.812  61.347 -47.327  1.00  0.00     0.011 C 
ENDBRANCH  13  14
ENDBRANCH  12  13
ENDBRANCH   9  12
ENDBRANCH   1   6
BRANCH   5  17
HETATM   17  C   UNL     1     -42.186  57.968 -55.355  1.00  0.00     0.125 C 
BRANCH  17  18
HETATM   18  S   UNL     1     -43.647  57.513 -56.339  1.00  0.00    -0.090 SA
BRANCH  18  19
HETATM   19  C   UNL     1     -44.902  57.605 -55.176  1.00  0.00     0.131 C 
HETATM   20  N   UNL     1     -45.231  56.512 -54.536  1.00  0.00    -0.380 N 
HETATM   21  H   UNL     1     -44.723  55.660 -54.747  1.00  0.00     0.158 HD
HETATM   22  H   UNL     1     -45.937  56.489 -53.814  1.00  0.00     0.158 HD
BRANCH  19  23
HETATM   23  N   UNL     1     -45.466  58.755 -54.915  1.00  0.00    -0.380 N 
HETATM   24  H   UNL     1     -45.418  59.119 -53.968  1.00  0.00     0.158 HD
HETATM   25  H   UNL     1     -45.950  59.310 -55.606  1.00  0.00     0.158 HD
ENDBRANCH  19  23
ENDBRANCH  18  19
ENDBRANCH  17  18
ENDBRANCH   5  17
BRANCH   3  26
HETATM   26  C   UNL     1     -40.573  53.750 -53.174  1.00  0.00     0.058 A 
HETATM   27  C   UNL     1     -40.426  52.868 -54.257  1.00  0.00     0.031 A 
HETATM   28  C   UNL     1     -39.946  51.573 -54.051  1.00  0.00     0.002 A 
HETATM   29  C   UNL     1     -39.607  51.151 -52.768  1.00  0.00     0.000 A 
HETATM   30  C   UNL     1     -39.742  52.023 -51.688  1.00  0.00     0.002 A 
HETATM   31  C   UNL     1     -40.222  53.321 -51.886  1.00  0.00     0.031 A 
ENDBRANCH   3  26
TORSDOF 9
ENDMDL
MODEL 7
REMARK VINA RESULT:      -7.2      3.883      7.194
REMARK  9 active torsions:
REMARK  status: ('A' for Active; 'I' for Inactive)
REMARK    1  A    between atoms: C_2  and  C_3 
REMARK    2  A    between atoms: C_3  and  O_4 
REMARK    3  A    between atoms: O_4  and  C_5 
REMARK    4  A    between atoms: C_8  and  C_9 
REMARK    5  A    between atoms: N_11  and  C_12 
REMARK    6  A    between atoms: C_19  and  C_20 
REMARK    7  A    between atoms: C_20  and  S_21 
REMARK    8  A    between atoms: S_21  and  C_22 
REMARK    9  A    between atoms: C_22  and  N_23 
ROOT
HETATM    1  C   UNL     1     -43.245  56.709 -52.626  1.00  0.00     0.096 C 
HETATM    2  N   UNL     1     -42.324  55.886 -52.112  1.00  0.00    -0.167 NA
HETATM    3  N   UNL     1     -42.119  54.918 -53.034  1.00  0.00    -0.244 N 
HETATM    4  C   UNL     1     -42.762  55.232 -54.210  1.00  0.00     0.129 C 
HETATM    5  C   UNL     1     -43.476  56.397 -54.002  1.00  0.00     0.001 C 
ENDROOT
BRANCH   1   6
HETATM    6  C   UNL     1     -43.741  57.838 -51.833  1.00  0.00    -0.005 A 
HETATM    7  C   UNL     1     -42.917  58.951 -51.609  1.00  0.00     0.016 A 
HETATM    8  C   UNL     1     -43.392  60.073 -50.920  1.00  0.00     0.037 A 
HETATM    9  C   UNL     1     -44.701  60.098 -50.447  1.00  0.00     0.068 A 
HETATM   10  C   UNL     1     -45.510  58.974 -50.622  1.00  0.00     0.037 A 
HETATM   11  C   UNL     1     -45.034  57.847 -51.301  1.00  0.00     0.016 A 
BRANCH   9  12
HETATM   12  O   UNL     1     -45.305  61.138 -49.801  1.00  0.00    -0.351 OA
BRANCH  12  13
HETATM   13  C   UNL     1     -44.708  61.591 -48.583  1.00  0.00     0.179 C 
BRANCH  13  14
HETATM   14  C   UNL     1     -45.561  61.105 -47.402  1.00  0.00     0.002 C 
HETATM   15  C   UNL     1     -46.738  62.051 -47.147  1.00  0.00     0.011 C 
HETATM   16  C   UNL     1     -44.703  60.977 -46.144  1.00  0.00     0.011 C 
ENDBRANCH  13  14
ENDBRANCH  12  13
ENDBRANCH   9  12
ENDBRANCH   1   6
BRANCH   5  17
HETATM   17  C   UNL     1     -44.267  57.131 -55.030  1.00  0.00     0.125 C 
BRANCH  17  18
HETATM   18  S   UNL     1     -43.244  58.195 -56.093  1.00  0.00    -0.090 SA
BRANCH  18  19
HETATM   19  C   UNL     1     -42.965  57.183 -57.447  1.00  0.00     0.131 C 
HETATM   20  N   UNL     1     -43.795  56.193 -57.659  1.00  0.00    -0.380 N 
HETATM   21  H   UNL     1     -44.573  56.074 -57.020  1.00  0.00     0.158 HD
HETATM   22  H   UNL     1     -43.718  55.573 -58.451  1.00  0.00     0.158 HD
BRANCH  19  23
HETATM   23  N   UNL     1     -41.975  57.442 -58.261  1.00  0.00    -0.380 N 
HETATM   24  H   UNL     1     -42.088  57.237 -59.250  1.00  0.00     0.158 HD
HETATM   25  H   UNL     1     -41.095  57.838 -57.962  1.00  0.00     0.158 HD
ENDBRANCH  19  23
ENDBRANCH  18  19
ENDBRANCH  17  18
ENDBRANCH   5  17
BRANCH   3  26
HETATM   26  C   UNL     1     -41.260  53.818 -52.764  1.00  0.00     0.058 A 
HETATM   27  C   UNL     1     -40.811  53.019 -53.827  1.00  0.00     0.031 A 
HETATM   28  C   UNL     1     -39.979  51.924 -53.584  1.00  0.00     0.002 A 
HETATM   29  C   UNL     1     -39.587  51.622 -52.283  1.00  0.00     0.000 A 
HETATM   30  C   UNL     1     -40.022  52.415 -51.221  1.00  0.00     0.002 A 
HETATM   31  C   UNL     1     -40.855  53.512 -51.457  1.00  0.00     0.031 A 
ENDBRANCH   3  26
TORSDOF 9
ENDMDL
MODEL 8
REMARK VINA RESULT:      -7.2      3.544      6.351
REMARK  9 active torsions:
REMARK  status: ('A' for Active; 'I' for Inactive)
REMARK    1  A    between atoms: C_2  and  C_3 
REMARK    2  A    between atoms: C_3  and  O_4 
REMARK    3  A    between atoms: O_4  and  C_5 
REMARK    4  A    between atoms: C_8  and  C_9 
REMARK    5  A    between atoms: N_11  and  C_12 
REMARK    6  A    between atoms: C_19  and  C_20 
REMARK    7  A    between atoms: C_20  and  S_21 
REMARK    8  A    between atoms: S_21  and  C_22 
REMARK    9  A    between atoms: C_22  and  N_23 
ROOT
HETATM    1  C   UNL     1     -41.916  55.690 -53.452  1.00  0.00     0.096 C 
HETATM    2  N   UNL     1     -41.075  54.743 -53.019  1.00  0.00    -0.167 NA
HETATM    3  N   UNL     1     -41.334  53.638 -53.752  1.00  0.00    -0.244 N 
HETATM    4  C   UNL     1     -42.199  53.935 -54.780  1.00  0.00     0.129 C 
HETATM    5  C   UNL     1     -42.577  55.257 -54.643  1.00  0.00     0.001 C 
ENDROOT
BRANCH   1   6
HETATM    6  C   UNL     1     -41.934  57.005 -52.804  1.00  0.00    -0.005 A 
HETATM    7  C   UNL     1     -43.044  57.391 -52.037  1.00  0.00     0.016 A 
HETATM    8  C   UNL     1     -43.055  58.609 -51.347  1.00  0.00     0.037 A 
HETATM    9  C   UNL     1     -41.953  59.458 -51.413  1.00  0.00     0.068 A 
HETATM   10  C   UNL     1     -40.867  59.102 -52.215  1.00  0.00     0.037 A 
HETATM   11  C   UNL     1     -40.858  57.890 -52.914  1.00  0.00     0.016 A 
BRANCH   9  12
HETATM   12  O   UNL     1     -41.812  60.648 -50.759  1.00  0.00    -0.351 OA
BRANCH  12  13
HETATM   13  C   UNL     1     -43.001  61.272 -50.266  1.00  0.00     0.179 C 
BRANCH  13  14
HETATM   14  C   UNL     1     -43.166  62.635 -50.954  1.00  0.00     0.002 C 
HETATM   15  C   UNL     1     -42.827  63.780 -49.996  1.00  0.00     0.011 C 
HETATM   16  C   UNL     1     -44.590  62.792 -51.484  1.00  0.00     0.011 C 
ENDBRANCH  13  14
ENDBRANCH  12  13
ENDBRANCH   9  12
ENDBRANCH   1   6
BRANCH   5  17
HETATM   17  C   UNL     1     -43.456  56.015 -55.578  1.00  0.00     0.125 C 
BRANCH  17  18
HETATM   18  S   UNL     1     -42.529  56.900 -56.870  1.00  0.00    -0.090 SA
BRANCH  18  19
HETATM   19  C   UNL     1     -42.939  56.010 -58.276  1.00  0.00     0.131 C 
HETATM   20  N   UNL     1     -42.183  56.148 -59.335  1.00  0.00    -0.380 N 
HETATM   21  H   UNL     1     -41.381  56.766 -59.276  1.00  0.00     0.158 HD
HETATM   22  H   UNL     1     -42.338  55.635 -60.190  1.00  0.00     0.158 HD
BRANCH  19  23
HETATM   23  N   UNL     1     -43.953  55.185 -58.252  1.00  0.00    -0.380 N 
HETATM   24  H   UNL     1     -43.835  54.279 -57.806  1.00  0.00     0.158 HD
HETATM   25  H   UNL     1     -44.855  55.396 -58.653  1.00  0.00     0.158 HD
ENDBRANCH  19  23
ENDBRANCH  18  19
ENDBRANCH  17  18
ENDBRANCH   5  17
BRANCH   3  26
HETATM   26  C   UNL     1     -40.674  52.407 -53.481  1.00  0.00     0.058 A 
HETATM   27  C   UNL     1     -40.673  51.398 -54.457  1.00  0.00     0.031 A 
HETATM   28  C   UNL     1     -40.045  50.176 -54.207  1.00  0.00     0.002 A 
HETATM   29  C   UNL     1     -39.412  49.954 -52.987  1.00  0.00     0.000 A 
HETATM   30  C   UNL     1     -39.402  50.954 -52.015  1.00  0.00     0.002 A 
HETATM   31  C   UNL     1     -40.028  52.180 -52.257  1.00  0.00     0.031 A 
ENDBRANCH   3  26
TORSDOF 9
ENDMDL
MODEL 9
REMARK VINA RESULT:      -7.2      1.912      2.533
REMARK  9 active torsions:
REMARK  status: ('A' for Active; 'I' for Inactive)
REMARK    1  A    between atoms: C_2  and  C_3 
REMARK    2  A    between atoms: C_3  and  O_4 
REMARK    3  A    between atoms: O_4  and  C_5 
REMARK    4  A    between atoms: C_8  and  C_9 
REMARK    5  A    between atoms: N_11  and  C_12 
REMARK    6  A    between atoms: C_19  and  C_20 
REMARK    7  A    between atoms: C_20  and  S_21 
REMARK    8  A    between atoms: S_21  and  C_22 
REMARK    9  A    between atoms: C_22  and  N_23 
ROOT
HETATM    1  C   UNL     1     -41.947  55.455 -54.532  1.00  0.00     0.096 C 
HETATM    2  N   UNL     1     -41.669  54.148 -54.610  1.00  0.00    -0.167 NA
HETATM    3  N   UNL     1     -41.039  53.822 -53.459  1.00  0.00    -0.244 N 
HETATM    4  C   UNL     1     -41.090  54.871 -52.570  1.00  0.00     0.129 C 
HETATM    5  C   UNL     1     -41.695  55.936 -53.210  1.00  0.00     0.001 C 
ENDROOT
BRANCH   1   6
HETATM    6  C   UNL     1     -42.578  56.137 -55.666  1.00  0.00    -0.005 A 
HETATM    7  C   UNL     1     -42.682  55.486 -56.904  1.00  0.00     0.016 A 
HETATM    8  C   UNL     1     -43.347  56.086 -57.980  1.00  0.00     0.037 A 
HETATM    9  C   UNL     1     -43.917  57.348 -57.832  1.00  0.00     0.068 A 
HETATM   10  C   UNL     1     -43.771  58.023 -56.619  1.00  0.00     0.037 A 
HETATM   11  C   UNL     1     -43.099  57.429 -55.544  1.00  0.00     0.016 A 
BRANCH   9  12
HETATM   12  O   UNL     1     -44.626  58.028 -58.780  1.00  0.00    -0.351 OA
BRANCH  12  13
HETATM   13  C   UNL     1     -44.286  57.795 -60.149  1.00  0.00     0.179 C 
BRANCH  13  14
HETATM   14  C   UNL     1     -43.528  59.017 -60.686  1.00  0.00     0.002 C 
HETATM   15  C   UNL     1     -42.016  58.842 -60.525  1.00  0.00     0.011 C 
HETATM   16  C   UNL     1     -43.993  60.286 -59.974  1.00  0.00     0.011 C 
ENDBRANCH  13  14
ENDBRANCH  12  13
ENDBRANCH   9  12
ENDBRANCH   1   6
BRANCH   5  17
HETATM   17  C   UNL     1     -42.014  57.257 -52.596  1.00  0.00     0.125 C 
BRANCH  17  18
HETATM   18  S   UNL     1     -40.644  58.448 -52.716  1.00  0.00    -0.090 SA
BRANCH  18  19
HETATM   19  C   UNL     1     -40.309  58.773 -51.067  1.00  0.00     0.131 C 
HETATM   20  N   UNL     1     -39.175  59.354 -50.771  1.00  0.00    -0.380 N 
HETATM   21  H   UNL     1     -38.547  59.598 -51.529  1.00  0.00     0.158 HD
HETATM   22  H   UNL     1     -38.918  59.608 -49.829  1.00  0.00     0.158 HD
BRANCH  19  23
HETATM   23  N   UNL     1     -41.199  58.486 -50.153  1.00  0.00    -0.380 N 
HETATM   24  H   UNL     1     -41.583  57.546 -50.123  1.00  0.00     0.158 HD
HETATM   25  H   UNL     1     -41.530  59.150 -49.467  1.00  0.00     0.158 HD
ENDBRANCH  19  23
ENDBRANCH  18  19
ENDBRANCH  17  18
ENDBRANCH   5  17
BRANCH   3  26
HETATM   26  C   UNL     1     -40.517  52.515 -53.253  1.00  0.00     0.058 A 
HETATM   27  C   UNL     1     -40.001  52.172 -51.994  1.00  0.00     0.031 A 
HETATM   28  C   UNL     1     -39.470  50.899 -51.773  1.00  0.00     0.002 A 
HETATM   29  C   UNL     1     -39.452  49.963 -52.803  1.00  0.00     0.000 A 
HETATM   30  C   UNL     1     -39.970  50.293 -54.055  1.00  0.00     0.002 A 
HETATM   31  C   UNL     1     -40.504  51.565 -54.284  1.00  0.00     0.031 A 
ENDBRANCH   3  26
TORSDOF 9
ENDMDL
MODEL 10
REMARK VINA RESULT:      -7.0      3.614      8.467
REMARK  9 active torsions:
REMARK  status: ('A' for Active; 'I' for Inactive)
REMARK    1  A    between atoms: C_2  and  C_3 
REMARK    2  A    between atoms: C_3  and  O_4 
REMARK    3  A    between atoms: O_4  and  C_5 
REMARK    4  A    between atoms: C_8  and  C_9 
REMARK    5  A    between atoms: N_11  and  C_12 
REMARK    6  A    between atoms: C_19  and  C_20 
REMARK    7  A    between atoms: C_20  and  S_21 
REMARK    8  A    between atoms: S_21  and  C_22 
REMARK    9  A    between atoms: C_22  and  N_23 
ROOT
HETATM    1  C   UNL     1     -43.452  57.555 -52.555  1.00  0.00     0.096 C 
HETATM    2  N   UNL     1     -43.355  58.388 -51.512  1.00  0.00    -0.167 NA
HETATM    3  N   UNL     1     -44.110  59.468 -51.813  1.00  0.00    -0.244 N 
HETATM    4  C   UNL     1     -44.842  59.239 -52.956  1.00  0.00     0.129 C 
HETATM    5  C   UNL     1     -44.472  58.003 -53.451  1.00  0.00     0.001 C 
ENDROOT
BRANCH   1   6
HETATM    6  C   UNL     1     -42.685  56.306 -52.568  1.00  0.00    -0.005 A 
HETATM    7  C   UNL     1     -43.212  55.156 -51.961  1.00  0.00     0.016 A 
HETATM    8  C   UNL     1     -42.534  53.932 -52.026  1.00  0.00     0.037 A 
HETATM    9  C   UNL     1     -41.319  53.842 -52.700  1.00  0.00     0.068 A 
HETATM   10  C   UNL     1     -40.765  54.995 -53.262  1.00  0.00     0.037 A 
HETATM   11  C   UNL     1     -41.436  56.221 -53.190  1.00  0.00     0.016 A 
BRANCH   9  12
HETATM   12  O   UNL     1     -40.577  52.710 -52.877  1.00  0.00    -0.351 OA
BRANCH  12  13
HETATM   13  C   UNL     1     -39.841  52.225 -51.752  1.00  0.00     0.179 C 
BRANCH  13  14
HETATM   14  C   UNL     1     -39.300  50.825 -52.080  1.00  0.00     0.002 C 
HETATM   15  C   UNL     1     -39.759  50.369 -53.467  1.00  0.00     0.011 C 
HETATM   16  C   UNL     1     -39.747  49.821 -51.018  1.00  0.00     0.011 C 
ENDBRANCH  13  14
ENDBRANCH  12  13
ENDBRANCH   9  12
ENDBRANCH   1   6
BRANCH   5  17
HETATM   17  C   UNL     1     -45.062  57.328 -54.642  1.00  0.00     0.125 C 
BRANCH  17  18
HETATM   18  S   UNL     1     -44.202  57.736 -56.193  1.00  0.00    -0.090 SA
BRANCH  18  19
HETATM   19  C   UNL     1     -43.207  56.360 -56.422  1.00  0.00     0.131 C 
HETATM   20  N   UNL     1     -42.082  56.513 -57.071  1.00  0.00    -0.380 N 
HETATM   21  H   UNL     1     -41.841  57.441 -57.403  1.00  0.00     0.158 HD
HETATM   22  H   UNL     1     -41.427  55.760 -57.220  1.00  0.00     0.158 HD
BRANCH  19  23
HETATM   23  N   UNL     1     -43.558  55.209 -55.908  1.00  0.00    -0.380 N 
HETATM   24  H   UNL     1     -44.547  54.998 -55.814  1.00  0.00     0.158 HD
HETATM   25  H   UNL     1     -42.898  54.511 -55.597  1.00  0.00     0.158 HD
ENDBRANCH  19  23
ENDBRANCH  18  19
ENDBRANCH  17  18
ENDBRANCH   5  17
BRANCH   3  26
HETATM   26  C   UNL     1     -44.151  60.598 -50.950  1.00  0.00     0.058 A 
HETATM   27  C   UNL     1     -43.172  61.596 -51.077  1.00  0.00     0.031 A 
HETATM   28  C   UNL     1     -43.185  62.707 -50.230  1.00  0.00     0.002 A 
HETATM   29  C   UNL     1     -44.171  62.830 -49.256  1.00  0.00     0.000 A 
HETATM   30  C   UNL     1     -45.152  61.847 -49.128  1.00  0.00     0.002 A 
HETATM   31  C   UNL     1     -45.147  60.732 -49.972  1.00  0.00     0.031 A 
ENDBRANCH   3  26
TORSDOF 9
ENDMDL
