MODEL 1
REMARK VINA RESULT:      -8.4      0.000      0.000
REMARK  5 active torsions:
REMARK  status: ('A' for Active; 'I' for Inactive)
REMARK    1  A    between atoms: C_2  and  O_3 
REMARK    2  A    between atoms: O_3  and  C_4 
REMARK    3  A    between atoms: C_5  and  C_6 
REMARK    4  A    between atoms: C_6  and  C_9 
REMARK       I    between atoms: C_9  and  N_10 
REMARK    5  A    between atoms: N_10  and  C_11 
ROOT
HETATM    1  C   UNL     1     -41.915  54.553 -55.397  1.00  0.00     0.300 C 
HETATM    2  N   UNL     1     -41.785  55.717 -56.158  1.00  0.00    -0.320 N 
HETATM    3  O   UNL     1     -42.974  53.956 -55.221  1.00  0.00    -0.266 OA
HETATM    4  H   UNL     1     -40.850  56.120 -56.179  1.00  0.00     0.169 HD
ENDROOT
BRANCH   1   5
HETATM    5  C   UNL     1     -40.544  54.096 -54.802  1.00  0.00     0.352 C 
HETATM    6  F   UNL     1     -39.613  55.089 -55.049  1.00  0.00    -0.190 F 
HETATM    7  F   UNL     1     -40.056  53.028 -55.507  1.00  0.00    -0.190 F 
BRANCH   5   8
HETATM    8  C   UNL     1     -40.655  53.838 -53.312  1.00  0.00     0.056 A 
HETATM    9  C   UNL     1     -40.072  52.718 -52.705  1.00  0.00     0.081 A 
HETATM   10  C   UNL     1     -40.155  52.533 -51.321  1.00  0.00     0.037 A 
HETATM   11  C   UNL     1     -40.863  53.438 -50.533  1.00  0.00     0.003 A 
HETATM   12  C   UNL     1     -41.480  54.537 -51.124  1.00  0.00     0.001 A 
HETATM   13  C   UNL     1     -41.375  54.738 -52.501  1.00  0.00     0.017 A 
BRANCH   9  14
HETATM   14  O   UNL     1     -39.337  51.846 -53.458  1.00  0.00    -0.351 OA
BRANCH  14  15
HETATM   15  C   UNL     1     -39.733  50.480 -53.264  1.00  0.00     0.171 C 
HETATM   16  C   UNL     1     -39.842  49.786 -54.609  1.00  0.00     0.034 C 
ENDBRANCH  14  15
ENDBRANCH   9  14
ENDBRANCH   5   8
ENDBRANCH   1   5
BRANCH   2  17
HETATM   17  C   UNL     1     -42.783  56.373 -56.907  1.00  0.00     0.053 A 
HETATM   18  C   UNL     1     -43.371  57.595 -56.563  1.00  0.00     0.148 A 
HETATM   19  N   UNL     1     -44.355  58.234 -57.253  1.00  0.00    -0.239 NA
HETATM   20  C   UNL     1     -44.732  57.564 -58.355  1.00  0.00     0.156 A 
HETATM   21  C   UNL     1     -44.237  56.359 -58.823  1.00  0.00     0.039 A 
HETATM   22  N   UNL     1     -45.694  57.943 -59.244  1.00  0.00    -0.260 N 
HETATM   23  C   UNL     1     -43.228  55.733 -58.071  1.00  0.00     0.048 A 
HETATM   24  C   UNL     1     -44.964  56.114 -60.018  1.00  0.00     0.065 A 
HETATM   25  N   UNL     1     -45.855  57.085 -60.273  1.00  0.00    -0.177 NA
HETATM   26  C   UNL     1     -44.821  54.967 -60.947  1.00  0.00     0.073 C 
HETATM   27  H   UNL     1     -46.266  58.776 -59.199  1.00  0.00     0.191 HD
ENDBRANCH   2  17
TORSDOF 5
ENDMDL
MODEL 2
REMARK VINA RESULT:      -8.4      1.800      2.886
REMARK  5 active torsions:
REMARK  status: ('A' for Active; 'I' for Inactive)
REMARK    1  A    between atoms: C_2  and  O_3 
REMARK    2  A    between atoms: O_3  and  C_4 
REMARK    3  A    between atoms: C_5  and  C_6 
REMARK    4  A    between atoms: C_6  and  C_9 
REMARK       I    between atoms: C_9  and  N_10 
REMARK    5  A    between atoms: N_10  and  C_11 
ROOT
HETATM    1  C   UNL     1     -41.036  54.922 -54.484  1.00  0.00     0.300 C 
HETATM    2  N   UNL     1     -42.259  55.280 -55.057  1.00  0.00    -0.320 N 
HETATM    3  O   UNL     1     -39.942  55.138 -55.000  1.00  0.00    -0.266 OA
HETATM    4  H   UNL     1     -43.083  54.998 -54.529  1.00  0.00     0.169 HD
ENDROOT
BRANCH   1   5
HETATM    5  C   UNL     1     -41.227  54.221 -53.101  1.00  0.00     0.352 C 
HETATM    6  F   UNL     1     -42.583  54.169 -52.828  1.00  0.00    -0.190 F 
HETATM    7  F   UNL     1     -40.737  55.015 -52.098  1.00  0.00    -0.190 F 
BRANCH   5   8
HETATM    8  C   UNL     1     -40.639  52.824 -53.110  1.00  0.00     0.056 A 
HETATM    9  C   UNL     1     -39.884  52.328 -52.040  1.00  0.00     0.081 A 
HETATM   10  C   UNL     1     -39.392  51.018 -52.061  1.00  0.00     0.037 A 
HETATM   11  C   UNL     1     -39.606  50.207 -53.173  1.00  0.00     0.003 A 
HETATM   12  C   UNL     1     -40.322  50.696 -54.261  1.00  0.00     0.001 A 
HETATM   13  C   UNL     1     -40.837  51.993 -54.230  1.00  0.00     0.017 A 
BRANCH   9  14
HETATM   14  O   UNL     1     -39.704  53.096 -50.924  1.00  0.00    -0.351 OA
BRANCH  14  15
HETATM   15  C   UNL     1     -40.506  52.659 -49.817  1.00  0.00     0.171 C 
HETATM   16  C   UNL     1     -40.485  53.712 -48.725  1.00  0.00     0.034 C 
ENDBRANCH  14  15
ENDBRANCH   9  14
ENDBRANCH   5   8
ENDBRANCH   1   5
BRANCH   2  17
HETATM   17  C   UNL     1     -42.476  55.993 -56.252  1.00  0.00     0.053 A 
HETATM   18  C   UNL     1     -42.120  57.330 -56.465  1.00  0.00     0.148 A 
HETATM   19  N   UNL     1     -42.344  58.049 -57.600  1.00  0.00    -0.239 NA
HETATM   20  C   UNL     1     -42.960  57.329 -58.554  1.00  0.00     0.156 A 
HETATM   21  C   UNL     1     -43.360  56.006 -58.489  1.00  0.00     0.039 A 
HETATM   22  N   UNL     1     -43.322  57.770 -59.792  1.00  0.00    -0.260 N 
HETATM   23  C   UNL     1     -43.115  55.308 -57.294  1.00  0.00     0.048 A 
HETATM   24  C   UNL     1     -43.937  55.746 -59.760  1.00  0.00     0.065 A 
HETATM   25  N   UNL     1     -43.913  56.827 -60.555  1.00  0.00    -0.177 NA
HETATM   26  C   UNL     1     -44.511  54.468 -60.252  1.00  0.00     0.073 C 
HETATM   27  H   UNL     1     -43.186  58.699 -60.168  1.00  0.00     0.191 HD
ENDBRANCH   2  17
TORSDOF 5
ENDMDL
MODEL 3
REMARK VINA RESULT:      -8.3      4.002      5.228
REMARK  5 active torsions:
REMARK  status: ('A' for Active; 'I' for Inactive)
REMARK    1  A    between atoms: C_2  and  O_3 
REMARK    2  A    between atoms: O_3  and  C_4 
REMARK    3  A    between atoms: C_5  and  C_6 
REMARK    4  A    between atoms: C_6  and  C_9 
REMARK       I    between atoms: C_9  and  N_10 
REMARK    5  A    between atoms: N_10  and  C_11 
ROOT
HETATM    1  C   UNL     1     -42.389  54.904 -53.724  1.00  0.00     0.300 C 
HETATM    2  N   UNL     1     -42.257  56.097 -53.009  1.00  0.00    -0.320 N 
HETATM    3  O   UNL     1     -43.450  54.302 -53.875  1.00  0.00    -0.266 OA
HETATM    4  H   UNL     1     -41.308  56.456 -52.936  1.00  0.00     0.169 HD
ENDROOT
BRANCH   1   5
HETATM    5  C   UNL     1     -41.024  54.431 -54.318  1.00  0.00     0.352 C 
HETATM    6  F   UNL     1     -40.122  55.475 -54.208  1.00  0.00    -0.190 F 
HETATM    7  F   UNL     1     -41.133  54.255 -55.672  1.00  0.00    -0.190 F 
BRANCH   5   8
HETATM    8  C   UNL     1     -40.504  53.208 -53.588  1.00  0.00     0.056 A 
HETATM    9  C   UNL     1     -40.271  53.209 -52.208  1.00  0.00     0.081 A 
HETATM   10  C   UNL     1     -39.834  52.050 -51.558  1.00  0.00     0.037 A 
HETATM   11  C   UNL     1     -39.577  50.891 -52.287  1.00  0.00     0.003 A 
HETATM   12  C   UNL     1     -39.768  50.883 -53.665  1.00  0.00     0.001 A 
HETATM   13  C   UNL     1     -40.230  52.031 -54.311  1.00  0.00     0.017 A 
BRANCH   9  14
HETATM   14  O   UNL     1     -40.561  54.324 -51.472  1.00  0.00    -0.351 OA
BRANCH  14  15
HETATM   15  C   UNL     1     -40.073  54.240 -50.125  1.00  0.00     0.171 C 
HETATM   16  C   UNL     1     -41.084  54.859 -49.178  1.00  0.00     0.034 C 
ENDBRANCH  14  15
ENDBRANCH   9  14
ENDBRANCH   5   8
ENDBRANCH   1   5
BRANCH   2  17
HETATM   17  C   UNL     1     -43.278  56.857 -52.404  1.00  0.00     0.053 A 
HETATM   18  C   UNL     1     -43.901  56.544 -51.191  1.00  0.00     0.148 A 
HETATM   19  N   UNL     1     -44.908  57.246 -50.602  1.00  0.00    -0.239 NA
HETATM   20  C   UNL     1     -45.270  58.327 -51.315  1.00  0.00     0.156 A 
HETATM   21  C   UNL     1     -44.742  58.762 -52.517  1.00  0.00     0.039 A 
HETATM   22  N   UNL     1     -46.248  59.220 -50.990  1.00  0.00    -0.260 N 
HETATM   23  C   UNL     1     -43.710  58.000 -53.091  1.00  0.00     0.048 A 
HETATM   24  C   UNL     1     -45.467  59.946 -52.817  1.00  0.00     0.065 A 
HETATM   25  N   UNL     1     -46.389  60.223 -51.882  1.00  0.00    -0.177 NA
HETATM   26  C   UNL     1     -45.295  60.843 -53.987  1.00  0.00     0.073 C 
HETATM   27  H   UNL     1     -46.844  59.194 -50.173  1.00  0.00     0.191 HD
ENDBRANCH   2  17
TORSDOF 5
ENDMDL
MODEL 4
REMARK VINA RESULT:      -8.2      1.281      2.561
REMARK  5 active torsions:
REMARK  status: ('A' for Active; 'I' for Inactive)
REMARK    1  A    between atoms: C_2  and  O_3 
REMARK    2  A    between atoms: O_3  and  C_4 
REMARK    3  A    between atoms: C_5  and  C_6 
REMARK    4  A    between atoms: C_6  and  C_9 
REMARK       I    between atoms: C_9  and  N_10 
REMARK    5  A    between atoms: N_10  and  C_11 
ROOT
HETATM    1  C   UNL     1     -41.926  54.556 -55.339  1.00  0.00     0.300 C 
HETATM    2  N   UNL     1     -41.774  55.697 -56.130  1.00  0.00    -0.320 N 
HETATM    3  O   UNL     1     -42.998  53.986 -55.145  1.00  0.00    -0.266 OA
HETATM    4  H   UNL     1     -40.831  56.078 -56.163  1.00  0.00     0.169 HD
ENDROOT
BRANCH   1   5
HETATM    5  C   UNL     1     -40.564  54.083 -54.736  1.00  0.00     0.352 C 
HETATM    6  F   UNL     1     -39.590  54.992 -55.109  1.00  0.00    -0.190 F 
HETATM    7  F   UNL     1     -40.158  52.923 -55.340  1.00  0.00    -0.190 F 
BRANCH   5   8
HETATM    8  C   UNL     1     -40.641  53.985 -53.225  1.00  0.00     0.056 A 
HETATM    9  C   UNL     1     -41.037  55.066 -52.428  1.00  0.00     0.081 A 
HETATM   10  C   UNL     1     -41.139  54.929 -51.040  1.00  0.00     0.037 A 
HETATM   11  C   UNL     1     -40.800  53.725 -50.427  1.00  0.00     0.003 A 
HETATM   12  C   UNL     1     -40.369  52.651 -51.200  1.00  0.00     0.001 A 
HETATM   13  C   UNL     1     -40.293  52.778 -52.588  1.00  0.00     0.017 A 
BRANCH   9  14
HETATM   14  O   UNL     1     -41.415  56.240 -53.018  1.00  0.00    -0.351 OA
BRANCH  14  15
HETATM   15  C   UNL     1     -42.430  56.930 -52.274  1.00  0.00     0.171 C 
HETATM   16  C   UNL     1     -43.766  56.782 -52.979  1.00  0.00     0.034 C 
ENDBRANCH  14  15
ENDBRANCH   9  14
ENDBRANCH   5   8
ENDBRANCH   1   5
BRANCH   2  17
HETATM   17  C   UNL     1     -42.759  56.355 -56.892  1.00  0.00     0.053 A 
HETATM   18  C   UNL     1     -43.326  57.594 -56.573  1.00  0.00     0.148 A 
HETATM   19  N   UNL     1     -44.299  58.236 -57.276  1.00  0.00    -0.239 NA
HETATM   20  C   UNL     1     -44.686  57.551 -58.366  1.00  0.00     0.156 A 
HETATM   21  C   UNL     1     -44.212  56.329 -58.809  1.00  0.00     0.039 A 
HETATM   22  N   UNL     1     -45.641  57.930 -59.263  1.00  0.00    -0.260 N 
HETATM   23  C   UNL     1     -43.214  55.701 -58.045  1.00  0.00     0.048 A 
HETATM   24  C   UNL     1     -44.942  56.074 -60.000  1.00  0.00     0.065 A 
HETATM   25  N   UNL     1     -45.816  57.054 -60.276  1.00  0.00    -0.177 NA
HETATM   26  C   UNL     1     -44.818  54.906 -60.907  1.00  0.00     0.073 C 
HETATM   27  H   UNL     1     -46.198  58.773 -59.235  1.00  0.00     0.191 HD
ENDBRANCH   2  17
TORSDOF 5
ENDMDL
MODEL 5
REMARK VINA RESULT:      -8.0      2.859      3.835
REMARK  5 active torsions:
REMARK  status: ('A' for Active; 'I' for Inactive)
REMARK    1  A    between atoms: C_2  and  O_3 
REMARK    2  A    between atoms: O_3  and  C_4 
REMARK    3  A    between atoms: C_5  and  C_6 
REMARK    4  A    between atoms: C_6  and  C_9 
REMARK       I    between atoms: C_9  and  N_10 
REMARK    5  A    between atoms: N_10  and  C_11 
ROOT
HETATM    1  C   UNL     1     -41.554  55.390 -54.650  1.00  0.00     0.300 C 
HETATM    2  N   UNL     1     -42.505  56.315 -55.087  1.00  0.00    -0.320 N 
HETATM    3  O   UNL     1     -40.341  55.587 -54.659  1.00  0.00    -0.266 OA
HETATM    4  H   UNL     1     -43.470  55.994 -55.055  1.00  0.00     0.169 HD
ENDROOT
BRANCH   1   5
HETATM    5  C   UNL     1     -42.222  54.074 -54.135  1.00  0.00     0.352 C 
HETATM    6  F   UNL     1     -42.814  53.441 -55.213  1.00  0.00    -0.190 F 
HETATM    7  F   UNL     1     -43.285  54.370 -53.324  1.00  0.00    -0.190 F 
BRANCH   5   8
HETATM    8  C   UNL     1     -41.200  53.162 -53.485  1.00  0.00     0.056 A 
HETATM    9  C   UNL     1     -40.761  53.355 -52.169  1.00  0.00     0.081 A 
HETATM   10  C   UNL     1     -39.850  52.468 -51.585  1.00  0.00     0.037 A 
HETATM   11  C   UNL     1     -39.331  51.408 -52.324  1.00  0.00     0.003 A 
HETATM   12  C   UNL     1     -39.728  51.222 -53.644  1.00  0.00     0.001 A 
HETATM   13  C   UNL     1     -40.657  52.090 -54.220  1.00  0.00     0.017 A 
BRANCH   9  14
HETATM   14  O   UNL     1     -41.295  54.364 -51.418  1.00  0.00    -0.351 OA
BRANCH  14  15
HETATM   15  C   UNL     1     -40.437  54.761 -50.338  1.00  0.00     0.171 C 
HETATM   16  C   UNL     1     -41.241  54.839 -49.053  1.00  0.00     0.034 C 
ENDBRANCH  14  15
ENDBRANCH   9  14
ENDBRANCH   5   8
ENDBRANCH   1   5
BRANCH   2  17
HETATM   17  C   UNL     1     -42.282  57.631 -55.540  1.00  0.00     0.053 A 
HETATM   18  C   UNL     1     -41.999  58.726 -54.717  1.00  0.00     0.148 A 
HETATM   19  N   UNL     1     -41.808  60.010 -55.128  1.00  0.00    -0.239 NA
HETATM   20  C   UNL     1     -41.912  60.147 -56.462  1.00  0.00     0.156 A 
HETATM   21  C   UNL     1     -42.176  59.160 -57.395  1.00  0.00     0.039 A 
HETATM   22  N   UNL     1     -41.777  61.304 -57.169  1.00  0.00    -0.260 N 
HETATM   23  C   UNL     1     -42.374  57.851 -56.921  1.00  0.00     0.048 A 
HETATM   24  C   UNL     1     -42.158  59.835 -58.643  1.00  0.00     0.065 A 
HETATM   25  N   UNL     1     -41.914  61.147 -58.503  1.00  0.00    -0.177 NA
HETATM   26  C   UNL     1     -42.357  59.252 -59.993  1.00  0.00     0.073 C 
HETATM   27  H   UNL     1     -41.589  62.225 -56.795  1.00  0.00     0.191 HD
ENDBRANCH   2  17
TORSDOF 5
ENDMDL
MODEL 6
REMARK VINA RESULT:      -8.0      2.790      7.818
REMARK  5 active torsions:
REMARK  status: ('A' for Active; 'I' for Inactive)
REMARK    1  A    between atoms: C_2  and  O_3 
REMARK    2  A    between atoms: O_3  and  C_4 
REMARK    3  A    between atoms: C_5  and  C_6 
REMARK    4  A    between atoms: C_6  and  C_9 
REMARK       I    between atoms: C_9  and  N_10 
REMARK    5  A    between atoms: N_10  and  C_11 
ROOT
HETATM    1  C   UNL     1     -42.836  55.473 -57.246  1.00  0.00     0.300 C 
HETATM    2  N   UNL     1     -41.766  55.835 -56.424  1.00  0.00    -0.320 N 
HETATM    3  O   UNL     1     -43.633  54.574 -56.987  1.00  0.00    -0.266 OA
HETATM    4  H   UNL     1     -41.167  56.572 -56.791  1.00  0.00     0.169 HD
ENDROOT
BRANCH   1   5
HETATM    5  C   UNL     1     -42.903  56.358 -58.532  1.00  0.00     0.352 C 
HETATM    6  F   UNL     1     -42.156  55.741 -59.520  1.00  0.00    -0.190 F 
HETATM    7  F   UNL     1     -42.237  57.537 -58.328  1.00  0.00    -0.190 F 
BRANCH   5   8
HETATM    8  C   UNL     1     -44.335  56.543 -58.993  1.00  0.00     0.056 A 
HETATM    9  C   UNL     1     -45.195  57.474 -58.396  1.00  0.00     0.081 A 
HETATM   10  C   UNL     1     -46.497  57.651 -58.875  1.00  0.00     0.037 A 
HETATM   11  C   UNL     1     -46.972  56.865 -59.923  1.00  0.00     0.003 A 
HETATM   12  C   UNL     1     -46.144  55.910 -60.504  1.00  0.00     0.001 A 
HETATM   13  C   UNL     1     -44.835  55.751 -60.045  1.00  0.00     0.017 A 
BRANCH   9  14
HETATM   14  O   UNL     1     -44.729  58.282 -57.397  1.00  0.00    -0.351 OA
BRANCH  14  15
HETATM   15  C   UNL     1     -45.591  58.293 -56.249  1.00  0.00     0.171 C 
HETATM   16  C   UNL     1     -44.894  57.616 -55.084  1.00  0.00     0.034 C 
ENDBRANCH  14  15
ENDBRANCH   9  14
ENDBRANCH   5   8
ENDBRANCH   1   5
BRANCH   2  17
HETATM   17  C   UNL     1     -41.440  55.316 -55.155  1.00  0.00     0.053 A 
HETATM   18  C   UNL     1     -41.547  56.018 -53.949  1.00  0.00     0.148 A 
HETATM   19  N   UNL     1     -41.212  55.549 -52.715  1.00  0.00    -0.239 NA
HETATM   20  C   UNL     1     -40.752  54.286 -52.750  1.00  0.00     0.156 A 
HETATM   21  C   UNL     1     -40.601  53.471 -53.858  1.00  0.00     0.039 A 
HETATM   22  N   UNL     1     -40.335  53.547 -51.683  1.00  0.00    -0.260 N 
HETATM   23  C   UNL     1     -40.952  54.003 -55.111  1.00  0.00     0.048 A 
HETATM   24  C   UNL     1     -40.101  52.249 -53.337  1.00  0.00     0.065 A 
HETATM   25  N   UNL     1     -39.938  52.298 -52.006  1.00  0.00    -0.177 NA
HETATM   26  C   UNL     1     -39.779  51.008 -54.085  1.00  0.00     0.073 C 
HETATM   27  H   UNL     1     -40.303  53.844 -50.716  1.00  0.00     0.191 HD
ENDBRANCH   2  17
TORSDOF 5
ENDMDL
MODEL 7
REMARK VINA RESULT:      -8.0      3.924      7.477
REMARK  5 active torsions:
REMARK  status: ('A' for Active; 'I' for Inactive)
REMARK    1  A    between atoms: C_2  and  O_3 
REMARK    2  A    between atoms: O_3  and  C_4 
REMARK    3  A    between atoms: C_5  and  C_6 
REMARK    4  A    between atoms: C_6  and  C_9 
REMARK       I    between atoms: C_9  and  N_10 
REMARK    5  A    between atoms: N_10  and  C_11 
ROOT
HETATM    1  C   UNL     1     -41.960  55.604 -52.244  1.00  0.00     0.300 C 
HETATM    2  N   UNL     1     -40.763  54.909 -52.430  1.00  0.00    -0.320 N 
HETATM    3  O   UNL     1     -42.986  55.105 -51.786  1.00  0.00    -0.266 OA
HETATM    4  H   UNL     1     -40.011  55.446 -52.857  1.00  0.00     0.169 HD
ENDROOT
BRANCH   1   5
HETATM    5  C   UNL     1     -41.835  57.099 -52.681  1.00  0.00     0.352 C 
HETATM    6  F   UNL     1     -40.592  57.275 -53.264  1.00  0.00    -0.190 F 
HETATM    7  F   UNL     1     -41.779  57.910 -51.578  1.00  0.00    -0.190 F 
BRANCH   5   8
HETATM    8  C   UNL     1     -42.932  57.477 -53.656  1.00  0.00     0.056 A 
HETATM    9  C   UNL     1     -42.956  56.997 -54.971  1.00  0.00     0.081 A 
HETATM   10  C   UNL     1     -44.007  57.330 -55.833  1.00  0.00     0.037 A 
HETATM   11  C   UNL     1     -45.020  58.185 -55.406  1.00  0.00     0.003 A 
HETATM   12  C   UNL     1     -44.993  58.701 -54.113  1.00  0.00     0.001 A 
HETATM   13  C   UNL     1     -43.959  58.348 -53.244  1.00  0.00     0.017 A 
BRANCH   9  14
HETATM   14  O   UNL     1     -41.993  56.122 -55.391  1.00  0.00    -0.351 OA
BRANCH  14  15
HETATM   15  C   UNL     1     -42.523  55.072 -56.214  1.00  0.00     0.171 C 
HETATM   16  C   UNL     1     -43.039  53.948 -55.336  1.00  0.00     0.034 C 
ENDBRANCH  14  15
ENDBRANCH   9  14
ENDBRANCH   5   8
ENDBRANCH   1   5
BRANCH   2  17
HETATM   17  C   UNL     1     -40.478  53.574 -52.078  1.00  0.00     0.053 A 
HETATM   18  C   UNL     1     -40.360  53.097 -50.769  1.00  0.00     0.148 A 
HETATM   19  N   UNL     1     -40.058  51.820 -50.404  1.00  0.00    -0.239 NA
HETATM   20  C   UNL     1     -39.879  51.009 -51.462  1.00  0.00     0.156 A 
HETATM   21  C   UNL     1     -39.972  51.337 -52.803  1.00  0.00     0.039 A 
HETATM   22  N   UNL     1     -39.563  49.684 -51.421  1.00  0.00    -0.260 N 
HETATM   23  C   UNL     1     -40.278  52.669 -53.130  1.00  0.00     0.048 A 
HETATM   24  C   UNL     1     -39.712  50.119 -53.486  1.00  0.00     0.065 A 
HETATM   25  N   UNL     1     -39.461  49.110 -52.638  1.00  0.00    -0.177 NA
HETATM   26  C   UNL     1     -39.707  49.885 -54.951  1.00  0.00     0.073 C 
HETATM   27  H   UNL     1     -39.411  49.123 -50.593  1.00  0.00     0.191 HD
ENDBRANCH   2  17
TORSDOF 5
ENDMDL
MODEL 8
REMARK VINA RESULT:      -8.0      2.443      2.760
REMARK  5 active torsions:
REMARK  status: ('A' for Active; 'I' for Inactive)
REMARK    1  A    between atoms: C_2  and  O_3 
REMARK    2  A    between atoms: O_3  and  C_4 
REMARK    3  A    between atoms: C_5  and  C_6 
REMARK    4  A    between atoms: C_6  and  C_9 
REMARK       I    between atoms: C_9  and  N_10 
REMARK    5  A    between atoms: N_10  and  C_11 
ROOT
HETATM    1  C   UNL     1     -41.596  55.301 -54.593  1.00  0.00     0.300 C 
HETATM    2  N   UNL     1     -42.546  56.211 -55.061  1.00  0.00    -0.320 N 
HETATM    3  O   UNL     1     -40.383  55.427 -54.747  1.00  0.00    -0.266 OA
HETATM    4  H   UNL     1     -43.516  55.951 -54.892  1.00  0.00     0.169 HD
ENDROOT
BRANCH   1   5
HETATM    5  C   UNL     1     -42.262  54.105 -53.839  1.00  0.00     0.352 C 
HETATM    6  F   UNL     1     -42.213  52.995 -54.663  1.00  0.00    -0.190 F 
HETATM    7  F   UNL     1     -43.605  54.327 -53.695  1.00  0.00    -0.190 F 
BRANCH   5   8
HETATM    8  C   UNL     1     -41.550  53.820 -52.531  1.00  0.00     0.056 A 
HETATM    9  C   UNL     1     -40.486  52.914 -52.444  1.00  0.00     0.081 A 
HETATM   10  C   UNL     1     -39.823  52.707 -51.230  1.00  0.00     0.037 A 
HETATM   11  C   UNL     1     -40.247  53.366 -50.078  1.00  0.00     0.003 A 
HETATM   12  C   UNL     1     -41.327  54.242 -50.138  1.00  0.00     0.001 A 
HETATM   13  C   UNL     1     -41.972  54.470 -51.354  1.00  0.00     0.017 A 
BRANCH   9  14
HETATM   14  O   UNL     1     -40.030  52.295 -53.574  1.00  0.00    -0.351 OA
BRANCH  14  15
HETATM   15  C   UNL     1     -39.523  50.978 -53.316  1.00  0.00     0.171 C 
HETATM   16  C   UNL     1     -39.870  50.062 -54.474  1.00  0.00     0.034 C 
ENDBRANCH  14  15
ENDBRANCH   9  14
ENDBRANCH   5   8
ENDBRANCH   1   5
BRANCH   2  17
HETATM   17  C   UNL     1     -42.316  57.440 -55.711  1.00  0.00     0.053 A 
HETATM   18  C   UNL     1     -42.060  58.654 -55.065  1.00  0.00     0.148 A 
HETATM   19  N   UNL     1     -41.863  59.859 -55.669  1.00  0.00    -0.239 NA
HETATM   20  C   UNL     1     -41.930  59.781 -57.010  1.00  0.00     0.156 A 
HETATM   21  C   UNL     1     -42.164  58.656 -57.781  1.00  0.00     0.039 A 
HETATM   22  N   UNL     1     -41.780  60.813 -57.888  1.00  0.00    -0.260 N 
HETATM   23  C   UNL     1     -42.370  57.438 -57.111  1.00  0.00     0.048 A 
HETATM   24  C   UNL     1     -42.114  59.125 -59.120  1.00  0.00     0.065 A 
HETATM   25  N   UNL     1     -41.880  60.445 -59.183  1.00  0.00    -0.177 NA
HETATM   26  C   UNL     1     -42.274  58.334 -60.365  1.00  0.00     0.073 C 
HETATM   27  H   UNL     1     -41.606  61.783 -57.660  1.00  0.00     0.191 HD
ENDBRANCH   2  17
TORSDOF 5
ENDMDL
MODEL 9
REMARK VINA RESULT:      -7.9      3.024      4.376
REMARK  5 active torsions:
REMARK  status: ('A' for Active; 'I' for Inactive)
REMARK    1  A    between atoms: C_2  and  O_3 
REMARK    2  A    between atoms: O_3  and  C_4 
REMARK    3  A    between atoms: C_5  and  C_6 
REMARK    4  A    between atoms: C_6  and  C_9 
REMARK       I    between atoms: C_9  and  N_10 
REMARK    5  A    between atoms: N_10  and  C_11 
ROOT
HETATM    1  C   UNL     1     -42.628  55.704 -51.947  1.00  0.00     0.300 C 
HETATM    2  N   UNL     1     -43.902  55.998 -52.440  1.00  0.00    -0.320 N 
HETATM    3  O   UNL     1     -41.678  56.484 -51.977  1.00  0.00    -0.266 OA
HETATM    4  H   UNL     1     -44.575  55.237 -52.382  1.00  0.00     0.169 HD
ENDROOT
BRANCH   1   5
HETATM    5  C   UNL     1     -42.559  54.265 -51.343  1.00  0.00     0.352 C 
HETATM    6  F   UNL     1     -43.808  53.684 -51.469  1.00  0.00    -0.190 F 
HETATM    7  F   UNL     1     -42.380  54.330 -49.987  1.00  0.00    -0.190 F 
BRANCH   5   8
HETATM    8  C   UNL     1     -41.514  53.425 -52.052  1.00  0.00     0.056 A 
HETATM    9  C   UNL     1     -41.501  53.274 -53.445  1.00  0.00     0.081 A 
HETATM   10  C   UNL     1     -40.497  52.528 -54.071  1.00  0.00     0.037 A 
HETATM   11  C   UNL     1     -39.525  51.883 -53.311  1.00  0.00     0.003 A 
HETATM   12  C   UNL     1     -39.544  51.991 -51.923  1.00  0.00     0.001 A 
HETATM   13  C   UNL     1     -40.529  52.758 -51.299  1.00  0.00     0.017 A 
BRANCH   9  14
HETATM   14  O   UNL     1     -42.422  53.937 -54.207  1.00  0.00    -0.351 OA
BRANCH  14  15
HETATM   15  C   UNL     1     -41.838  54.562 -55.359  1.00  0.00     0.171 C 
HETATM   16  C   UNL     1     -42.925  54.890 -56.365  1.00  0.00     0.034 C 
ENDBRANCH  14  15
ENDBRANCH   9  14
ENDBRANCH   5   8
ENDBRANCH   1   5
BRANCH   2  17
HETATM   17  C   UNL     1     -44.357  57.217 -52.980  1.00  0.00     0.053 A 
HETATM   18  C   UNL     1     -44.618  58.375 -52.240  1.00  0.00     0.148 A 
HETATM   19  N   UNL     1     -45.085  59.555 -52.734  1.00  0.00    -0.239 NA
HETATM   20  C   UNL     1     -45.278  59.518 -54.064  1.00  0.00     0.156 A 
HETATM   21  C   UNL     1     -45.056  58.455 -54.921  1.00  0.00     0.039 A 
HETATM   22  N   UNL     1     -45.741  60.536 -54.844  1.00  0.00    -0.260 N 
HETATM   23  C   UNL     1     -44.582  57.255 -54.363  1.00  0.00     0.048 A 
HETATM   24  C   UNL     1     -45.401  58.953 -56.205  1.00  0.00     0.065 A 
HETATM   25  N   UNL     1     -45.821  60.227 -56.155  1.00  0.00    -0.177 NA
HETATM   26  C   UNL     1     -45.330  58.240 -57.504  1.00  0.00     0.073 C 
HETATM   27  H   UNL     1     -46.013  61.460 -54.534  1.00  0.00     0.191 HD
ENDBRANCH   2  17
TORSDOF 5
ENDMDL
MODEL 10
REMARK VINA RESULT:      -7.9      2.598      3.884
REMARK  5 active torsions:
REMARK  status: ('A' for Active; 'I' for Inactive)
REMARK    1  A    between atoms: C_2  and  O_3 
REMARK    2  A    between atoms: O_3  and  C_4 
REMARK    3  A    between atoms: C_5  and  C_6 
REMARK    4  A    between atoms: C_6  and  C_9 
REMARK       I    between atoms: C_9  and  N_10 
REMARK    5  A    between atoms: N_10  and  C_11 
ROOT
HETATM    1  C   UNL     1     -42.355  55.358 -55.779  1.00  0.00     0.300 C 
HETATM    2  N   UNL     1     -43.025  55.420 -57.004  1.00  0.00    -0.320 N 
HETATM    3  O   UNL     1     -41.397  56.067 -55.478  1.00  0.00    -0.266 OA
HETATM    4  H   UNL     1     -43.774  54.741 -57.123  1.00  0.00     0.169 HD
ENDROOT
BRANCH   1   5
HETATM    5  C   UNL     1     -42.978  54.282 -54.833  1.00  0.00     0.352 C 
HETATM    6  F   UNL     1     -43.624  53.342 -55.615  1.00  0.00    -0.190 F 
HETATM    7  F   UNL     1     -43.997  54.832 -54.100  1.00  0.00    -0.190 F 
BRANCH   5   8
HETATM    8  C   UNL     1     -41.912  53.618 -53.984  1.00  0.00     0.056 A 
HETATM    9  C   UNL     1     -41.550  54.111 -52.724  1.00  0.00     0.081 A 
HETATM   10  C   UNL     1     -40.593  53.449 -51.947  1.00  0.00     0.037 A 
HETATM   11  C   UNL     1     -39.952  52.315 -52.441  1.00  0.00     0.003 A 
HETATM   12  C   UNL     1     -40.272  51.832 -53.706  1.00  0.00     0.001 A 
HETATM   13  C   UNL     1     -41.246  52.476 -54.471  1.00  0.00     0.017 A 
BRANCH   9  14
HETATM   14  O   UNL     1     -42.202  55.196 -52.208  1.00  0.00    -0.351 OA
BRANCH  14  15
HETATM   15  C   UNL     1     -42.500  55.048 -50.812  1.00  0.00     0.171 C 
HETATM   16  C   UNL     1     -43.893  54.471 -50.647  1.00  0.00     0.034 C 
ENDBRANCH  14  15
ENDBRANCH   9  14
ENDBRANCH   5   8
ENDBRANCH   1   5
BRANCH   2  17
HETATM   17  C   UNL     1     -42.796  56.316 -58.067  1.00  0.00     0.053 A 
HETATM   18  C   UNL     1     -42.797  55.971 -59.423  1.00  0.00     0.148 A 
HETATM   19  N   UNL     1     -42.552  56.812 -60.465  1.00  0.00    -0.239 NA
HETATM   20  C   UNL     1     -42.301  58.071 -60.065  1.00  0.00     0.156 A 
HETATM   21  C   UNL     1     -42.276  58.557 -58.770  1.00  0.00     0.039 A 
HETATM   22  N   UNL     1     -42.016  59.134 -60.870  1.00  0.00    -0.260 N 
HETATM   23  C   UNL     1     -42.527  57.649 -57.727  1.00  0.00     0.048 A 
HETATM   24  C   UNL     1     -41.983  59.939 -58.914  1.00  0.00     0.065 A 
HETATM   25  N   UNL     1     -41.824  60.289 -60.199  1.00  0.00    -0.177 NA
HETATM   26  C   UNL     1     -41.860  60.957 -57.840  1.00  0.00     0.073 C 
HETATM   27  H   UNL     1     -41.944  59.128 -61.879  1.00  0.00     0.191 HD
ENDBRANCH   2  17
TORSDOF 5
ENDMDL
