MODEL 1
REMARK VINA RESULT:      -8.2      0.000      0.000
REMARK  8 active torsions:
REMARK  status: ('A' for Active; 'I' for Inactive)
REMARK    1  A    between atoms: C_2  and  C_3 
REMARK    2  A    between atoms: C_3  and  C_4 
REMARK    3  A    between atoms: C_4  and  N_5 
REMARK       I    between atoms: N_5  and  C_6 
REMARK    4  A    between atoms: C_6  and  C_7 
REMARK    5  A    between atoms: C_14  and  S_15 
REMARK    6  A    between atoms: S_15  and  N_16 
REMARK    7  A    between atoms: N_16  and  C_17 
REMARK    8  A    between atoms: C_19  and  O_20 
ROOT
HETATM    1  C   UNL     1     -44.830  58.341 -56.349  1.00  0.00     0.098 C 
HETATM    2  C   UNL     1     -43.971  57.335 -55.663  1.00  0.00     0.201 C 
HETATM    3  O   UNL     1     -43.261  56.555 -56.294  1.00  0.00    -0.286 OA
HETATM    4  C   UNL     1     -44.011  57.284 -54.175  1.00  0.00     0.043 A 
HETATM    5  C   UNL     1     -44.763  58.255 -53.487  1.00  0.00     0.046 A 
HETATM    6  N   UNL     1     -45.407  59.276 -54.198  1.00  0.00    -0.364 N 
HETATM    7  C   UNL     1     -43.333  56.275 -53.482  1.00  0.00     0.043 A 
HETATM    8  C   UNL     1     -43.391  56.259 -52.086  1.00  0.00     0.081 A 
HETATM    9  C   UNL     1     -44.124  57.227 -51.388  1.00  0.00     0.027 A 
HETATM   10  C   UNL     1     -44.794  58.231 -52.090  1.00  0.00     0.032 A 
HETATM   11  C   UNL     1     -45.477  59.222 -55.568  1.00  0.00     0.109 C 
HETATM   12  H   UNL     1     -46.117  59.823 -53.718  1.00  0.00     0.165 HD
ENDROOT
BRANCH   8  13
HETATM   13  S   UNL     1     -42.576  54.967 -51.169  1.00  0.00     0.263 S 
HETATM   14  O   UNL     1     -42.357  55.474 -49.830  1.00  0.00    -0.200 OA
HETATM   15  O   UNL     1     -43.293  53.733 -51.397  1.00  0.00    -0.200 OA
BRANCH  13  16
HETATM   16  N   UNL     1     -41.056  54.892 -51.899  1.00  0.00    -0.281 N 
HETATM   17  H   UNL     1     -40.804  55.759 -52.370  1.00  0.00     0.179 HD
BRANCH  16  18
HETATM   18  C   UNL     1     -40.643  53.667 -52.490  1.00  0.00     0.045 A 
HETATM   19  C   UNL     1     -40.100  52.659 -51.690  1.00  0.00     0.066 A 
HETATM   20  C   UNL     1     -39.637  51.483 -52.285  1.00  0.00     0.070 A 
HETATM   21  C   UNL     1     -39.764  51.308 -53.665  1.00  0.00     0.037 A 
HETATM   22  C   UNL     1     -40.301  52.320 -54.460  1.00  0.00     0.005 A 
HETATM   23  C   UNL     1     -40.727  53.509 -53.873  1.00  0.00     0.030 A 
BRANCH  20  24
HETATM   24  O   UNL     1     -39.073  50.434 -51.613  1.00  0.00    -0.356 OA
HETATM   25  C   UNL     1     -39.842  49.913 -50.534  1.00  0.00     0.210 C 
ENDBRANCH  20  24
ENDBRANCH  16  18
ENDBRANCH  13  16
ENDBRANCH   8  13
BRANCH   1  26
HETATM   26  C   UNL     1     -45.052  58.412 -57.821  1.00  0.00     0.257 C 
HETATM   27  N   UNL     1     -45.699  57.335 -58.372  1.00  0.00    -0.357 N 
HETATM   28  H   UNL     1     -46.034  56.606 -57.741  1.00  0.00     0.162 HD
HETATM   29  O   UNL     1     -44.689  59.387 -58.474  1.00  0.00    -0.267 OA
BRANCH  27  30
HETATM   30  C   UNL     1     -46.155  57.317 -59.747  1.00  0.00     0.123 C 
BRANCH  30  31
HETATM   31  C   UNL     1     -46.346  55.901 -60.294  1.00  0.00     0.023 C 
BRANCH  31  32
HETATM   32  C   UNL     1     -45.012  55.209 -60.633  1.00  0.00    -0.021 C 
HETATM   33  C   UNL     1     -44.680  54.088 -59.647  1.00  0.00     0.009 C 
HETATM   34  C   UNL     1     -43.876  56.234 -60.649  1.00  0.00     0.009 C 
ENDBRANCH  31  32
ENDBRANCH  30  31
ENDBRANCH  27  30
ENDBRANCH   1  26
TORSDOF 8
ENDMDL
MODEL 2
REMARK VINA RESULT:      -8.0      2.325      7.791
REMARK  8 active torsions:
REMARK  status: ('A' for Active; 'I' for Inactive)
REMARK    1  A    between atoms: C_2  and  C_3 
REMARK    2  A    between atoms: C_3  and  C_4 
REMARK    3  A    between atoms: C_4  and  N_5 
REMARK       I    between atoms: N_5  and  C_6 
REMARK    4  A    between atoms: C_6  and  C_7 
REMARK    5  A    between atoms: C_14  and  S_15 
REMARK    6  A    between atoms: S_15  and  N_16 
REMARK    7  A    between atoms: N_16  and  C_17 
REMARK    8  A    between atoms: C_19  and  O_20 
ROOT
HETATM    1  C   UNL     1     -41.235  55.516 -50.871  1.00  0.00     0.098 C 
HETATM    2  C   UNL     1     -42.164  55.650 -52.028  1.00  0.00     0.201 C 
HETATM    3  O   UNL     1     -42.465  54.687 -52.730  1.00  0.00    -0.286 OA
HETATM    4  C   UNL     1     -42.711  57.002 -52.329  1.00  0.00     0.043 A 
HETATM    5  C   UNL     1     -42.419  58.060 -51.446  1.00  0.00     0.046 A 
HETATM    6  N   UNL     1     -41.677  57.817 -50.283  1.00  0.00    -0.364 N 
HETATM    7  C   UNL     1     -43.479  57.217 -53.479  1.00  0.00     0.043 A 
HETATM    8  C   UNL     1     -43.977  58.499 -53.729  1.00  0.00     0.081 A 
HETATM    9  C   UNL     1     -43.705  59.557 -52.853  1.00  0.00     0.027 A 
HETATM   10  C   UNL     1     -42.941  59.331 -51.706  1.00  0.00     0.032 A 
HETATM   11  C   UNL     1     -41.064  56.603 -50.099  1.00  0.00     0.109 C 
HETATM   12  H   UNL     1     -41.288  58.613 -49.785  1.00  0.00     0.165 HD
ENDROOT
BRANCH   8  13
HETATM   13  S   UNL     1     -44.923  58.822 -55.204  1.00  0.00     0.263 S 
HETATM   14  O   UNL     1     -45.790  57.679 -55.406  1.00  0.00    -0.200 OA
HETATM   15  O   UNL     1     -45.454  60.162 -55.113  1.00  0.00    -0.200 OA
BRANCH  13  16
HETATM   16  N   UNL     1     -43.755  58.747 -56.421  1.00  0.00    -0.281 N 
HETATM   17  H   UNL     1     -43.534  59.662 -56.810  1.00  0.00     0.179 HD
BRANCH  16  18
HETATM   18  C   UNL     1     -43.756  57.632 -57.300  1.00  0.00     0.045 A 
HETATM   19  C   UNL     1     -44.590  57.631 -58.421  1.00  0.00     0.066 A 
HETATM   20  C   UNL     1     -44.634  56.505 -59.245  1.00  0.00     0.070 A 
HETATM   21  C   UNL     1     -43.810  55.412 -58.970  1.00  0.00     0.037 A 
HETATM   22  C   UNL     1     -42.983  55.415 -57.847  1.00  0.00     0.005 A 
HETATM   23  C   UNL     1     -42.967  56.521 -57.002  1.00  0.00     0.030 A 
BRANCH  20  24
HETATM   24  O   UNL     1     -45.420  56.379 -60.358  1.00  0.00    -0.356 OA
HETATM   25  C   UNL     1     -45.134  55.256 -61.186  1.00  0.00     0.210 C 
ENDBRANCH  20  24
ENDBRANCH  16  18
ENDBRANCH  13  16
ENDBRANCH   8  13
BRANCH   1  26
HETATM   26  C   UNL     1     -40.459  54.289 -50.538  1.00  0.00     0.257 C 
HETATM   27  N   UNL     1     -40.948  53.121 -51.066  1.00  0.00    -0.357 N 
HETATM   28  H   UNL     1     -41.753  53.180 -51.691  1.00  0.00     0.162 HD
HETATM   29  O   UNL     1     -39.443  54.344 -49.850  1.00  0.00    -0.267 OA
BRANCH  27  30
HETATM   30  C   UNL     1     -40.225  51.868 -50.996  1.00  0.00     0.123 C 
BRANCH  30  31
HETATM   31  C   UNL     1     -39.346  51.615 -52.223  1.00  0.00     0.023 C 
BRANCH  31  32
HETATM   32  C   UNL     1     -40.169  51.361 -53.501  1.00  0.00    -0.021 C 
HETATM   33  C   UNL     1     -39.668  50.140 -54.273  1.00  0.00     0.009 C 
HETATM   34  C   UNL     1     -40.131  52.595 -54.405  1.00  0.00     0.009 C 
ENDBRANCH  31  32
ENDBRANCH  30  31
ENDBRANCH  27  30
ENDBRANCH   1  26
TORSDOF 8
ENDMDL
MODEL 3
REMARK VINA RESULT:      -8.0      4.011      7.582
REMARK  8 active torsions:
REMARK  status: ('A' for Active; 'I' for Inactive)
REMARK    1  A    between atoms: C_2  and  C_3 
REMARK    2  A    between atoms: C_3  and  C_4 
REMARK    3  A    between atoms: C_4  and  N_5 
REMARK       I    between atoms: N_5  and  C_6 
REMARK    4  A    between atoms: C_6  and  C_7 
REMARK    5  A    between atoms: C_14  and  S_15 
REMARK    6  A    between atoms: S_15  and  N_16 
REMARK    7  A    between atoms: N_16  and  C_17 
REMARK    8  A    between atoms: C_19  and  O_20 
ROOT
HETATM    1  C   UNL     1     -44.668  60.344 -50.385  1.00  0.00     0.098 C 
HETATM    2  C   UNL     1     -44.828  58.969 -50.938  1.00  0.00     0.201 C 
HETATM    3  O   UNL     1     -45.774  58.252 -50.621  1.00  0.00    -0.286 OA
HETATM    4  C   UNL     1     -43.789  58.473 -51.882  1.00  0.00     0.043 A 
HETATM    5  C   UNL     1     -42.774  59.358 -52.294  1.00  0.00     0.046 A 
HETATM    6  N   UNL     1     -42.788  60.690 -51.862  1.00  0.00    -0.364 N 
HETATM    7  C   UNL     1     -43.811  57.146 -52.329  1.00  0.00     0.043 A 
HETATM    8  C   UNL     1     -42.821  56.716 -53.216  1.00  0.00     0.081 A 
HETATM    9  C   UNL     1     -41.813  57.589 -53.643  1.00  0.00     0.027 A 
HETATM   10  C   UNL     1     -41.802  58.912 -53.194  1.00  0.00     0.032 A 
HETATM   11  C   UNL     1     -43.666  61.087 -50.884  1.00  0.00     0.109 C 
HETATM   12  H   UNL     1     -41.944  61.244 -51.979  1.00  0.00     0.165 HD
ENDROOT
BRANCH   8  13
HETATM   13  S   UNL     1     -42.791  55.024 -53.774  1.00  0.00     0.263 S 
HETATM   14  O   UNL     1     -43.324  54.217 -52.696  1.00  0.00    -0.200 OA
HETATM   15  O   UNL     1     -43.361  54.978 -55.101  1.00  0.00    -0.200 OA
BRANCH  13  16
HETATM   16  N   UNL     1     -41.138  54.683 -53.845  1.00  0.00    -0.281 N 
HETATM   17  H   UNL     1     -40.759  54.780 -54.785  1.00  0.00     0.179 HD
BRANCH  16  18
HETATM   18  C   UNL     1     -40.618  53.652 -53.018  1.00  0.00     0.045 A 
HETATM   19  C   UNL     1     -40.348  52.395 -53.562  1.00  0.00     0.066 A 
HETATM   20  C   UNL     1     -39.897  51.367 -52.731  1.00  0.00     0.070 A 
HETATM   21  C   UNL     1     -39.676  51.620 -51.375  1.00  0.00     0.037 A 
HETATM   22  C   UNL     1     -39.953  52.875 -50.835  1.00  0.00     0.005 A 
HETATM   23  C   UNL     1     -40.441  53.889 -51.655  1.00  0.00     0.030 A 
BRANCH  20  24
HETATM   24  O   UNL     1     -39.615  50.094 -53.142  1.00  0.00    -0.356 OA
HETATM   25  C   UNL     1     -39.701  49.869 -54.546  1.00  0.00     0.210 C 
ENDBRANCH  20  24
ENDBRANCH  16  18
ENDBRANCH  13  16
ENDBRANCH   8  13
BRANCH   1  26
HETATM   26  C   UNL     1     -45.505  60.930 -49.300  1.00  0.00     0.257 C 
HETATM   27  N   UNL     1     -45.453  60.273 -48.097  1.00  0.00    -0.357 N 
HETATM   28  H   UNL     1     -44.810  59.485 -48.010  1.00  0.00     0.162 HD
HETATM   29  O   UNL     1     -46.173  61.943 -49.487  1.00  0.00    -0.267 OA
BRANCH  27  30
HETATM   30  C   UNL     1     -46.056  60.803 -46.891  1.00  0.00     0.123 C 
BRANCH  30  31
HETATM   31  C   UNL     1     -45.080  61.625 -46.046  1.00  0.00     0.023 C 
BRANCH  31  32
HETATM   32  C   UNL     1     -45.562  63.070 -45.817  1.00  0.00    -0.021 C 
HETATM   33  C   UNL     1     -47.088  63.169 -45.796  1.00  0.00     0.009 C 
HETATM   34  C   UNL     1     -45.000  63.991 -46.902  1.00  0.00     0.009 C 
ENDBRANCH  31  32
ENDBRANCH  30  31
ENDBRANCH  27  30
ENDBRANCH   1  26
TORSDOF 8
ENDMDL
MODEL 4
REMARK VINA RESULT:      -8.0      2.021      2.657
REMARK  8 active torsions:
REMARK  status: ('A' for Active; 'I' for Inactive)
REMARK    1  A    between atoms: C_2  and  C_3 
REMARK    2  A    between atoms: C_3  and  C_4 
REMARK    3  A    between atoms: C_4  and  N_5 
REMARK       I    between atoms: N_5  and  C_6 
REMARK    4  A    between atoms: C_6  and  C_7 
REMARK    5  A    between atoms: C_14  and  S_15 
REMARK    6  A    between atoms: S_15  and  N_16 
REMARK    7  A    between atoms: N_16  and  C_17 
REMARK    8  A    between atoms: C_19  and  O_20 
ROOT
HETATM    1  C   UNL     1     -42.358  58.452 -55.781  1.00  0.00     0.098 C 
HETATM    2  C   UNL     1     -42.157  57.146 -55.093  1.00  0.00     0.201 C 
HETATM    3  O   UNL     1     -42.279  56.077 -55.689  1.00  0.00    -0.286 OA
HETATM    4  C   UNL     1     -41.820  57.167 -53.643  1.00  0.00     0.043 A 
HETATM    5  C   UNL     1     -41.596  58.410 -53.020  1.00  0.00     0.046 A 
HETATM    6  N   UNL     1     -41.636  59.589 -53.776  1.00  0.00    -0.364 N 
HETATM    7  C   UNL     1     -41.752  55.974 -52.913  1.00  0.00     0.043 A 
HETATM    8  C   UNL     1     -41.431  56.032 -51.554  1.00  0.00     0.081 A 
HETATM    9  C   UNL     1     -41.193  57.260 -50.925  1.00  0.00     0.027 A 
HETATM   10  C   UNL     1     -41.260  58.444 -51.664  1.00  0.00     0.032 A 
HETATM   11  C   UNL     1     -42.088  59.561 -55.072  1.00  0.00     0.109 C 
HETATM   12  H   UNL     1     -41.698  60.475 -53.282  1.00  0.00     0.165 HD
ENDROOT
BRANCH   8  13
HETATM   13  S   UNL     1     -41.377  54.540 -50.582  1.00  0.00     0.263 S 
HETATM   14  O   UNL     1     -41.126  54.939 -49.212  1.00  0.00    -0.200 OA
HETATM   15  O   UNL     1     -42.523  53.732 -50.932  1.00  0.00    -0.200 OA
BRANCH  13  16
HETATM   16  N   UNL     1     -39.961  53.793 -51.121  1.00  0.00    -0.281 N 
HETATM   17  H   UNL     1     -39.503  54.314 -51.866  1.00  0.00     0.179 HD
BRANCH  16  18
HETATM   18  C   UNL     1     -39.916  52.374 -51.173  1.00  0.00     0.045 A 
HETATM   19  C   UNL     1     -39.554  51.734 -52.360  1.00  0.00     0.066 A 
HETATM   20  C   UNL     1     -39.573  50.339 -52.424  1.00  0.00     0.070 A 
HETATM   21  C   UNL     1     -39.907  49.599 -51.288  1.00  0.00     0.037 A 
HETATM   22  C   UNL     1     -40.273  50.242 -50.106  1.00  0.00     0.005 A 
HETATM   23  C   UNL     1     -40.293  51.634 -50.054  1.00  0.00     0.030 A 
BRANCH  20  24
HETATM   24  O   UNL     1     -39.257  49.601 -53.531  1.00  0.00    -0.356 OA
HETATM   25  C   UNL     1     -40.124  49.768 -54.648  1.00  0.00     0.210 C 
ENDBRANCH  20  24
ENDBRANCH  16  18
ENDBRANCH  13  16
ENDBRANCH   8  13
BRANCH   1  26
HETATM   26  C   UNL     1     -42.873  58.615 -57.170  1.00  0.00     0.257 C 
HETATM   27  N   UNL     1     -42.582  57.587 -58.030  1.00  0.00    -0.357 N 
HETATM   28  H   UNL     1     -42.101  56.770 -57.652  1.00  0.00     0.162 HD
HETATM   29  O   UNL     1     -43.527  59.603 -57.496  1.00  0.00    -0.267 OA
BRANCH  27  30
HETATM   30  C   UNL     1     -43.153  57.494 -59.358  1.00  0.00     0.123 C 
BRANCH  30  31
HETATM   31  C   UNL     1     -43.065  56.085 -59.949  1.00  0.00     0.023 C 
BRANCH  31  32
HETATM   32  C   UNL     1     -44.436  55.540 -60.392  1.00  0.00    -0.021 C 
HETATM   33  C   UNL     1     -45.578  56.488 -60.023  1.00  0.00     0.009 C 
HETATM   34  C   UNL     1     -44.684  54.166 -59.765  1.00  0.00     0.009 C 
ENDBRANCH  31  32
ENDBRANCH  30  31
ENDBRANCH  27  30
ENDBRANCH   1  26
TORSDOF 8
ENDMDL
MODEL 5
REMARK VINA RESULT:      -8.0      3.720      7.094
REMARK  8 active torsions:
REMARK  status: ('A' for Active; 'I' for Inactive)
REMARK    1  A    between atoms: C_2  and  C_3 
REMARK    2  A    between atoms: C_3  and  C_4 
REMARK    3  A    between atoms: C_4  and  N_5 
REMARK       I    between atoms: N_5  and  C_6 
REMARK    4  A    between atoms: C_6  and  C_7 
REMARK    5  A    between atoms: C_14  and  S_15 
REMARK    6  A    between atoms: S_15  and  N_16 
REMARK    7  A    between atoms: N_16  and  C_17 
REMARK    8  A    between atoms: C_19  and  O_20 
ROOT
HETATM    1  C   UNL     1     -46.149  60.665 -51.535  1.00  0.00     0.098 C 
HETATM    2  C   UNL     1     -45.646  59.412 -50.905  1.00  0.00     0.201 C 
HETATM    3  O   UNL     1     -45.765  59.201 -49.700  1.00  0.00    -0.286 OA
HETATM    4  C   UNL     1     -44.969  58.416 -51.782  1.00  0.00     0.043 A 
HETATM    5  C   UNL     1     -44.938  58.649 -53.170  1.00  0.00     0.046 A 
HETATM    6  N   UNL     1     -45.584  59.771 -53.706  1.00  0.00    -0.364 N 
HETATM    7  C   UNL     1     -44.358  57.284 -51.229  1.00  0.00     0.043 A 
HETATM    8  C   UNL     1     -43.734  56.370 -52.082  1.00  0.00     0.081 A 
HETATM    9  C   UNL     1     -43.706  56.584 -53.465  1.00  0.00     0.027 A 
HETATM   10  C   UNL     1     -44.322  57.714 -54.007  1.00  0.00     0.032 A 
HETATM   11  C   UNL     1     -46.075  60.746 -52.874  1.00  0.00     0.109 C 
HETATM   12  H   UNL     1     -45.363  60.043 -54.660  1.00  0.00     0.165 HD
ENDROOT
BRANCH   8  13
HETATM   13  S   UNL     1     -42.908  54.940 -51.413  1.00  0.00     0.263 S 
HETATM   14  O   UNL     1     -42.583  55.248 -50.036  1.00  0.00    -0.200 OA
HETATM   15  O   UNL     1     -43.683  53.770 -51.759  1.00  0.00    -0.200 OA
BRANCH  13  16
HETATM   16  N   UNL     1     -41.443  54.927 -52.252  1.00  0.00    -0.281 N 
HETATM   17  H   UNL     1     -41.343  55.725 -52.877  1.00  0.00     0.179 HD
BRANCH  16  18
HETATM   18  C   UNL     1     -40.907  53.680 -52.670  1.00  0.00     0.045 A 
HETATM   19  C   UNL     1     -40.294  52.839 -51.738  1.00  0.00     0.066 A 
HETATM   20  C   UNL     1     -39.712  51.645 -52.166  1.00  0.00     0.070 A 
HETATM   21  C   UNL     1     -39.791  51.279 -53.512  1.00  0.00     0.037 A 
HETATM   22  C   UNL     1     -40.399  52.123 -54.440  1.00  0.00     0.005 A 
HETATM   23  C   UNL     1     -40.944  53.335 -54.021  1.00  0.00     0.030 A 
BRANCH  20  24
HETATM   24  O   UNL     1     -39.071  50.750 -51.354  1.00  0.00    -0.356 OA
HETATM   25  C   UNL     1     -39.797  49.560 -51.060  1.00  0.00     0.210 C 
ENDBRANCH  20  24
ENDBRANCH  16  18
ENDBRANCH  13  16
ENDBRANCH   8  13
BRANCH   1  26
HETATM   26  C   UNL     1     -46.683  61.840 -50.789  1.00  0.00     0.257 C 
HETATM   27  N   UNL     1     -46.202  61.996 -49.513  1.00  0.00    -0.357 N 
HETATM   28  H   UNL     1     -45.480  61.350 -49.193  1.00  0.00     0.162 HD
HETATM   29  O   UNL     1     -47.484  62.613 -51.307  1.00  0.00    -0.267 OA
BRANCH  27  30
HETATM   30  C   UNL     1     -46.473  63.174 -48.715  1.00  0.00     0.123 C 
BRANCH  30  31
HETATM   31  C   UNL     1     -45.380  63.460 -47.682  1.00  0.00     0.023 C 
BRANCH  31  32
HETATM   32  C   UNL     1     -45.661  62.795 -46.321  1.00  0.00    -0.021 C 
HETATM   33  C   UNL     1     -45.162  63.645 -45.152  1.00  0.00     0.009 C 
HETATM   34  C   UNL     1     -45.010  61.411 -46.266  1.00  0.00     0.009 C 
ENDBRANCH  31  32
ENDBRANCH  30  31
ENDBRANCH  27  30
ENDBRANCH   1  26
TORSDOF 8
ENDMDL
MODEL 6
REMARK VINA RESULT:      -7.9      3.917      4.805
REMARK  8 active torsions:
REMARK  status: ('A' for Active; 'I' for Inactive)
REMARK    1  A    between atoms: C_2  and  C_3 
REMARK    2  A    between atoms: C_3  and  C_4 
REMARK    3  A    between atoms: C_4  and  N_5 
REMARK       I    between atoms: N_5  and  C_6 
REMARK    4  A    between atoms: C_6  and  C_7 
REMARK    5  A    between atoms: C_14  and  S_15 
REMARK    6  A    between atoms: S_15  and  N_16 
REMARK    7  A    between atoms: N_16  and  C_17 
REMARK    8  A    between atoms: C_19  and  O_20 
ROOT
HETATM    1  C   UNL     1     -41.822  59.513 -58.048  1.00  0.00     0.098 C 
HETATM    2  C   UNL     1     -42.016  59.193 -56.606  1.00  0.00     0.201 C 
HETATM    3  O   UNL     1     -41.899  60.049 -55.732  1.00  0.00    -0.286 OA
HETATM    4  C   UNL     1     -42.339  57.785 -56.243  1.00  0.00     0.043 A 
HETATM    5  C   UNL     1     -42.558  56.855 -57.278  1.00  0.00     0.046 A 
HETATM    6  N   UNL     1     -42.526  57.274 -58.614  1.00  0.00    -0.364 N 
HETATM    7  C   UNL     1     -42.399  57.394 -54.900  1.00  0.00     0.043 A 
HETATM    8  C   UNL     1     -42.706  56.065 -54.598  1.00  0.00     0.081 A 
HETATM    9  C   UNL     1     -42.939  55.133 -55.616  1.00  0.00     0.027 A 
HETATM   10  C   UNL     1     -42.881  55.534 -56.953  1.00  0.00     0.032 A 
HETATM   11  C   UNL     1     -42.087  58.535 -58.930  1.00  0.00     0.109 C 
HETATM   12  H   UNL     1     -42.460  56.565 -59.339  1.00  0.00     0.165 HD
ENDROOT
BRANCH   8  13
HETATM   13  S   UNL     1     -42.750  55.519 -52.902  1.00  0.00     0.263 S 
HETATM   14  O   UNL     1     -43.094  56.673 -52.098  1.00  0.00    -0.200 OA
HETATM   15  O   UNL     1     -43.526  54.301 -52.841  1.00  0.00    -0.200 OA
BRANCH  13  16
HETATM   16  N   UNL     1     -41.128  55.184 -52.575  1.00  0.00    -0.281 N 
HETATM   17  H   UNL     1     -40.507  55.943 -52.849  1.00  0.00     0.179 HD
BRANCH  16  18
HETATM   18  C   UNL     1     -40.661  53.851 -52.734  1.00  0.00     0.045 A 
HETATM   19  C   UNL     1     -40.439  53.054 -51.609  1.00  0.00     0.066 A 
HETATM   20  C   UNL     1     -39.920  51.768 -51.768  1.00  0.00     0.070 A 
HETATM   21  C   UNL     1     -39.673  51.274 -53.051  1.00  0.00     0.037 A 
HETATM   22  C   UNL     1     -39.891  52.075 -54.171  1.00  0.00     0.005 A 
HETATM   23  C   UNL     1     -40.371  53.373 -54.011  1.00  0.00     0.030 A 
BRANCH  20  24
HETATM   24  O   UNL     1     -39.645  50.901 -50.746  1.00  0.00    -0.356 OA
HETATM   25  C   UNL     1     -39.711  49.519 -51.080  1.00  0.00     0.210 C 
ENDBRANCH  20  24
ENDBRANCH  16  18
ENDBRANCH  13  16
ENDBRANCH   8  13
BRANCH   1  26
HETATM   26  C   UNL     1     -41.321  60.815 -58.573  1.00  0.00     0.257 C 
HETATM   27  N   UNL     1     -41.916  61.252 -59.730  1.00  0.00    -0.357 N 
HETATM   28  H   UNL     1     -42.687  60.701 -60.107  1.00  0.00     0.162 HD
HETATM   29  O   UNL     1     -40.448  61.447 -57.983  1.00  0.00    -0.267 OA
BRANCH  27  30
HETATM   30  C   UNL     1     -41.682  62.573 -60.278  1.00  0.00     0.123 C 
BRANCH  30  31
HETATM   31  C   UNL     1     -40.808  62.552 -61.534  1.00  0.00     0.023 C 
BRANCH  31  32
HETATM   32  C   UNL     1     -39.732  63.654 -61.528  1.00  0.00    -0.021 C 
HETATM   33  C   UNL     1     -38.666  63.421 -62.600  1.00  0.00     0.009 C 
HETATM   34  C   UNL     1     -39.069  63.736 -60.151  1.00  0.00     0.009 C 
ENDBRANCH  31  32
ENDBRANCH  30  31
ENDBRANCH  27  30
ENDBRANCH   1  26
TORSDOF 8
ENDMDL
MODEL 7
REMARK VINA RESULT:      -7.7     16.579     18.239
REMARK  8 active torsions:
REMARK  status: ('A' for Active; 'I' for Inactive)
REMARK    1  A    between atoms: C_2  and  C_3 
REMARK    2  A    between atoms: C_3  and  C_4 
REMARK    3  A    between atoms: C_4  and  N_5 
REMARK       I    between atoms: N_5  and  C_6 
REMARK    4  A    between atoms: C_6  and  C_7 
REMARK    5  A    between atoms: C_14  and  S_15 
REMARK    6  A    between atoms: S_15  and  N_16 
REMARK    7  A    between atoms: N_16  and  C_17 
REMARK    8  A    between atoms: C_19  and  O_20 
ROOT
HETATM    1  C   UNL     1     -36.859  39.832 -59.696  1.00  0.00     0.098 C 
HETATM    2  C   UNL     1     -35.829  39.326 -58.745  1.00  0.00     0.201 C 
HETATM    3  O   UNL     1     -35.379  38.185 -58.828  1.00  0.00    -0.286 OA
HETATM    4  C   UNL     1     -35.366  40.243 -57.667  1.00  0.00     0.043 A 
HETATM    5  C   UNL     1     -35.834  41.571 -57.664  1.00  0.00     0.046 A 
HETATM    6  N   UNL     1     -36.670  42.022 -58.693  1.00  0.00    -0.364 N 
HETATM    7  C   UNL     1     -34.503  39.782 -56.665  1.00  0.00     0.043 A 
HETATM    8  C   UNL     1     -34.089  40.671 -55.670  1.00  0.00     0.081 A 
HETATM    9  C   UNL     1     -34.536  41.998 -55.663  1.00  0.00     0.027 A 
HETATM   10  C   UNL     1     -35.394  42.448 -56.669  1.00  0.00     0.032 A 
HETATM   11  C   UNL     1     -37.198  41.128 -59.592  1.00  0.00     0.109 C 
HETATM   12  H   UNL     1     -37.172  42.895 -58.558  1.00  0.00     0.165 HD
ENDROOT
BRANCH   8  13
HETATM   13  S   UNL     1     -33.025  40.111 -54.355  1.00  0.00     0.263 S 
HETATM   14  O   UNL     1     -33.389  38.737 -54.076  1.00  0.00    -0.200 OA
HETATM   15  O   UNL     1     -31.667  40.477 -54.688  1.00  0.00    -0.200 OA
BRANCH  13  16
HETATM   16  N   UNL     1     -33.557  41.017 -53.033  1.00  0.00    -0.281 N 
HETATM   17  H   UNL     1     -33.362  42.011 -53.135  1.00  0.00     0.179 HD
BRANCH  16  18
HETATM   18  C   UNL     1     -33.462  40.448 -51.734  1.00  0.00     0.045 A 
HETATM   19  C   UNL     1     -32.224  40.385 -51.091  1.00  0.00     0.066 A 
HETATM   20  C   UNL     1     -32.126  39.768 -49.843  1.00  0.00     0.070 A 
HETATM   21  C   UNL     1     -33.275  39.263 -49.229  1.00  0.00     0.037 A 
HETATM   22  C   UNL     1     -34.508  39.323 -49.876  1.00  0.00     0.005 A 
HETATM   23  C   UNL     1     -34.599  39.903 -51.139  1.00  0.00     0.030 A 
BRANCH  20  24
HETATM   24  O   UNL     1     -30.971  39.630 -49.125  1.00  0.00    -0.356 OA
HETATM   25  C   UNL     1     -31.122  39.658 -47.709  1.00  0.00     0.210 C 
ENDBRANCH  20  24
ENDBRANCH  16  18
ENDBRANCH  13  16
ENDBRANCH   8  13
BRANCH   1  26
HETATM   26  C   UNL     1     -37.562  39.002 -60.713  1.00  0.00     0.257 C 
HETATM   27  N   UNL     1     -38.101  37.829 -60.247  1.00  0.00    -0.357 N 
HETATM   28  H   UNL     1     -38.042  37.642 -59.245  1.00  0.00     0.162 HD
HETATM   29  O   UNL     1     -37.658  39.370 -61.881  1.00  0.00    -0.267 OA
BRANCH  27  30
HETATM   30  C   UNL     1     -38.969  36.993 -61.051  1.00  0.00     0.123 C 
BRANCH  30  31
HETATM   31  C   UNL     1     -40.453  37.317 -60.864  1.00  0.00     0.023 C 
BRANCH  31  32
HETATM   32  C   UNL     1     -41.268  37.140 -62.159  1.00  0.00    -0.021 C 
HETATM   33  C   UNL     1     -40.526  37.679 -63.383  1.00  0.00     0.009 C 
HETATM   34  C   UNL     1     -42.623  37.838 -62.028  1.00  0.00     0.009 C 
ENDBRANCH  31  32
ENDBRANCH  30  31
ENDBRANCH  27  30
ENDBRANCH   1  26
TORSDOF 8
ENDMDL
MODEL 8
REMARK VINA RESULT:      -7.7      2.644      7.890
REMARK  8 active torsions:
REMARK  status: ('A' for Active; 'I' for Inactive)
REMARK    1  A    between atoms: C_2  and  C_3 
REMARK    2  A    between atoms: C_3  and  C_4 
REMARK    3  A    between atoms: C_4  and  N_5 
REMARK       I    between atoms: N_5  and  C_6 
REMARK    4  A    between atoms: C_6  and  C_7 
REMARK    5  A    between atoms: C_14  and  S_15 
REMARK    6  A    between atoms: S_15  and  N_16 
REMARK    7  A    between atoms: N_16  and  C_17 
REMARK    8  A    between atoms: C_19  and  O_20 
ROOT
HETATM    1  C   UNL     1     -42.373  55.033 -51.216  1.00  0.00     0.098 C 
HETATM    2  C   UNL     1     -42.119  55.814 -52.459  1.00  0.00     0.201 C 
HETATM    3  O   UNL     1     -41.171  55.560 -53.200  1.00  0.00    -0.286 OA
HETATM    4  C   UNL     1     -43.043  56.938 -52.776  1.00  0.00     0.043 A 
HETATM    5  C   UNL     1     -44.170  57.137 -51.955  1.00  0.00     0.046 A 
HETATM    6  N   UNL     1     -44.434  56.251 -50.902  1.00  0.00    -0.364 N 
HETATM    7  C   UNL     1     -42.779  57.792 -53.854  1.00  0.00     0.043 A 
HETATM    8  C   UNL     1     -43.669  58.835 -54.121  1.00  0.00     0.081 A 
HETATM    9  C   UNL     1     -44.800  59.036 -53.322  1.00  0.00     0.027 A 
HETATM   10  C   UNL     1     -45.056  58.176 -52.251  1.00  0.00     0.032 A 
HETATM   11  C   UNL     1     -43.499  55.314 -50.540  1.00  0.00     0.109 C 
HETATM   12  H   UNL     1     -45.107  56.533 -50.194  1.00  0.00     0.165 HD
ENDROOT
BRANCH   8  13
HETATM   13  S   UNL     1     -43.345  59.969 -55.458  1.00  0.00     0.263 S 
HETATM   14  O   UNL     1     -44.470  59.881 -56.365  1.00  0.00    -0.200 OA
HETATM   15  O   UNL     1     -42.935  61.232 -54.888  1.00  0.00    -0.200 OA
BRANCH  13  16
HETATM   16  N   UNL     1     -42.042  59.247 -56.253  1.00  0.00    -0.281 N 
HETATM   17  H   UNL     1     -41.145  59.496 -55.841  1.00  0.00     0.179 HD
BRANCH  16  18
HETATM   18  C   UNL     1     -42.107  59.087 -57.663  1.00  0.00     0.045 A 
HETATM   19  C   UNL     1     -42.303  57.816 -58.210  1.00  0.00     0.066 A 
HETATM   20  C   UNL     1     -42.302  57.656 -59.597  1.00  0.00     0.070 A 
HETATM   21  C   UNL     1     -42.153  58.772 -60.423  1.00  0.00     0.037 A 
HETATM   22  C   UNL     1     -41.952  60.037 -59.873  1.00  0.00     0.005 A 
HETATM   23  C   UNL     1     -41.912  60.193 -58.489  1.00  0.00     0.030 A 
BRANCH  20  24
HETATM   24  O   UNL     1     -42.467  56.465 -60.248  1.00  0.00    -0.356 OA
HETATM   25  C   UNL     1     -43.783  55.923 -60.212  1.00  0.00     0.210 C 
ENDBRANCH  20  24
ENDBRANCH  16  18
ENDBRANCH  13  16
ENDBRANCH   8  13
BRANCH   1  26
HETATM   26  C   UNL     1     -41.455  54.002 -50.654  1.00  0.00     0.257 C 
HETATM   27  N   UNL     1     -40.994  53.072 -51.551  1.00  0.00    -0.357 N 
HETATM   28  H   UNL     1     -41.252  53.185 -52.532  1.00  0.00     0.162 HD
HETATM   29  O   UNL     1     -41.131  54.014 -49.469  1.00  0.00    -0.267 OA
BRANCH  27  30
HETATM   30  C   UNL     1     -39.959  52.113 -51.220  1.00  0.00     0.123 C 
BRANCH  30  31
HETATM   31  C   UNL     1     -39.257  51.543 -52.454  1.00  0.00     0.023 C 
BRANCH  31  32
HETATM   32  C   UNL     1     -40.210  51.363 -53.651  1.00  0.00    -0.021 C 
HETATM   33  C   UNL     1     -39.946  50.058 -54.404  1.00  0.00     0.009 C 
HETATM   34  C   UNL     1     -40.080  52.547 -54.611  1.00  0.00     0.009 C 
ENDBRANCH  31  32
ENDBRANCH  30  31
ENDBRANCH  27  30
ENDBRANCH   1  26
TORSDOF 8
ENDMDL
MODEL 9
REMARK VINA RESULT:      -7.6     16.066     17.847
REMARK  8 active torsions:
REMARK  status: ('A' for Active; 'I' for Inactive)
REMARK    1  A    between atoms: C_2  and  C_3 
REMARK    2  A    between atoms: C_3  and  C_4 
REMARK    3  A    between atoms: C_4  and  N_5 
REMARK       I    between atoms: N_5  and  C_6 
REMARK    4  A    between atoms: C_6  and  C_7 
REMARK    5  A    between atoms: C_14  and  S_15 
REMARK    6  A    between atoms: S_15  and  N_16 
REMARK    7  A    between atoms: N_16  and  C_17 
REMARK    8  A    between atoms: C_19  and  O_20 
ROOT
HETATM    1  C   UNL     1     -36.884  39.781 -59.890  1.00  0.00     0.098 C 
HETATM    2  C   UNL     1     -35.896  39.305 -58.881  1.00  0.00     0.201 C 
HETATM    3  O   UNL     1     -35.438  38.165 -58.913  1.00  0.00    -0.286 OA
HETATM    4  C   UNL     1     -35.489  40.252 -57.806  1.00  0.00     0.043 A 
HETATM    5  C   UNL     1     -35.963  41.577 -57.858  1.00  0.00     0.046 A 
HETATM    6  N   UNL     1     -36.753  41.996 -58.936  1.00  0.00    -0.364 N 
HETATM    7  C   UNL     1     -34.671  39.822 -56.754  1.00  0.00     0.043 A 
HETATM    8  C   UNL     1     -34.308  40.738 -55.764  1.00  0.00     0.081 A 
HETATM    9  C   UNL     1     -34.761  42.062 -55.811  1.00  0.00     0.027 A 
HETATM   10  C   UNL     1     -35.574  42.482 -56.866  1.00  0.00     0.032 A 
HETATM   11  C   UNL     1     -37.234  41.077 -59.836  1.00  0.00     0.109 C 
HETATM   12  H   UNL     1     -37.265  42.869 -58.847  1.00  0.00     0.165 HD
ENDROOT
BRANCH   8  13
HETATM   13  S   UNL     1     -33.303  40.218 -54.387  1.00  0.00     0.263 S 
HETATM   14  O   UNL     1     -33.695  38.861 -54.069  1.00  0.00    -0.200 OA
HETATM   15  O   UNL     1     -31.929  40.554 -54.681  1.00  0.00    -0.200 OA
BRANCH  13  16
HETATM   16  N   UNL     1     -33.873  41.182 -53.123  1.00  0.00    -0.281 N 
HETATM   17  H   UNL     1     -33.150  41.781 -52.730  1.00  0.00     0.179 HD
BRANCH  16  18
HETATM   18  C   UNL     1     -34.846  40.643 -52.240  1.00  0.00     0.045 A 
HETATM   19  C   UNL     1     -36.172  40.516 -52.661  1.00  0.00     0.066 A 
HETATM   20  C   UNL     1     -37.136  40.045 -51.767  1.00  0.00     0.070 A 
HETATM   21  C   UNL     1     -36.758  39.663 -50.478  1.00  0.00     0.037 A 
HETATM   22  C   UNL     1     -35.434  39.797 -50.060  1.00  0.00     0.005 A 
HETATM   23  C   UNL     1     -34.479  40.304 -50.938  1.00  0.00     0.030 A 
BRANCH  20  24
HETATM   24  O   UNL     1     -38.464  39.892 -52.056  1.00  0.00    -0.356 OA
HETATM   25  C   UNL     1     -39.108  41.037 -52.606  1.00  0.00     0.210 C 
ENDBRANCH  20  24
ENDBRANCH  16  18
ENDBRANCH  13  16
ENDBRANCH   8  13
BRANCH   1  26
HETATM   26  C   UNL     1     -37.535  38.920 -60.918  1.00  0.00     0.257 C 
HETATM   27  N   UNL     1     -38.025  37.723 -60.459  1.00  0.00    -0.357 N 
HETATM   28  H   UNL     1     -37.970  37.537 -59.457  1.00  0.00     0.162 HD
HETATM   29  O   UNL     1     -37.633  39.285 -62.086  1.00  0.00    -0.267 OA
BRANCH  27  30
HETATM   30  C   UNL     1     -38.843  36.849 -61.276  1.00  0.00     0.123 C 
BRANCH  30  31
HETATM   31  C   UNL     1     -40.340  37.002 -61.000  1.00  0.00     0.023 C 
BRANCH  31  32
HETATM   32  C   UNL     1     -41.038  37.938 -62.005  1.00  0.00    -0.021 C 
HETATM   33  C   UNL     1     -42.561  37.814 -61.944  1.00  0.00     0.009 C 
HETATM   34  C   UNL     1     -40.552  37.642 -63.425  1.00  0.00     0.009 C 
ENDBRANCH  31  32
ENDBRANCH  30  31
ENDBRANCH  27  30
ENDBRANCH   1  26
TORSDOF 8
ENDMDL
MODEL 10
REMARK VINA RESULT:      -7.6      3.558      9.083
REMARK  8 active torsions:
REMARK  status: ('A' for Active; 'I' for Inactive)
REMARK    1  A    between atoms: C_2  and  C_3 
REMARK    2  A    between atoms: C_3  and  C_4 
REMARK    3  A    between atoms: C_4  and  N_5 
REMARK       I    between atoms: N_5  and  C_6 
REMARK    4  A    between atoms: C_6  and  C_7 
REMARK    5  A    between atoms: C_14  and  S_15 
REMARK    6  A    between atoms: S_15  and  N_16 
REMARK    7  A    between atoms: N_16  and  C_17 
REMARK    8  A    between atoms: C_19  and  O_20 
ROOT
HETATM    1  C   UNL     1     -42.631  55.413 -53.738  1.00  0.00     0.098 C 
HETATM    2  C   UNL     1     -42.483  55.328 -55.218  1.00  0.00     0.201 C 
HETATM    3  O   UNL     1     -41.690  54.551 -55.745  1.00  0.00    -0.286 OA
HETATM    4  C   UNL     1     -43.317  56.236 -56.054  1.00  0.00     0.043 A 
HETATM    5  C   UNL     1     -44.281  57.043 -55.419  1.00  0.00     0.046 A 
HETATM    6  N   UNL     1     -44.479  56.940 -54.036  1.00  0.00    -0.364 N 
HETATM    7  C   UNL     1     -43.127  56.299 -57.440  1.00  0.00     0.043 A 
HETATM    8  C   UNL     1     -43.929  57.161 -58.192  1.00  0.00     0.081 A 
HETATM    9  C   UNL     1     -44.900  57.959 -57.575  1.00  0.00     0.027 A 
HETATM   10  C   UNL     1     -45.084  57.885 -56.193  1.00  0.00     0.032 A 
HETATM   11  C   UNL     1     -43.607  56.209 -53.268  1.00  0.00     0.109 C 
HETATM   12  H   UNL     1     -45.004  57.674 -53.569  1.00  0.00     0.165 HD
ENDROOT
BRANCH   8  13
HETATM   13  S   UNL     1     -43.688  57.301 -59.953  1.00  0.00     0.263 S 
HETATM   14  O   UNL     1     -43.633  55.952 -60.478  1.00  0.00    -0.200 OA
HETATM   15  O   UNL     1     -44.634  58.268 -60.460  1.00  0.00    -0.200 OA
BRANCH  13  16
HETATM   16  N   UNL     1     -42.120  57.916 -60.068  1.00  0.00    -0.281 N 
HETATM   17  H   UNL     1     -41.426  57.303 -59.643  1.00  0.00     0.179 HD
BRANCH  16  18
HETATM   18  C   UNL     1     -41.928  59.319 -59.957  1.00  0.00     0.045 A 
HETATM   19  C   UNL     1     -41.790  60.094 -61.110  1.00  0.00     0.066 A 
HETATM   20  C   UNL     1     -41.537  61.463 -60.994  1.00  0.00     0.070 A 
HETATM   21  C   UNL     1     -41.473  62.050 -59.729  1.00  0.00     0.037 A 
HETATM   22  C   UNL     1     -41.605  61.271 -58.580  1.00  0.00     0.005 A 
HETATM   23  C   UNL     1     -41.817  59.899 -58.694  1.00  0.00     0.030 A 
BRANCH  20  24
HETATM   24  O   UNL     1     -41.368  62.321 -62.046  1.00  0.00    -0.356 OA
HETATM   25  C   UNL     1     -40.051  62.838 -62.210  1.00  0.00     0.210 C 
ENDBRANCH  20  24
ENDBRANCH  16  18
ENDBRANCH  13  16
ENDBRANCH   8  13
BRANCH   1  26
HETATM   26  C   UNL     1     -41.756  54.718 -52.752  1.00  0.00     0.257 C 
HETATM   27  N   UNL     1     -41.288  53.489 -53.144  1.00  0.00    -0.357 N 
HETATM   28  H   UNL     1     -41.511  53.172 -54.088  1.00  0.00     0.162 HD
HETATM   29  O   UNL     1     -41.472  55.236 -51.675  1.00  0.00    -0.267 OA
BRANCH  27  30
HETATM   30  C   UNL     1     -40.287  52.759 -52.393  1.00  0.00     0.123 C 
BRANCH  30  31
HETATM   31  C   UNL     1     -39.453  51.818 -53.266  1.00  0.00     0.023 C 
BRANCH  31  32
HETATM   32  C   UNL     1     -40.063  50.408 -53.372  1.00  0.00    -0.021 C 
HETATM   33  C   UNL     1     -39.595  49.493 -52.239  1.00  0.00     0.009 C 
HETATM   34  C   UNL     1     -39.708  49.780 -54.722  1.00  0.00     0.009 C 
ENDBRANCH  31  32
ENDBRANCH  30  31
ENDBRANCH  27  30
ENDBRANCH   1  26
TORSDOF 8
ENDMDL
