MODEL 1
REMARK VINA RESULT:      -7.1      0.000      0.000
REMARK  3 active torsions:
REMARK  status: ('A' for Active; 'I' for Inactive)
REMARK    1  A    between atoms: N_6  and  C_7 
REMARK    2  A    between atoms: C_10  and  S_11 
REMARK    3  A    between atoms: S_11  and  N_12 
ROOT
HETATM    1  C   UNL     1     -42.878  56.281 -57.234  1.00  0.00     0.030 A 
HETATM    2  C   UNL     1     -43.209  54.987 -56.797  1.00  0.00     0.031 A 
HETATM    3  C   UNL     1     -43.022  54.580 -55.467  1.00  0.00     0.027 A 
HETATM    4  C   UNL     1     -42.463  55.461 -54.546  1.00  0.00     0.079 A 
HETATM    5  C   UNL     1     -42.101  56.744 -54.945  1.00  0.00     0.027 A 
HETATM    6  C   UNL     1     -42.290  57.132 -56.278  1.00  0.00     0.031 A 
ENDROOT
BRANCH   4   7
HETATM    7  S   UNL     1     -42.324  54.992 -52.834  1.00  0.00     0.260 S 
HETATM    8  O   UNL     1     -42.282  56.222 -52.071  1.00  0.00    -0.200 OA
HETATM    9  O   UNL     1     -43.350  54.001 -52.592  1.00  0.00    -0.200 OA
BRANCH   7  10
HETATM   10  N   UNL     1     -40.819  54.248 -52.755  1.00  0.00    -0.307 N 
HETATM   11  C   UNL     1     -40.233  53.870 -51.458  1.00  0.00     0.135 C 
HETATM   12  C   UNL     1     -40.235  52.357 -51.273  1.00  0.00     0.021 C 
HETATM   13  C   UNL     1     -39.576  51.652 -52.453  1.00  0.00     0.003 C 
HETATM   14  C   UNL     1     -40.243  52.061 -53.761  1.00  0.00     0.021 C 
HETATM   15  C   UNL     1     -40.249  53.575 -53.936  1.00  0.00     0.135 C 
ENDBRANCH   7  10
ENDBRANCH   4   7
BRANCH   1  16
HETATM   16  N   UNL     1     -43.074  56.721 -58.548  1.00  0.00    -0.378 N 
HETATM   17  C   UNL     1     -43.889  57.944 -58.740  1.00  0.00     0.150 C 
HETATM   18  C   UNL     1     -45.381  57.580 -58.900  1.00  0.00     0.254 C 
HETATM   19  N   UNL     1     -45.565  56.590 -60.056  1.00  0.00    -0.072 N 
HETATM   20  C   UNL     1     -47.007  56.238 -60.265  1.00  0.00     0.269 C 
HETATM   21  H   UNL     1     -45.234  57.061 -60.907  1.00  0.00     0.279 HD
HETATM   22  C   UNL     1     -44.692  55.348 -59.860  1.00  0.00     0.254 C 
HETATM   23  C   UNL     1     -43.215  55.751 -59.653  1.00  0.00     0.150 C 
ENDBRANCH   1  16
TORSDOF 3
ENDMDL
MODEL 2
REMARK VINA RESULT:      -6.8      1.755      2.418
REMARK  3 active torsions:
REMARK  status: ('A' for Active; 'I' for Inactive)
REMARK    1  A    between atoms: N_6  and  C_7 
REMARK    2  A    between atoms: C_10  and  S_11 
REMARK    3  A    between atoms: S_11  and  N_12 
ROOT
HETATM    1  C   UNL     1     -43.015  57.290 -55.186  1.00  0.00     0.030 A 
HETATM    2  C   UNL     1     -43.665  56.076 -54.908  1.00  0.00     0.031 A 
HETATM    3  C   UNL     1     -43.218  55.206 -53.900  1.00  0.00     0.027 A 
HETATM    4  C   UNL     1     -42.079  55.525 -53.167  1.00  0.00     0.079 A 
HETATM    5  C   UNL     1     -41.395  56.707 -53.428  1.00  0.00     0.027 A 
HETATM    6  C   UNL     1     -41.851  57.561 -54.440  1.00  0.00     0.031 A 
ENDROOT
BRANCH   4   7
HETATM    7  S   UNL     1     -41.569  54.484 -51.816  1.00  0.00     0.260 S 
HETATM    8  O   UNL     1     -41.037  55.362 -50.795  1.00  0.00    -0.200 OA
HETATM    9  O   UNL     1     -42.680  53.600 -51.532  1.00  0.00    -0.200 OA
BRANCH   7  10
HETATM   10  N   UNL     1     -40.311  53.583 -52.471  1.00  0.00    -0.307 N 
HETATM   11  C   UNL     1     -39.482  52.714 -51.618  1.00  0.00     0.135 C 
HETATM   12  C   UNL     1     -39.771  51.241 -51.886  1.00  0.00     0.021 C 
HETATM   13  C   UNL     1     -39.650  50.911 -53.369  1.00  0.00     0.003 C 
HETATM   14  C   UNL     1     -40.551  51.822 -54.195  1.00  0.00     0.021 C 
HETATM   15  C   UNL     1     -40.265  53.294 -53.916  1.00  0.00     0.135 C 
ENDBRANCH   7  10
ENDBRANCH   4   7
BRANCH   1  16
HETATM   16  N   UNL     1     -43.450  58.187 -56.169  1.00  0.00    -0.378 N 
HETATM   17  C   UNL     1     -44.461  57.696 -57.136  1.00  0.00     0.150 C 
HETATM   18  C   UNL     1     -43.773  57.064 -58.365  1.00  0.00     0.254 C 
HETATM   19  N   UNL     1     -42.813  58.068 -59.011  1.00  0.00    -0.072 N 
HETATM   20  C   UNL     1     -42.150  57.502 -60.230  1.00  0.00     0.269 C 
HETATM   21  H   UNL     1     -43.380  58.872 -59.311  1.00  0.00     0.279 HD
HETATM   22  C   UNL     1     -41.796  58.591 -57.993  1.00  0.00     0.254 C 
HETATM   23  C   UNL     1     -42.517  59.171 -56.755  1.00  0.00     0.150 C 
ENDBRANCH   1  16
TORSDOF 3
ENDMDL
MODEL 3
REMARK VINA RESULT:      -6.7      5.125      6.134
REMARK  3 active torsions:
REMARK  status: ('A' for Active; 'I' for Inactive)
REMARK    1  A    between atoms: N_6  and  C_7 
REMARK    2  A    between atoms: C_10  and  S_11 
REMARK    3  A    between atoms: S_11  and  N_12 
ROOT
HETATM    1  C   UNL     1     -42.553  59.047 -51.348  1.00  0.00     0.030 A 
HETATM    2  C   UNL     1     -43.616  58.171 -51.627  1.00  0.00     0.031 A 
HETATM    3  C   UNL     1     -43.497  56.782 -51.464  1.00  0.00     0.027 A 
HETATM    4  C   UNL     1     -42.288  56.236 -51.045  1.00  0.00     0.079 A 
HETATM    5  C   UNL     1     -41.206  57.068 -50.779  1.00  0.00     0.027 A 
HETATM    6  C   UNL     1     -41.339  58.451 -50.952  1.00  0.00     0.031 A 
ENDROOT
BRANCH   4   7
HETATM    7  S   UNL     1     -42.161  54.488 -50.730  1.00  0.00     0.260 S 
HETATM    8  O   UNL     1     -41.883  54.341 -49.317  1.00  0.00    -0.200 OA
HETATM    9  O   UNL     1     -43.329  53.874 -51.325  1.00  0.00    -0.200 OA
BRANCH   7  10
HETATM   10  N   UNL     1     -40.801  54.032 -51.605  1.00  0.00    -0.307 N 
HETATM   11  C   UNL     1     -39.760  53.187 -50.995  1.00  0.00     0.135 C 
HETATM   12  C   UNL     1     -39.774  51.782 -51.585  1.00  0.00     0.021 C 
HETATM   13  C   UNL     1     -39.696  51.817 -53.107  1.00  0.00     0.003 C 
HETATM   14  C   UNL     1     -40.814  52.681 -53.679  1.00  0.00     0.021 C 
HETATM   15  C   UNL     1     -40.802  54.082 -53.079  1.00  0.00     0.135 C 
ENDBRANCH   7  10
ENDBRANCH   4   7
BRANCH   1  16
HETATM   16  N   UNL     1     -42.649  60.438 -51.480  1.00  0.00    -0.378 N 
HETATM   17  C   UNL     1     -42.865  61.224 -50.242  1.00  0.00     0.150 C 
HETATM   18  C   UNL     1     -44.375  61.392 -49.965  1.00  0.00     0.254 C 
HETATM   19  N   UNL     1     -45.068  62.034 -51.172  1.00  0.00    -0.072 N 
HETATM   20  C   UNL     1     -46.532  62.245 -50.928  1.00  0.00     0.269 C 
HETATM   21  H   UNL     1     -44.639  62.958 -51.306  1.00  0.00     0.279 HD
HETATM   22  C   UNL     1     -44.808  61.229 -52.449  1.00  0.00     0.254 C 
HETATM   23  C   UNL     1     -43.290  61.037 -52.668  1.00  0.00     0.150 C 
ENDBRANCH   1  16
TORSDOF 3
ENDMDL
MODEL 4
REMARK VINA RESULT:      -6.7      2.078      2.807
REMARK  3 active torsions:
REMARK  status: ('A' for Active; 'I' for Inactive)
REMARK    1  A    between atoms: N_6  and  C_7 
REMARK    2  A    between atoms: C_10  and  S_11 
REMARK    3  A    between atoms: S_11  and  N_12 
ROOT
HETATM    1  C   UNL     1     -44.068  58.241 -57.364  1.00  0.00     0.030 A 
HETATM    2  C   UNL     1     -42.748  58.145 -56.889  1.00  0.00     0.031 A 
HETATM    3  C   UNL     1     -42.460  57.882 -55.541  1.00  0.00     0.027 A 
HETATM    4  C   UNL     1     -43.499  57.741 -54.626  1.00  0.00     0.079 A 
HETATM    5  C   UNL     1     -44.818  57.851 -55.053  1.00  0.00     0.027 A 
HETATM    6  C   UNL     1     -45.089  58.119 -56.401  1.00  0.00     0.031 A 
ENDROOT
BRANCH   4   7
HETATM    7  S   UNL     1     -43.147  57.298 -52.938  1.00  0.00     0.260 S 
HETATM    8  O   UNL     1     -42.091  58.181 -52.491  1.00  0.00    -0.200 OA
HETATM    9  O   UNL     1     -44.419  57.250 -52.248  1.00  0.00    -0.200 OA
BRANCH   7  10
HETATM   10  N   UNL     1     -42.537  55.737 -53.063  1.00  0.00    -0.307 N 
HETATM   11  C   UNL     1     -43.347  54.657 -53.653  1.00  0.00     0.135 C 
HETATM   12  C   UNL     1     -42.808  54.247 -55.018  1.00  0.00     0.021 C 
HETATM   13  C   UNL     1     -41.323  53.910 -54.952  1.00  0.00     0.003 C 
HETATM   14  C   UNL     1     -40.537  55.075 -54.361  1.00  0.00     0.021 C 
HETATM   15  C   UNL     1     -41.086  55.487 -53.000  1.00  0.00     0.135 C 
ENDBRANCH   7  10
ENDBRANCH   4   7
BRANCH   1  16
HETATM   16  N   UNL     1     -44.386  58.481 -58.706  1.00  0.00    -0.378 N 
HETATM   17  C   UNL     1     -45.776  58.200 -59.135  1.00  0.00     0.150 C 
HETATM   18  C   UNL     1     -45.909  56.740 -59.619  1.00  0.00     0.254 C 
HETATM   19  N   UNL     1     -44.903  56.458 -60.741  1.00  0.00    -0.072 N 
HETATM   20  C   UNL     1     -45.024  55.058 -61.261  1.00  0.00     0.269 C 
HETATM   21  H   UNL     1     -45.131  57.098 -61.513  1.00  0.00     0.279 HD
HETATM   22  C   UNL     1     -43.475  56.785 -60.294  1.00  0.00     0.254 C 
HETATM   23  C   UNL     1     -43.390  58.236 -59.769  1.00  0.00     0.150 C 
ENDBRANCH   1  16
TORSDOF 3
ENDMDL
MODEL 5
REMARK VINA RESULT:      -6.6      2.151      3.026
REMARK  3 active torsions:
REMARK  status: ('A' for Active; 'I' for Inactive)
REMARK    1  A    between atoms: N_6  and  C_7 
REMARK    2  A    between atoms: C_10  and  S_11 
REMARK    3  A    between atoms: S_11  and  N_12 
ROOT
HETATM    1  C   UNL     1     -43.003  56.733 -58.516  1.00  0.00     0.030 A 
HETATM    2  C   UNL     1     -42.562  57.847 -57.781  1.00  0.00     0.031 A 
HETATM    3  C   UNL     1     -42.142  57.739 -56.446  1.00  0.00     0.027 A 
HETATM    4  C   UNL     1     -42.187  56.506 -55.804  1.00  0.00     0.079 A 
HETATM    5  C   UNL     1     -42.638  55.383 -56.491  1.00  0.00     0.027 A 
HETATM    6  C   UNL     1     -43.059  55.509 -57.821  1.00  0.00     0.031 A 
ENDROOT
BRANCH   4   7
HETATM    7  S   UNL     1     -41.554  56.338 -54.149  1.00  0.00     0.260 S 
HETATM    8  O   UNL     1     -40.495  55.353 -54.208  1.00  0.00    -0.200 OA
HETATM    9  O   UNL     1     -41.296  57.679 -53.666  1.00  0.00    -0.200 OA
BRANCH   7  10
HETATM   10  N   UNL     1     -42.852  55.695 -53.298  1.00  0.00    -0.307 N 
HETATM   11  C   UNL     1     -42.911  54.256 -52.986  1.00  0.00     0.135 C 
HETATM   12  C   UNL     1     -42.689  54.005 -51.500  1.00  0.00     0.021 C 
HETATM   13  C   UNL     1     -43.640  54.838 -50.647  1.00  0.00     0.003 C 
HETATM   14  C   UNL     1     -43.512  56.317 -50.995  1.00  0.00     0.021 C 
HETATM   15  C   UNL     1     -43.724  56.562 -52.485  1.00  0.00     0.135 C 
ENDBRANCH   7  10
ENDBRANCH   4   7
BRANCH   1  16
HETATM   16  N   UNL     1     -43.406  56.806 -59.854  1.00  0.00    -0.378 N 
HETATM   17  C   UNL     1     -43.514  58.156 -60.458  1.00  0.00     0.150 C 
HETATM   18  C   UNL     1     -44.933  58.728 -60.254  1.00  0.00     0.254 C 
HETATM   19  N   UNL     1     -45.981  57.768 -60.826  1.00  0.00    -0.072 N 
HETATM   20  C   UNL     1     -47.372  58.305 -60.677  1.00  0.00     0.269 C 
HETATM   21  H   UNL     1     -45.788  57.680 -61.832  1.00  0.00     0.279 HD
HETATM   22  C   UNL     1     -45.836  56.370 -60.218  1.00  0.00     0.254 C 
HETATM   23  C   UNL     1     -44.392  55.848 -60.395  1.00  0.00     0.150 C 
ENDBRANCH   1  16
TORSDOF 3
ENDMDL
MODEL 6
REMARK VINA RESULT:      -6.6      3.625      7.621
REMARK  3 active torsions:
REMARK  status: ('A' for Active; 'I' for Inactive)
REMARK    1  A    between atoms: N_6  and  C_7 
REMARK    2  A    between atoms: C_10  and  S_11 
REMARK    3  A    between atoms: S_11  and  N_12 
ROOT
HETATM    1  C   UNL     1     -43.552  56.482 -55.325  1.00  0.00     0.030 A 
HETATM    2  C   UNL     1     -43.552  57.797 -55.821  1.00  0.00     0.031 A 
HETATM    3  C   UNL     1     -43.233  58.089 -57.156  1.00  0.00     0.027 A 
HETATM    4  C   UNL     1     -42.871  57.061 -58.022  1.00  0.00     0.079 A 
HETATM    5  C   UNL     1     -42.837  55.748 -57.563  1.00  0.00     0.027 A 
HETATM    6  C   UNL     1     -43.154  55.475 -56.226  1.00  0.00     0.031 A 
ENDROOT
BRANCH   4   7
HETATM    7  S   UNL     1     -42.572  57.408 -59.742  1.00  0.00     0.260 S 
HETATM    8  O   UNL     1     -42.110  58.778 -59.814  1.00  0.00    -0.200 OA
HETATM    9  O   UNL     1     -41.759  56.321 -60.248  1.00  0.00    -0.200 OA
BRANCH   7  10
HETATM   10  N   UNL     1     -44.101  57.309 -60.432  1.00  0.00    -0.307 N 
HETATM   11  C   UNL     1     -44.649  56.013 -60.867  1.00  0.00     0.135 C 
HETATM   12  C   UNL     1     -45.778  55.556 -59.950  1.00  0.00     0.021 C 
HETATM   13  C   UNL     1     -46.845  56.634 -59.802  1.00  0.00     0.003 C 
HETATM   14  C   UNL     1     -46.221  57.940 -59.322  1.00  0.00     0.021 C 
HETATM   15  C   UNL     1     -45.087  58.387 -60.236  1.00  0.00     0.135 C 
ENDBRANCH   7  10
ENDBRANCH   4   7
BRANCH   1  16
HETATM   16  N   UNL     1     -43.887  56.159 -54.005  1.00  0.00    -0.378 N 
HETATM   17  C   UNL     1     -44.254  57.278 -53.105  1.00  0.00     0.150 C 
HETATM   18  C   UNL     1     -43.001  57.832 -52.392  1.00  0.00     0.254 C 
HETATM   19  N   UNL     1     -42.280  56.710 -51.636  1.00  0.00    -0.072 N 
HETATM   20  C   UNL     1     -41.075  57.215 -50.902  1.00  0.00     0.269 C 
HETATM   21  H   UNL     1     -42.941  56.349 -50.937  1.00  0.00     0.279 HD
HETATM   22  C   UNL     1     -41.938  55.547 -52.572  1.00  0.00     0.254 C 
HETATM   23  C   UNL     1     -43.204  55.051 -53.306  1.00  0.00     0.150 C 
ENDBRANCH   1  16
TORSDOF 3
ENDMDL
MODEL 7
REMARK VINA RESULT:      -6.5     14.871     16.402
REMARK  3 active torsions:
REMARK  status: ('A' for Active; 'I' for Inactive)
REMARK    1  A    between atoms: N_6  and  C_7 
REMARK    2  A    between atoms: C_10  and  S_11 
REMARK    3  A    between atoms: S_11  and  N_12 
ROOT
HETATM    1  C   UNL     1     -37.086  41.562 -55.421  1.00  0.00     0.030 A 
HETATM    2  C   UNL     1     -35.866  42.202 -55.141  1.00  0.00     0.031 A 
HETATM    3  C   UNL     1     -35.248  42.110 -53.885  1.00  0.00     0.027 A 
HETATM    4  C   UNL     1     -35.863  41.395 -52.862  1.00  0.00     0.079 A 
HETATM    5  C   UNL     1     -37.083  40.765 -53.092  1.00  0.00     0.027 A 
HETATM    6  C   UNL     1     -37.688  40.871 -54.350  1.00  0.00     0.031 A 
ENDROOT
BRANCH   4   7
HETATM    7  S   UNL     1     -35.036  41.181 -51.300  1.00  0.00     0.260 S 
HETATM    8  O   UNL     1     -34.398  42.444 -50.994  1.00  0.00    -0.200 OA
HETATM    9  O   UNL     1     -36.003  40.598 -50.395  1.00  0.00    -0.200 OA
BRANCH   7  10
HETATM   10  N   UNL     1     -33.852  40.038 -51.639  1.00  0.00    -0.307 N 
HETATM   11  C   UNL     1     -34.218  38.684 -52.089  1.00  0.00     0.135 C 
HETATM   12  C   UNL     1     -33.874  38.480 -53.560  1.00  0.00     0.021 C 
HETATM   13  C   UNL     1     -32.418  38.828 -53.844  1.00  0.00     0.003 C 
HETATM   14  C   UNL     1     -32.109  40.248 -53.384  1.00  0.00     0.021 C 
HETATM   15  C   UNL     1     -32.463  40.450 -51.916  1.00  0.00     0.135 C 
ENDBRANCH   7  10
ENDBRANCH   4   7
BRANCH   1  16
HETATM   16  N   UNL     1     -37.714  41.617 -56.670  1.00  0.00    -0.378 N 
HETATM   17  C   UNL     1     -38.635  40.508 -57.017  1.00  0.00     0.150 C 
HETATM   18  C   UNL     1     -37.869  39.371 -57.726  1.00  0.00     0.254 C 
HETATM   19  N   UNL     1     -37.142  39.910 -58.963  1.00  0.00    -0.072 N 
HETATM   20  C   UNL     1     -36.413  38.826 -59.699  1.00  0.00     0.269 C 
HETATM   21  H   UNL     1     -37.863  40.283 -59.593  1.00  0.00     0.279 HD
HETATM   22  C   UNL     1     -36.220  41.076 -58.594  1.00  0.00     0.254 C 
HETATM   23  C   UNL     1     -37.007  42.173 -57.843  1.00  0.00     0.150 C 
ENDBRANCH   1  16
TORSDOF 3
ENDMDL
MODEL 8
REMARK VINA RESULT:      -6.5      1.478      2.035
REMARK  3 active torsions:
REMARK  status: ('A' for Active; 'I' for Inactive)
REMARK    1  A    between atoms: N_6  and  C_7 
REMARK    2  A    between atoms: C_10  and  S_11 
REMARK    3  A    between atoms: S_11  and  N_12 
ROOT
HETATM    1  C   UNL     1     -42.790  57.236 -57.950  1.00  0.00     0.030 A 
HETATM    2  C   UNL     1     -42.380  58.204 -57.017  1.00  0.00     0.031 A 
HETATM    3  C   UNL     1     -42.295  57.925 -55.644  1.00  0.00     0.027 A 
HETATM    4  C   UNL     1     -42.654  56.668 -55.170  1.00  0.00     0.079 A 
HETATM    5  C   UNL     1     -43.086  55.689 -56.060  1.00  0.00     0.027 A 
HETATM    6  C   UNL     1     -43.171  55.985 -57.426  1.00  0.00     0.031 A 
ENDROOT
BRANCH   4   7
HETATM    7  S   UNL     1     -42.444  56.271 -53.447  1.00  0.00     0.260 S 
HETATM    8  O   UNL     1     -42.193  57.521 -52.763  1.00  0.00    -0.200 OA
HETATM    9  O   UNL     1     -43.564  55.431 -53.077  1.00  0.00    -0.200 OA
BRANCH   7  10
HETATM   10  N   UNL     1     -41.042  55.345 -53.428  1.00  0.00    -0.307 N 
HETATM   11  C   UNL     1     -40.826  54.324 -52.389  1.00  0.00     0.135 C 
HETATM   12  C   UNL     1     -40.935  52.918 -52.967  1.00  0.00     0.021 C 
HETATM   13  C   UNL     1     -40.021  52.741 -54.174  1.00  0.00     0.003 C 
HETATM   14  C   UNL     1     -40.311  53.806 -55.224  1.00  0.00     0.021 C 
HETATM   15  C   UNL     1     -40.211  55.210 -54.639  1.00  0.00     0.135 C 
ENDBRANCH   7  10
ENDBRANCH   4   7
BRANCH   1  16
HETATM   16  N   UNL     1     -42.864  57.479 -59.327  1.00  0.00    -0.378 N 
HETATM   17  C   UNL     1     -42.750  58.887 -59.775  1.00  0.00     0.150 C 
HETATM   18  C   UNL     1     -44.143  59.551 -59.832  1.00  0.00     0.254 C 
HETATM   19  N   UNL     1     -45.081  58.743 -60.736  1.00  0.00    -0.072 N 
HETATM   20  C   UNL     1     -46.435  59.376 -60.844  1.00  0.00     0.269 C 
HETATM   21  H   UNL     1     -44.662  58.743 -61.675  1.00  0.00     0.279 HD
HETATM   22  C   UNL     1     -45.162  57.283 -60.281  1.00  0.00     0.254 C 
HETATM   23  C   UNL     1     -43.748  56.666 -60.187  1.00  0.00     0.150 C 
ENDBRANCH   1  16
TORSDOF 3
ENDMDL
MODEL 9
REMARK VINA RESULT:      -6.4     15.449     16.833
REMARK  3 active torsions:
REMARK  status: ('A' for Active; 'I' for Inactive)
REMARK    1  A    between atoms: N_6  and  C_7 
REMARK    2  A    between atoms: C_10  and  S_11 
REMARK    3  A    between atoms: S_11  and  N_12 
ROOT
HETATM    1  C   UNL     1     -36.287  40.963 -56.268  1.00  0.00     0.030 A 
HETATM    2  C   UNL     1     -35.021  41.572 -56.316  1.00  0.00     0.031 A 
HETATM    3  C   UNL     1     -33.970  41.170 -55.477  1.00  0.00     0.027 A 
HETATM    4  C   UNL     1     -34.179  40.161 -54.542  1.00  0.00     0.079 A 
HETATM    5  C   UNL     1     -35.424  39.549 -54.448  1.00  0.00     0.027 A 
HETATM    6  C   UNL     1     -36.464  39.966 -55.289  1.00  0.00     0.031 A 
ENDROOT
BRANCH   4   7
HETATM    7  S   UNL     1     -32.823  39.570 -53.551  1.00  0.00     0.260 S 
HETATM    8  O   UNL     1     -32.757  38.138 -53.753  1.00  0.00    -0.200 OA
HETATM    9  O   UNL     1     -31.688  40.417 -53.853  1.00  0.00    -0.200 OA
BRANCH   7  10
HETATM   10  N   UNL     1     -33.326  39.877 -51.978  1.00  0.00    -0.307 N 
HETATM   11  C   UNL     1     -33.588  41.255 -51.525  1.00  0.00     0.135 C 
HETATM   12  C   UNL     1     -35.080  41.495 -51.327  1.00  0.00     0.021 C 
HETATM   13  C   UNL     1     -35.696  40.441 -50.413  1.00  0.00     0.003 C 
HETATM   14  C   UNL     1     -35.416  39.042 -50.948  1.00  0.00     0.021 C 
HETATM   15  C   UNL     1     -33.924  38.810 -51.156  1.00  0.00     0.135 C 
ENDBRANCH   7  10
ENDBRANCH   4   7
BRANCH   1  16
HETATM   16  N   UNL     1     -37.347  41.328 -57.106  1.00  0.00    -0.378 N 
HETATM   17  C   UNL     1     -38.437  40.340 -57.292  1.00  0.00     0.150 C 
HETATM   18  C   UNL     1     -38.130  39.416 -58.490  1.00  0.00     0.254 C 
HETATM   19  N   UNL     1     -37.897  40.246 -59.757  1.00  0.00    -0.072 N 
HETATM   20  C   UNL     1     -37.630  39.381 -60.951  1.00  0.00     0.269 C 
HETATM   21  H   UNL     1     -38.766  40.765 -59.937  1.00  0.00     0.279 HD
HETATM   22  C   UNL     1     -36.793  41.284 -59.539  1.00  0.00     0.254 C 
HETATM   23  C   UNL     1     -37.106  42.159 -58.304  1.00  0.00     0.150 C 
ENDBRANCH   1  16
TORSDOF 3
ENDMDL
MODEL 10
REMARK VINA RESULT:      -6.3      2.844      7.273
REMARK  3 active torsions:
REMARK  status: ('A' for Active; 'I' for Inactive)
REMARK    1  A    between atoms: N_6  and  C_7 
REMARK    2  A    between atoms: C_10  and  S_11 
REMARK    3  A    between atoms: S_11  and  N_12 
ROOT
HETATM    1  C   UNL     1     -42.810  55.336 -54.066  1.00  0.00     0.030 A 
HETATM    2  C   UNL     1     -43.880  56.237 -53.930  1.00  0.00     0.031 A 
HETATM    3  C   UNL     1     -43.955  57.422 -54.678  1.00  0.00     0.027 A 
HETATM    4  C   UNL     1     -42.932  57.747 -55.563  1.00  0.00     0.079 A 
HETATM    5  C   UNL     1     -41.844  56.892 -55.709  1.00  0.00     0.027 A 
HETATM    6  C   UNL     1     -41.782  55.717 -54.951  1.00  0.00     0.031 A 
ENDROOT
BRANCH   4   7
HETATM    7  S   UNL     1     -43.071  59.191 -56.595  1.00  0.00     0.260 S 
HETATM    8  O   UNL     1     -44.213  59.937 -56.111  1.00  0.00    -0.200 OA
HETATM    9  O   UNL     1     -41.755  59.793 -56.644  1.00  0.00    -0.200 OA
BRANCH   7  10
HETATM   10  N   UNL     1     -43.434  58.555 -58.108  1.00  0.00    -0.307 N 
HETATM   11  C   UNL     1     -42.538  58.781 -59.255  1.00  0.00     0.135 C 
HETATM   12  C   UNL     1     -41.809  57.500 -59.645  1.00  0.00     0.021 C 
HETATM   13  C   UNL     1     -42.785  56.351 -59.868  1.00  0.00     0.003 C 
HETATM   14  C   UNL     1     -43.662  56.148 -58.638  1.00  0.00     0.021 C 
HETATM   15  C   UNL     1     -44.381  57.434 -58.246  1.00  0.00     0.135 C 
ENDBRANCH   7  10
ENDBRANCH   4   7
BRANCH   1  16
HETATM   16  N   UNL     1     -42.719  54.137 -53.349  1.00  0.00    -0.378 N 
HETATM   17  C   UNL     1     -43.300  54.115 -51.986  1.00  0.00     0.150 C 
HETATM   18  C   UNL     1     -42.242  54.534 -50.941  1.00  0.00     0.254 C 
HETATM   19  N   UNL     1     -41.007  53.633 -51.045  1.00  0.00    -0.072 N 
HETATM   20  C   UNL     1     -39.970  53.987 -50.022  1.00  0.00     0.269 C 
HETATM   21  H   UNL     1     -41.321  52.673 -50.850  1.00  0.00     0.279 HD
HETATM   22  C   UNL     1     -40.439  53.639 -52.467  1.00  0.00     0.254 C 
HETATM   23  C   UNL     1     -41.535  53.265 -53.490  1.00  0.00     0.150 C 
ENDBRANCH   1  16
TORSDOF 3
ENDMDL
