MODEL 1
REMARK VINA RESULT:      -7.9      0.000      0.000
REMARK  5 active torsions:
REMARK  status: ('A' for Active; 'I' for Inactive)
REMARK    1  A    between atoms: C_4  and  N_5 
REMARK       I    between atoms: N_5  and  C_6 
REMARK       I    between atoms: C_6  and  N_7 
REMARK    2  A    between atoms: N_7  and  C_8 
REMARK    3  A    between atoms: C_10  and  C_11 
REMARK       I    between atoms: C_11  and  N_12 
REMARK    4  A    between atoms: N_12  and  C_13 
REMARK    5  A    between atoms: C_13  and  C_14 
ROOT
HETATM    1  C   UNL     1     -42.395  56.760 -53.057  1.00  0.00     0.078 A 
HETATM    2  S   UNL     1     -43.234  56.703 -54.531  1.00  0.00    -0.067 SA
HETATM    3  C   UNL     1     -42.323  58.004 -55.186  1.00  0.00     0.074 A 
HETATM    4  C   UNL     1     -41.493  58.552 -54.222  1.00  0.00     0.027 A 
HETATM    5  C   UNL     1     -41.537  57.829 -52.984  1.00  0.00     0.039 A 
ENDROOT
BRANCH   1   6
HETATM    6  N   UNL     1     -42.745  55.746 -52.205  1.00  0.00    -0.303 N 
HETATM    7  C   UNL     1     -42.160  54.530 -51.983  1.00  0.00     0.325 C 
HETATM    8  N   UNL     1     -41.233  54.110 -52.900  1.00  0.00    -0.309 N 
HETATM    9  O   UNL     1     -42.574  53.873 -51.029  1.00  0.00    -0.247 OA
HETATM   10  H   UNL     1     -41.105  54.708 -53.699  1.00  0.00     0.170 HD
HETATM   11  H   UNL     1     -43.606  55.870 -51.685  1.00  0.00     0.171 HD
BRANCH   8  12
HETATM   12  C   UNL     1     -40.607  52.849 -52.989  1.00  0.00     0.036 A 
HETATM   13  C   UNL     1     -39.860  52.269 -51.962  1.00  0.00     0.029 A 
HETATM   14  C   UNL     1     -39.318  50.987 -52.115  1.00  0.00     0.002 A 
HETATM   15  C   UNL     1     -39.506  50.282 -53.302  1.00  0.00     0.000 A 
HETATM   16  C   UNL     1     -40.235  50.857 -54.337  1.00  0.00     0.002 A 
HETATM   17  C   UNL     1     -40.784  52.133 -54.181  1.00  0.00     0.029 A 
ENDBRANCH   8  12
ENDBRANCH   1   6
BRANCH   3  18
HETATM   18  C   UNL     1     -42.502  58.336 -56.594  1.00  0.00     0.258 C 
HETATM   19  N   UNL     1     -42.113  57.359 -57.491  1.00  0.00    -0.352 N 
HETATM   20  H   UNL     1     -41.577  56.566 -57.172  1.00  0.00     0.163 HD
HETATM   21  O   UNL     1     -42.979  59.398 -56.987  1.00  0.00    -0.267 OA
BRANCH  19  22
HETATM   22  C   UNL     1     -42.338  57.503 -58.913  1.00  0.00     0.162 C 
BRANCH  22  23
HETATM   23  C   UNL     1     -43.567  56.789 -59.396  1.00  0.00    -0.023 A 
HETATM   24  C   UNL     1     -44.706  57.504 -59.757  1.00  0.00     0.125 A 
HETATM   25  N   UNL     1     -45.834  56.946 -60.254  1.00  0.00    -0.273 NA
HETATM   26  C   UNL     1     -45.826  55.606 -60.416  1.00  0.00     0.116 A 
HETATM   27  C   UNL     1     -44.746  54.801 -60.102  1.00  0.00     0.020 A 
HETATM   28  C   UNL     1     -43.600  55.404 -59.589  1.00  0.00     0.012 A 
ENDBRANCH  22  23
ENDBRANCH  19  22
ENDBRANCH   3  18
TORSDOF 5
ENDMDL
MODEL 2
REMARK VINA RESULT:      -7.8     15.197     18.333
REMARK  5 active torsions:
REMARK  status: ('A' for Active; 'I' for Inactive)
REMARK    1  A    between atoms: C_4  and  N_5 
REMARK       I    between atoms: N_5  and  C_6 
REMARK       I    between atoms: C_6  and  N_7 
REMARK    2  A    between atoms: N_7  and  C_8 
REMARK    3  A    between atoms: C_10  and  C_11 
REMARK       I    between atoms: C_11  and  N_12 
REMARK    4  A    between atoms: N_12  and  C_13 
REMARK    5  A    between atoms: C_13  and  C_14 
ROOT
HETATM    1  C   UNL     1     -35.592  41.934 -57.215  1.00  0.00     0.078 A 
HETATM    2  S   UNL     1     -36.507  42.264 -55.825  1.00  0.00    -0.067 SA
HETATM    3  C   UNL     1     -35.273  41.677 -54.783  1.00  0.00     0.074 A 
HETATM    4  C   UNL     1     -34.245  41.109 -55.517  1.00  0.00     0.027 A 
HETATM    5  C   UNL     1     -34.432  41.258 -56.931  1.00  0.00     0.039 A 
ENDROOT
BRANCH   1   6
HETATM    6  N   UNL     1     -36.188  42.382 -58.365  1.00  0.00    -0.303 N 
HETATM    7  C   UNL     1     -37.032  41.746 -59.234  1.00  0.00     0.325 C 
HETATM    8  N   UNL     1     -37.128  40.384 -59.122  1.00  0.00    -0.309 N 
HETATM    9  O   UNL     1     -37.569  42.434 -60.100  1.00  0.00    -0.247 OA
HETATM   10  H   UNL     1     -36.519  39.956 -58.446  1.00  0.00     0.170 HD
HETATM   11  H   UNL     1     -35.933  43.313 -58.674  1.00  0.00     0.171 HD
BRANCH   8  12
HETATM   12  C   UNL     1     -37.796  39.486 -59.980  1.00  0.00     0.036 A 
HETATM   13  C   UNL     1     -38.960  38.793 -59.642  1.00  0.00     0.029 A 
HETATM   14  C   UNL     1     -39.589  37.963 -60.577  1.00  0.00     0.002 A 
HETATM   15  C   UNL     1     -39.051  37.806 -61.852  1.00  0.00     0.000 A 
HETATM   16  C   UNL     1     -37.882  38.477 -62.195  1.00  0.00     0.002 A 
HETATM   17  C   UNL     1     -37.259  39.316 -61.264  1.00  0.00     0.029 A 
ENDBRANCH   8  12
ENDBRANCH   1   6
BRANCH   3  18
HETATM   18  C   UNL     1     -35.435  41.858 -53.346  1.00  0.00     0.258 C 
HETATM   19  N   UNL     1     -34.343  41.509 -52.575  1.00  0.00    -0.352 N 
HETATM   20  H   UNL     1     -33.578  40.997 -52.986  1.00  0.00     0.163 HD
HETATM   21  O   UNL     1     -36.456  42.305 -52.827  1.00  0.00    -0.267 OA
BRANCH  19  22
HETATM   22  C   UNL     1     -34.318  41.744 -51.146  1.00  0.00     0.162 C 
BRANCH  22  23
HETATM   23  C   UNL     1     -34.012  40.511 -50.346  1.00  0.00    -0.023 A 
HETATM   24  C   UNL     1     -34.982  39.528 -50.161  1.00  0.00     0.125 A 
HETATM   25  N   UNL     1     -34.775  38.363 -49.505  1.00  0.00    -0.273 NA
HETATM   26  C   UNL     1     -33.533  38.155 -49.018  1.00  0.00     0.116 A 
HETATM   27  C   UNL     1     -32.493  39.057 -49.155  1.00  0.00     0.020 A 
HETATM   28  C   UNL     1     -32.738  40.248 -49.834  1.00  0.00     0.012 A 
ENDBRANCH  22  23
ENDBRANCH  19  22
ENDBRANCH   3  18
TORSDOF 5
ENDMDL
MODEL 3
REMARK VINA RESULT:      -7.7      1.518      7.881
REMARK  5 active torsions:
REMARK  status: ('A' for Active; 'I' for Inactive)
REMARK    1  A    between atoms: C_4  and  N_5 
REMARK       I    between atoms: N_5  and  C_6 
REMARK       I    between atoms: C_6  and  N_7 
REMARK    2  A    between atoms: N_7  and  C_8 
REMARK    3  A    between atoms: C_10  and  C_11 
REMARK       I    between atoms: C_11  and  N_12 
REMARK    4  A    between atoms: N_12  and  C_13 
REMARK    5  A    between atoms: C_13  and  C_14 
ROOT
HETATM    1  C   UNL     1     -42.431  57.674 -54.009  1.00  0.00     0.078 A 
HETATM    2  S   UNL     1     -41.326  56.426 -53.695  1.00  0.00    -0.067 SA
HETATM    3  C   UNL     1     -42.271  55.816 -52.395  1.00  0.00     0.074 A 
HETATM    4  C   UNL     1     -43.339  56.658 -52.133  1.00  0.00     0.027 A 
HETATM    5  C   UNL     1     -43.430  57.739 -53.071  1.00  0.00     0.039 A 
ENDROOT
BRANCH   1   6
HETATM    6  N   UNL     1     -42.111  58.401 -55.126  1.00  0.00    -0.303 N 
HETATM    7  C   UNL     1     -42.611  58.344 -56.398  1.00  0.00     0.325 C 
HETATM    8  N   UNL     1     -43.366  57.247 -56.719  1.00  0.00    -0.309 N 
HETATM    9  O   UNL     1     -42.272  59.234 -57.175  1.00  0.00    -0.247 OA
HETATM   10  H   UNL     1     -43.439  56.541 -56.007  1.00  0.00     0.170 HD
HETATM   11  H   UNL     1     -41.341  59.054 -55.034  1.00  0.00     0.171 HD
BRANCH   8  12
HETATM   12  C   UNL     1     -43.862  56.874 -57.986  1.00  0.00     0.036 A 
HETATM   13  C   UNL     1     -44.962  57.470 -58.606  1.00  0.00     0.029 A 
HETATM   14  C   UNL     1     -45.352  57.074 -59.891  1.00  0.00     0.002 A 
HETATM   15  C   UNL     1     -44.657  56.069 -60.559  1.00  0.00     0.000 A 
HETATM   16  C   UNL     1     -43.570  55.457 -59.944  1.00  0.00     0.002 A 
HETATM   17  C   UNL     1     -43.173  55.860 -58.665  1.00  0.00     0.029 A 
ENDBRANCH   8  12
ENDBRANCH   1   6
BRANCH   3  18
HETATM   18  C   UNL     1     -41.875  54.554 -51.782  1.00  0.00     0.258 C 
HETATM   19  N   UNL     1     -40.532  54.246 -51.869  1.00  0.00    -0.352 N 
HETATM   20  H   UNL     1     -39.929  54.780 -52.477  1.00  0.00     0.163 HD
HETATM   21  O   UNL     1     -42.658  53.803 -51.206  1.00  0.00    -0.267 OA
BRANCH  19  22
HETATM   22  C   UNL     1     -39.977  53.084 -51.207  1.00  0.00     0.162 C 
BRANCH  22  23
HETATM   23  C   UNL     1     -39.831  51.896 -52.113  1.00  0.00    -0.023 A 
HETATM   24  C   UNL     1     -39.585  50.631 -51.586  1.00  0.00     0.125 A 
HETATM   25  N   UNL     1     -39.496  49.499 -52.323  1.00  0.00    -0.273 NA
HETATM   26  C   UNL     1     -39.677  49.629 -53.655  1.00  0.00     0.116 A 
HETATM   27  C   UNL     1     -39.939  50.834 -54.281  1.00  0.00     0.020 A 
HETATM   28  C   UNL     1     -40.021  51.982 -53.496  1.00  0.00     0.012 A 
ENDBRANCH  22  23
ENDBRANCH  19  22
ENDBRANCH   3  18
TORSDOF 5
ENDMDL
MODEL 4
REMARK VINA RESULT:      -7.6      1.785      2.476
REMARK  5 active torsions:
REMARK  status: ('A' for Active; 'I' for Inactive)
REMARK    1  A    between atoms: C_4  and  N_5 
REMARK       I    between atoms: N_5  and  C_6 
REMARK       I    between atoms: C_6  and  N_7 
REMARK    2  A    between atoms: N_7  and  C_8 
REMARK    3  A    between atoms: C_10  and  C_11 
REMARK       I    between atoms: C_11  and  N_12 
REMARK    4  A    between atoms: N_12  and  C_13 
REMARK    5  A    between atoms: C_13  and  C_14 
ROOT
HETATM    1  C   UNL     1     -41.936  57.553 -51.233  1.00  0.00     0.078 A 
HETATM    2  S   UNL     1     -42.838  57.788 -52.651  1.00  0.00    -0.067 SA
HETATM    3  C   UNL     1     -41.927  59.177 -53.089  1.00  0.00     0.074 A 
HETATM    4  C   UNL     1     -41.045  59.521 -52.078  1.00  0.00     0.027 A 
HETATM    5  C   UNL     1     -41.053  58.577 -50.998  1.00  0.00     0.039 A 
ENDROOT
BRANCH   1   6
HETATM    6  N   UNL     1     -42.272  56.400 -50.573  1.00  0.00    -0.303 N 
HETATM    7  C   UNL     1     -41.821  55.119 -50.737  1.00  0.00     0.325 C 
HETATM    8  N   UNL     1     -41.118  54.849 -51.881  1.00  0.00    -0.309 N 
HETATM    9  O   UNL     1     -42.157  54.293 -49.889  1.00  0.00    -0.247 OA
HETATM   10  H   UNL     1     -41.044  55.606 -52.539  1.00  0.00     0.170 HD
HETATM   11  H   UNL     1     -43.014  56.472 -49.886  1.00  0.00     0.171 HD
BRANCH   8  12
HETATM   12  C   UNL     1     -40.683  53.595 -52.358  1.00  0.00     0.036 A 
HETATM   13  C   UNL     1     -41.005  53.078 -53.614  1.00  0.00     0.029 A 
HETATM   14  C   UNL     1     -40.483  51.847 -54.029  1.00  0.00     0.002 A 
HETATM   15  C   UNL     1     -39.649  51.116 -53.186  1.00  0.00     0.000 A 
HETATM   16  C   UNL     1     -39.335  51.614 -51.926  1.00  0.00     0.002 A 
HETATM   17  C   UNL     1     -39.848  52.849 -51.515  1.00  0.00     0.029 A 
ENDBRANCH   8  12
ENDBRANCH   1   6
BRANCH   3  18
HETATM   18  C   UNL     1     -42.158  59.773 -54.399  1.00  0.00     0.258 C 
HETATM   19  N   UNL     1     -41.919  58.947 -55.480  1.00  0.00    -0.352 N 
HETATM   20  H   UNL     1     -41.444  58.067 -55.348  1.00  0.00     0.163 HD
HETATM   21  O   UNL     1     -42.554  60.925 -54.563  1.00  0.00    -0.267 OA
BRANCH  19  22
HETATM   22  C   UNL     1     -42.216  59.365 -56.834  1.00  0.00     0.162 C 
BRANCH  22  23
HETATM   23  C   UNL     1     -42.341  58.220 -57.797  1.00  0.00    -0.023 A 
HETATM   24  C   UNL     1     -42.993  57.048 -57.422  1.00  0.00     0.125 A 
HETATM   25  N   UNL     1     -43.200  55.992 -58.242  1.00  0.00    -0.273 NA
HETATM   26  C   UNL     1     -42.748  56.111 -59.508  1.00  0.00     0.116 A 
HETATM   27  C   UNL     1     -42.099  57.233 -59.989  1.00  0.00     0.020 A 
HETATM   28  C   UNL     1     -41.898  58.303 -59.121  1.00  0.00     0.012 A 
ENDBRANCH  22  23
ENDBRANCH  19  22
ENDBRANCH   3  18
TORSDOF 5
ENDMDL
MODEL 5
REMARK VINA RESULT:      -7.3      2.878      8.866
REMARK  5 active torsions:
REMARK  status: ('A' for Active; 'I' for Inactive)
REMARK    1  A    between atoms: C_4  and  N_5 
REMARK       I    between atoms: N_5  and  C_6 
REMARK       I    between atoms: C_6  and  N_7 
REMARK    2  A    between atoms: N_7  and  C_8 
REMARK    3  A    between atoms: C_10  and  C_11 
REMARK       I    between atoms: C_11  and  N_12 
REMARK    4  A    between atoms: N_12  and  C_13 
REMARK    5  A    between atoms: C_13  and  C_14 
ROOT
HETATM    1  C   UNL     1     -43.830  57.307 -57.341  1.00  0.00     0.078 A 
HETATM    2  S   UNL     1     -43.816  57.282 -55.644  1.00  0.00    -0.067 SA
HETATM    3  C   UNL     1     -42.854  55.858 -55.599  1.00  0.00     0.074 A 
HETATM    4  C   UNL     1     -42.680  55.347 -56.875  1.00  0.00     0.027 A 
HETATM    5  C   UNL     1     -43.248  56.189 -57.886  1.00  0.00     0.039 A 
ENDROOT
BRANCH   1   6
HETATM    6  N   UNL     1     -44.437  58.423 -57.853  1.00  0.00    -0.303 N 
HETATM    7  C   UNL     1     -43.925  59.456 -58.588  1.00  0.00     0.325 C 
HETATM    8  N   UNL     1     -42.560  59.568 -58.634  1.00  0.00    -0.309 N 
HETATM    9  O   UNL     1     -44.727  60.250 -59.076  1.00  0.00    -0.247 OA
HETATM   10  H   UNL     1     -42.047  58.914 -58.068  1.00  0.00     0.170 HD
HETATM   11  H   UNL     1     -45.413  58.557 -57.612  1.00  0.00     0.171 HD
BRANCH   8  12
HETATM   12  C   UNL     1     -41.792  60.616 -59.184  1.00  0.00     0.036 A 
HETATM   13  C   UNL     1     -41.759  60.937 -60.543  1.00  0.00     0.029 A 
HETATM   14  C   UNL     1     -41.011  62.030 -60.995  1.00  0.00     0.002 A 
HETATM   15  C   UNL     1     -40.277  62.801 -60.097  1.00  0.00     0.000 A 
HETATM   16  C   UNL     1     -40.290  62.480 -58.743  1.00  0.00     0.002 A 
HETATM   17  C   UNL     1     -41.045  61.395 -58.289  1.00  0.00     0.029 A 
ENDBRANCH   8  12
ENDBRANCH   1   6
BRANCH   3  18
HETATM   18  C   UNL     1     -42.349  55.403 -54.309  1.00  0.00     0.258 C 
HETATM   19  N   UNL     1     -41.294  54.513 -54.363  1.00  0.00    -0.352 N 
HETATM   20  H   UNL     1     -41.038  54.087 -55.241  1.00  0.00     0.163 HD
HETATM   21  O   UNL     1     -42.800  55.781 -53.230  1.00  0.00    -0.267 OA
BRANCH  19  22
HETATM   22  C   UNL     1     -40.617  54.068 -53.164  1.00  0.00     0.162 C 
BRANCH  22  23
HETATM   23  C   UNL     1     -40.240  52.615 -53.199  1.00  0.00    -0.023 A 
HETATM   24  C   UNL     1     -39.851  51.956 -52.036  1.00  0.00     0.125 A 
HETATM   25  N   UNL     1     -39.551  50.639 -51.966  1.00  0.00    -0.273 NA
HETATM   26  C   UNL     1     -39.656  49.933 -53.112  1.00  0.00     0.116 A 
HETATM   27  C   UNL     1     -40.045  50.483 -54.320  1.00  0.00     0.020 A 
HETATM   28  C   UNL     1     -40.345  51.842 -54.360  1.00  0.00     0.012 A 
ENDBRANCH  22  23
ENDBRANCH  19  22
ENDBRANCH   3  18
TORSDOF 5
ENDMDL
MODEL 6
REMARK VINA RESULT:      -7.3      4.442      7.147
REMARK  5 active torsions:
REMARK  status: ('A' for Active; 'I' for Inactive)
REMARK    1  A    between atoms: C_4  and  N_5 
REMARK       I    between atoms: N_5  and  C_6 
REMARK       I    between atoms: C_6  and  N_7 
REMARK    2  A    between atoms: N_7  and  C_8 
REMARK    3  A    between atoms: C_10  and  C_11 
REMARK       I    between atoms: C_11  and  N_12 
REMARK    4  A    between atoms: N_12  and  C_13 
REMARK    5  A    between atoms: C_13  and  C_14 
ROOT
HETATM    1  C   UNL     1     -41.248  56.500 -53.128  1.00  0.00     0.078 A 
HETATM    2  S   UNL     1     -41.112  58.188 -53.227  1.00  0.00    -0.067 SA
HETATM    3  C   UNL     1     -41.911  58.415 -51.722  1.00  0.00     0.074 A 
HETATM    4  C   UNL     1     -42.393  57.209 -51.240  1.00  0.00     0.027 A 
HETATM    5  C   UNL     1     -42.008  56.097 -52.059  1.00  0.00     0.039 A 
ENDROOT
BRANCH   1   6
HETATM    6  N   UNL     1     -40.595  55.852 -54.144  1.00  0.00    -0.303 N 
HETATM    7  C   UNL     1     -40.373  54.518 -54.350  1.00  0.00     0.325 C 
HETATM    8  N   UNL     1     -40.595  53.681 -53.289  1.00  0.00    -0.309 N 
HETATM    9  O   UNL     1     -39.910  54.188 -55.440  1.00  0.00    -0.247 OA
HETATM   10  H   UNL     1     -40.844  54.127 -52.423  1.00  0.00     0.170 HD
HETATM   11  H   UNL     1     -40.146  56.438 -54.838  1.00  0.00     0.171 HD
BRANCH   8  12
HETATM   12  C   UNL     1     -40.298  52.305 -53.191  1.00  0.00     0.036 A 
HETATM   13  C   UNL     1     -40.405  51.401 -54.249  1.00  0.00     0.029 A 
HETATM   14  C   UNL     1     -40.037  50.061 -54.076  1.00  0.00     0.002 A 
HETATM   15  C   UNL     1     -39.574  49.612 -52.842  1.00  0.00     0.000 A 
HETATM   16  C   UNL     1     -39.481  50.501 -51.776  1.00  0.00     0.002 A 
HETATM   17  C   UNL     1     -39.838  51.841 -51.950  1.00  0.00     0.029 A 
ENDBRANCH   8  12
ENDBRANCH   1   6
BRANCH   3  18
HETATM   18  C   UNL     1     -41.960  59.758 -51.158  1.00  0.00     0.258 C 
HETATM   19  N   UNL     1     -43.032  60.533 -51.557  1.00  0.00    -0.352 N 
HETATM   20  H   UNL     1     -43.615  60.232 -52.323  1.00  0.00     0.163 HD
HETATM   21  O   UNL     1     -41.128  60.195 -50.367  1.00  0.00    -0.267 OA
BRANCH  19  22
HETATM   22  C   UNL     1     -43.273  61.844 -50.991  1.00  0.00     0.162 C 
BRANCH  22  23
HETATM   23  C   UNL     1     -44.242  61.827 -49.845  1.00  0.00    -0.023 A 
HETATM   24  C   UNL     1     -45.125  60.764 -49.680  1.00  0.00     0.125 A 
HETATM   25  N   UNL     1     -45.991  60.641 -48.647  1.00  0.00    -0.273 NA
HETATM   26  C   UNL     1     -45.968  61.621 -47.719  1.00  0.00     0.116 A 
HETATM   27  C   UNL     1     -45.124  62.715 -47.778  1.00  0.00     0.020 A 
HETATM   28  C   UNL     1     -44.247  62.815 -48.854  1.00  0.00     0.012 A 
ENDBRANCH  22  23
ENDBRANCH  19  22
ENDBRANCH   3  18
TORSDOF 5
ENDMDL
MODEL 7
REMARK VINA RESULT:      -7.2      2.638      9.206
REMARK  5 active torsions:
REMARK  status: ('A' for Active; 'I' for Inactive)
REMARK    1  A    between atoms: C_4  and  N_5 
REMARK       I    between atoms: N_5  and  C_6 
REMARK       I    between atoms: C_6  and  N_7 
REMARK    2  A    between atoms: N_7  and  C_8 
REMARK    3  A    between atoms: C_10  and  C_11 
REMARK       I    between atoms: C_11  and  N_12 
REMARK    4  A    between atoms: N_12  and  C_13 
REMARK    5  A    between atoms: C_13  and  C_14 
ROOT
HETATM    1  C   UNL     1     -42.914  55.498 -57.141  1.00  0.00     0.078 A 
HETATM    2  S   UNL     1     -42.697  56.799 -56.073  1.00  0.00    -0.067 SA
HETATM    3  C   UNL     1     -42.954  55.807 -54.694  1.00  0.00     0.074 A 
HETATM    4  C   UNL     1     -43.340  54.532 -55.076  1.00  0.00     0.027 A 
HETATM    5  C   UNL     1     -43.319  54.355 -56.498  1.00  0.00     0.039 A 
ENDROOT
BRANCH   1   6
HETATM    6  N   UNL     1     -42.669  55.834 -58.447  1.00  0.00    -0.303 N 
HETATM    7  C   UNL     1     -43.472  56.438 -59.375  1.00  0.00     0.325 C 
HETATM    8  N   UNL     1     -44.809  56.512 -59.085  1.00  0.00    -0.309 N 
HETATM    9  O   UNL     1     -42.946  56.787 -60.430  1.00  0.00    -0.247 OA
HETATM   10  H   UNL     1     -45.099  56.057 -58.236  1.00  0.00     0.170 HD
HETATM   11  H   UNL     1     -41.775  55.545 -58.827  1.00  0.00     0.171 HD
BRANCH   8  12
HETATM   12  C   UNL     1     -45.858  56.939 -59.926  1.00  0.00     0.036 A 
HETATM   13  C   UNL     1     -46.665  56.080 -60.674  1.00  0.00     0.029 A 
HETATM   14  C   UNL     1     -47.721  56.587 -61.441  1.00  0.00     0.002 A 
HETATM   15  C   UNL     1     -47.969  57.957 -61.477  1.00  0.00     0.000 A 
HETATM   16  C   UNL     1     -47.161  58.823 -60.749  1.00  0.00     0.002 A 
HETATM   17  C   UNL     1     -46.112  58.317 -59.975  1.00  0.00     0.029 A 
ENDBRANCH   8  12
ENDBRANCH   1   6
BRANCH   3  18
HETATM   18  C   UNL     1     -42.724  56.381 -53.374  1.00  0.00     0.258 C 
HETATM   19  N   UNL     1     -41.739  55.769 -52.622  1.00  0.00    -0.352 N 
HETATM   20  H   UNL     1     -41.358  54.883 -52.915  1.00  0.00     0.163 HD
HETATM   21  O   UNL     1     -43.336  57.353 -52.939  1.00  0.00    -0.267 OA
BRANCH  19  22
HETATM   22  C   UNL     1     -41.323  56.301 -51.341  1.00  0.00     0.162 C 
BRANCH  22  23
HETATM   23  C   UNL     1     -40.958  55.239 -50.346  1.00  0.00    -0.023 A 
HETATM   24  C   UNL     1     -41.075  55.479 -48.979  1.00  0.00     0.125 A 
HETATM   25  N   UNL     1     -40.823  54.562 -48.017  1.00  0.00    -0.273 NA
HETATM   26  C   UNL     1     -40.449  53.334 -48.434  1.00  0.00     0.116 A 
HETATM   27  C   UNL     1     -40.314  52.983 -49.765  1.00  0.00     0.020 A 
HETATM   28  C   UNL     1     -40.578  53.950 -50.733  1.00  0.00     0.012 A 
ENDBRANCH  22  23
ENDBRANCH  19  22
ENDBRANCH   3  18
TORSDOF 5
ENDMDL
MODEL 8
REMARK VINA RESULT:      -7.2      1.681      7.788
REMARK  5 active torsions:
REMARK  status: ('A' for Active; 'I' for Inactive)
REMARK    1  A    between atoms: C_4  and  N_5 
REMARK       I    between atoms: N_5  and  C_6 
REMARK       I    between atoms: C_6  and  N_7 
REMARK    2  A    between atoms: N_7  and  C_8 
REMARK    3  A    between atoms: C_10  and  C_11 
REMARK       I    between atoms: C_11  and  N_12 
REMARK    4  A    between atoms: N_12  and  C_13 
REMARK    5  A    between atoms: C_13  and  C_14 
ROOT
HETATM    1  C   UNL     1     -43.625  58.589 -54.906  1.00  0.00     0.078 A 
HETATM    2  S   UNL     1     -42.127  58.142 -54.245  1.00  0.00    -0.067 SA
HETATM    3  C   UNL     1     -42.868  57.368 -52.901  1.00  0.00     0.074 A 
HETATM    4  C   UNL     1     -44.236  57.586 -52.907  1.00  0.00     0.027 A 
HETATM    5  C   UNL     1     -44.675  58.297 -54.072  1.00  0.00     0.039 A 
ENDROOT
BRANCH   1   6
HETATM    6  N   UNL     1     -43.509  59.178 -56.138  1.00  0.00    -0.303 N 
HETATM    7  C   UNL     1     -43.946  58.764 -57.367  1.00  0.00     0.325 C 
HETATM    8  N   UNL     1     -44.341  57.457 -57.476  1.00  0.00    -0.309 N 
HETATM    9  O   UNL     1     -43.867  59.569 -58.292  1.00  0.00    -0.247 OA
HETATM   10  H   UNL     1     -44.218  56.891 -56.654  1.00  0.00     0.170 HD
HETATM   11  H   UNL     1     -42.966  60.033 -56.181  1.00  0.00     0.171 HD
BRANCH   8  12
HETATM   12  C   UNL     1     -44.681  56.747 -58.647  1.00  0.00     0.036 A 
HETATM   13  C   UNL     1     -43.886  55.756 -59.225  1.00  0.00     0.029 A 
HETATM   14  C   UNL     1     -44.328  55.063 -60.358  1.00  0.00     0.002 A 
HETATM   15  C   UNL     1     -45.560  55.366 -60.932  1.00  0.00     0.000 A 
HETATM   16  C   UNL     1     -46.353  56.363 -60.375  1.00  0.00     0.002 A 
HETATM   17  C   UNL     1     -45.917  57.049 -59.236  1.00  0.00     0.029 A 
ENDBRANCH   8  12
ENDBRANCH   1   6
BRANCH   3  18
HETATM   18  C   UNL     1     -42.025  56.602 -51.991  1.00  0.00     0.258 C 
HETATM   19  N   UNL     1     -42.149  55.229 -52.078  1.00  0.00    -0.352 N 
HETATM   20  H   UNL     1     -42.906  54.823 -52.607  1.00  0.00     0.163 HD
HETATM   21  O   UNL     1     -41.236  57.115 -51.201  1.00  0.00    -0.267 OA
BRANCH  19  22
HETATM   22  C   UNL     1     -41.293  54.341 -51.319  1.00  0.00     0.162 C 
BRANCH  22  23
HETATM   23  C   UNL     1     -40.652  53.273 -52.157  1.00  0.00    -0.023 A 
HETATM   24  C   UNL     1     -39.913  52.255 -51.561  1.00  0.00     0.125 A 
HETATM   25  N   UNL     1     -39.350  51.224 -52.233  1.00  0.00    -0.273 NA
HETATM   26  C   UNL     1     -39.544  51.194 -53.568  1.00  0.00     0.116 A 
HETATM   27  C   UNL     1     -40.271  52.146 -54.260  1.00  0.00     0.020 A 
HETATM   28  C   UNL     1     -40.835  53.197 -53.541  1.00  0.00     0.012 A 
ENDBRANCH  22  23
ENDBRANCH  19  22
ENDBRANCH   3  18
TORSDOF 5
ENDMDL
MODEL 9
REMARK VINA RESULT:      -7.1      5.224      9.352
REMARK  5 active torsions:
REMARK  status: ('A' for Active; 'I' for Inactive)
REMARK    1  A    between atoms: C_4  and  N_5 
REMARK       I    between atoms: N_5  and  C_6 
REMARK       I    between atoms: C_6  and  N_7 
REMARK    2  A    between atoms: N_7  and  C_8 
REMARK    3  A    between atoms: C_10  and  C_11 
REMARK       I    between atoms: C_11  and  N_12 
REMARK    4  A    between atoms: N_12  and  C_13 
REMARK    5  A    between atoms: C_13  and  C_14 
ROOT
HETATM    1  C   UNL     1     -43.257  57.949 -51.322  1.00  0.00     0.078 A 
HETATM    2  S   UNL     1     -41.838  57.315 -50.642  1.00  0.00    -0.067 SA
HETATM    3  C   UNL     1     -42.492  55.727 -50.572  1.00  0.00     0.074 A 
HETATM    4  C   UNL     1     -43.829  55.735 -50.936  1.00  0.00     0.027 A 
HETATM    5  C   UNL     1     -44.273  57.027 -51.370  1.00  0.00     0.039 A 
ENDROOT
BRANCH   1   6
HETATM    6  N   UNL     1     -43.136  59.267 -51.675  1.00  0.00    -0.303 N 
HETATM    7  C   UNL     1     -43.527  60.403 -51.020  1.00  0.00     0.325 C 
HETATM    8  N   UNL     1     -44.395  60.247 -49.972  1.00  0.00    -0.309 N 
HETATM    9  O   UNL     1     -43.139  61.477 -51.476  1.00  0.00    -0.247 OA
HETATM   10  H   UNL     1     -44.724  59.310 -49.810  1.00  0.00     0.170 HD
HETATM   11  H   UNL     1     -42.749  59.456 -52.593  1.00  0.00     0.171 HD
BRANCH   8  12
HETATM   12  C   UNL     1     -45.063  61.251 -49.240  1.00  0.00     0.036 A 
HETATM   13  C   UNL     1     -46.094  62.042 -49.750  1.00  0.00     0.029 A 
HETATM   14  C   UNL     1     -46.740  62.979 -48.934  1.00  0.00     0.002 A 
HETATM   15  C   UNL     1     -46.349  63.144 -47.608  1.00  0.00     0.000 A 
HETATM   16  C   UNL     1     -45.312  62.373 -47.094  1.00  0.00     0.002 A 
HETATM   17  C   UNL     1     -44.673  61.430 -47.905  1.00  0.00     0.029 A 
ENDBRANCH   8  12
ENDBRANCH   1   6
BRANCH   3  18
HETATM   18  C   UNL     1     -41.612  54.630 -50.189  1.00  0.00     0.258 C 
HETATM   19  N   UNL     1     -40.906  54.044 -51.221  1.00  0.00    -0.352 N 
HETATM   20  H   UNL     1     -41.143  54.256 -52.179  1.00  0.00     0.163 HD
HETATM   21  O   UNL     1     -41.473  54.242 -49.031  1.00  0.00    -0.267 OA
BRANCH  19  22
HETATM   22  C   UNL     1     -39.910  53.023 -50.975  1.00  0.00     0.162 C 
BRANCH  22  23
HETATM   23  C   UNL     1     -39.918  51.924 -51.998  1.00  0.00    -0.023 A 
HETATM   24  C   UNL     1     -40.173  52.206 -53.338  1.00  0.00     0.125 A 
HETATM   25  N   UNL     1     -40.144  51.289 -54.332  1.00  0.00    -0.273 NA
HETATM   26  C   UNL     1     -39.830  50.024 -53.979  1.00  0.00     0.116 A 
HETATM   27  C   UNL     1     -39.547  49.636 -52.682  1.00  0.00     0.020 A 
HETATM   28  C   UNL     1     -39.588  50.603 -51.680  1.00  0.00     0.012 A 
ENDBRANCH  22  23
ENDBRANCH  19  22
ENDBRANCH   3  18
TORSDOF 5
ENDMDL
MODEL 10
REMARK VINA RESULT:      -7.0     15.228     19.047
REMARK  5 active torsions:
REMARK  status: ('A' for Active; 'I' for Inactive)
REMARK    1  A    between atoms: C_4  and  N_5 
REMARK       I    between atoms: N_5  and  C_6 
REMARK       I    between atoms: C_6  and  N_7 
REMARK    2  A    between atoms: N_7  and  C_8 
REMARK    3  A    between atoms: C_10  and  C_11 
REMARK       I    between atoms: C_11  and  N_12 
REMARK    4  A    between atoms: N_12  and  C_13 
REMARK    5  A    between atoms: C_13  and  C_14 
ROOT
HETATM    1  C   UNL     1     -35.754  42.070 -56.816  1.00  0.00     0.078 A 
HETATM    2  S   UNL     1     -34.140  41.547 -56.774  1.00  0.00    -0.067 SA
HETATM    3  C   UNL     1     -34.262  41.066 -55.128  1.00  0.00     0.074 A 
HETATM    4  C   UNL     1     -35.485  41.442 -54.600  1.00  0.00     0.027 A 
HETATM    5  C   UNL     1     -36.352  42.027 -55.581  1.00  0.00     0.039 A 
ENDROOT
BRANCH   1   6
HETATM    6  N   UNL     1     -36.155  42.460 -58.067  1.00  0.00    -0.303 N 
HETATM    7  C   UNL     1     -36.911  41.807 -59.002  1.00  0.00     0.325 C 
HETATM    8  N   UNL     1     -37.112  40.465 -58.811  1.00  0.00    -0.309 N 
HETATM    9  O   UNL     1     -37.277  42.455 -59.981  1.00  0.00    -0.247 OA
HETATM   10  H   UNL     1     -36.631  40.057 -58.028  1.00  0.00     0.170 HD
HETATM   11  H   UNL     1     -35.799  43.348 -58.399  1.00  0.00     0.171 HD
BRANCH   8  12
HETATM   12  C   UNL     1     -37.713  39.543 -59.693  1.00  0.00     0.036 A 
HETATM   13  C   UNL     1     -38.951  38.937 -59.473  1.00  0.00     0.029 A 
HETATM   14  C   UNL     1     -39.499  38.074 -60.429  1.00  0.00     0.002 A 
HETATM   15  C   UNL     1     -38.807  37.797 -61.606  1.00  0.00     0.000 A 
HETATM   16  C   UNL     1     -37.564  38.382 -61.828  1.00  0.00     0.002 A 
HETATM   17  C   UNL     1     -37.021  39.252 -60.878  1.00  0.00     0.029 A 
ENDBRANCH   8  12
ENDBRANCH   1   6
BRANCH   3  18
HETATM   18  C   UNL     1     -33.144  40.343 -54.533  1.00  0.00     0.258 C 
HETATM   19  N   UNL     1     -33.482  39.417 -53.565  1.00  0.00    -0.352 N 
HETATM   20  H   UNL     1     -34.417  39.399 -53.189  1.00  0.00     0.163 HD
HETATM   21  O   UNL     1     -31.972  40.512 -54.862  1.00  0.00    -0.267 OA
BRANCH  19  22
HETATM   22  C   UNL     1     -32.490  38.546 -52.971  1.00  0.00     0.162 C 
BRANCH  22  23
HETATM   23  C   UNL     1     -32.392  38.685 -51.480  1.00  0.00    -0.023 A 
HETATM   24  C   UNL     1     -32.394  37.558 -50.662  1.00  0.00     0.125 A 
HETATM   25  N   UNL     1     -32.253  37.589 -49.317  1.00  0.00    -0.273 NA
HETATM   26  C   UNL     1     -32.086  38.804 -48.753  1.00  0.00     0.116 A 
HETATM   27  C   UNL     1     -32.056  39.986 -49.471  1.00  0.00     0.020 A 
HETATM   28  C   UNL     1     -32.206  39.922 -50.854  1.00  0.00     0.012 A 
ENDBRANCH  22  23
ENDBRANCH  19  22
ENDBRANCH   3  18
TORSDOF 5
ENDMDL
