MODEL 1
REMARK VINA RESULT:      -8.1      0.000      0.000
REMARK  7 active torsions:
REMARK  status: ('A' for Active; 'I' for Inactive)
REMARK    1  A    between atoms: C_3  and  N_4 
REMARK       I    between atoms: N_4  and  C_5 
REMARK    2  A    between atoms: C_5  and  C_6 
REMARK    3  A    between atoms: C_7  and  C_8 
REMARK    4  A    between atoms: C_19  and  C_20 
REMARK    5  A    between atoms: C_20  and  C_21 
REMARK    6  A    between atoms: C_21  and  C_22 
REMARK    7  A    between atoms: C_22  and  O_23 
ROOT
HETATM    1  C   UNL     1     -42.124  55.477 -54.253  1.00  0.00     0.062 A 
HETATM    2  C   UNL     1     -42.063  56.537 -53.156  1.00  0.00     0.202 A 
HETATM    3  N   UNL     1     -43.272  57.370 -53.138  1.00  0.00    -0.083 N 
HETATM    4  C   UNL     1     -44.305  57.237 -54.025  1.00  0.00     0.726 A 
HETATM    5  N   UNL     1     -44.246  56.282 -54.969  1.00  0.00    -0.192 N 
HETATM    6  N   UNL     1     -43.447  58.445 -52.340  1.00  0.00    -0.140 NA
HETATM    7  C   UNL     1     -44.661  58.854 -52.734  1.00  0.00     0.166 A 
HETATM    8  N   UNL     1     -45.213  58.146 -53.776  1.00  0.00    -0.046 NA
HETATM    9  C   UNL     1     -43.186  55.391 -55.094  1.00  0.00     0.037 A 
HETATM   10  C   UNL     1     -43.312  54.380 -56.209  1.00  0.00     0.070 C 
HETATM   11  H   UNL     1     -45.029  56.176 -55.608  1.00  0.00     0.184 HD
ENDROOT
BRANCH   1  12
HETATM   12  C   UNL     1     -41.040  54.453 -54.276  1.00  0.00     0.256 C 
HETATM   13  N   UNL     1     -41.303  53.362 -53.480  1.00  0.00    -0.323 N 
HETATM   14  H   UNL     1     -41.967  53.508 -52.732  1.00  0.00     0.169 HD
HETATM   15  O   UNL     1     -40.030  54.658 -54.936  1.00  0.00    -0.267 OA
BRANCH  13  16
HETATM   16  C   UNL     1     -40.603  52.132 -53.424  1.00  0.00     0.041 A 
HETATM   17  C   UNL     1     -39.810  51.665 -52.360  1.00  0.00    -0.035 A 
HETATM   18  C   UNL     1     -39.494  52.437 -51.107  1.00  0.00     0.050 C 
HETATM   19  C   UNL     1     -39.216  50.389 -52.463  1.00  0.00     0.009 A 
HETATM   20  C   UNL     1     -39.344  49.616 -53.615  1.00  0.00     0.001 A 
HETATM   21  C   UNL     1     -40.070  50.106 -54.690  1.00  0.00     0.002 A 
HETATM   22  C   UNL     1     -40.689  51.354 -54.594  1.00  0.00     0.030 A 
ENDBRANCH  13  16
ENDBRANCH   1  12
BRANCH   2  23
HETATM   23  C   UNL     1     -41.788  55.969 -51.766  1.00  0.00    -0.028 A 
HETATM   24  C   UNL     1     -40.599  56.313 -51.096  1.00  0.00     0.011 A 
HETATM   25  C   UNL     1     -40.312  55.781 -49.838  1.00  0.00     0.024 A 
HETATM   26  C   UNL     1     -41.210  54.905 -49.236  1.00  0.00     0.034 A 
HETATM   27 CL   UNL     1     -40.850  54.244 -47.689  1.00  0.00    -0.084 Cl
HETATM   28  C   UNL     1     -42.397  54.560 -49.878  1.00  0.00     0.024 A 
HETATM   29  C   UNL     1     -42.688  55.092 -51.138  1.00  0.00     0.011 A 
ENDBRANCH   2  23
BRANCH   7  30
HETATM   30  C   UNL     1     -45.359  60.013 -52.122  1.00  0.00     0.085 C 
BRANCH  30  31
HETATM   31  C   UNL     1     -44.618  60.602 -50.925  1.00  0.00     0.034 C 
BRANCH  31  32
HETATM   32  C   UNL     1     -45.402  60.493 -49.622  1.00  0.00     0.164 C 
BRANCH  32  33
HETATM   33  O   UNL     1     -45.836  59.149 -49.438  1.00  0.00    -0.401 OA
HETATM   34  H   UNL     1     -45.939  58.751 -50.320  1.00  0.00     0.209 HD
ENDBRANCH  32  33
ENDBRANCH  31  32
ENDBRANCH  30  31
ENDBRANCH   7  30
TORSDOF 7
ENDMDL
MODEL 2
REMARK VINA RESULT:      -7.8      2.748      4.483
REMARK  7 active torsions:
REMARK  status: ('A' for Active; 'I' for Inactive)
REMARK    1  A    between atoms: C_3  and  N_4 
REMARK       I    between atoms: N_4  and  C_5 
REMARK    2  A    between atoms: C_5  and  C_6 
REMARK    3  A    between atoms: C_7  and  C_8 
REMARK    4  A    between atoms: C_19  and  C_20 
REMARK    5  A    between atoms: C_20  and  C_21 
REMARK    6  A    between atoms: C_21  and  C_22 
REMARK    7  A    between atoms: C_22  and  O_23 
ROOT
HETATM    1  C   UNL     1     -42.245  56.323 -51.295  1.00  0.00     0.062 A 
HETATM    2  C   UNL     1     -43.181  57.344 -51.939  1.00  0.00     0.202 A 
HETATM    3  N   UNL     1     -42.933  58.700 -51.434  1.00  0.00    -0.083 N 
HETATM    4  C   UNL     1     -42.006  59.002 -50.474  1.00  0.00     0.726 A 
HETATM    5  N   UNL     1     -41.248  58.019 -49.957  1.00  0.00    -0.192 N 
HETATM    6  N   UNL     1     -43.676  59.781 -51.754  1.00  0.00    -0.140 NA
HETATM    7  C   UNL     1     -43.071  60.727 -51.020  1.00  0.00     0.166 A 
HETATM    8  N   UNL     1     -42.051  60.282 -50.212  1.00  0.00    -0.046 NA
HETATM    9  C   UNL     1     -41.337  56.690 -50.356  1.00  0.00     0.037 A 
HETATM   10  C   UNL     1     -40.390  55.738 -49.667  1.00  0.00     0.070 C 
HETATM   11  H   UNL     1     -40.547  58.257 -49.262  1.00  0.00     0.184 HD
ENDROOT
BRANCH   1  12
HETATM   12  C   UNL     1     -42.271  54.934 -51.839  1.00  0.00     0.256 C 
HETATM   13  N   UNL     1     -41.091  54.562 -52.440  1.00  0.00    -0.323 N 
HETATM   14  H   UNL     1     -40.499  55.316 -52.762  1.00  0.00     0.169 HD
HETATM   15  O   UNL     1     -43.295  54.270 -51.750  1.00  0.00    -0.267 OA
BRANCH  13  16
HETATM   16  C   UNL     1     -40.698  53.271 -52.871  1.00  0.00     0.041 A 
HETATM   17  C   UNL     1     -41.025  52.660 -54.095  1.00  0.00    -0.035 A 
HETATM   18  C   UNL     1     -41.931  53.245 -55.145  1.00  0.00     0.050 C 
HETATM   19  C   UNL     1     -40.510  51.375 -54.372  1.00  0.00     0.009 A 
HETATM   20  C   UNL     1     -39.745  50.679 -53.440  1.00  0.00     0.001 A 
HETATM   21  C   UNL     1     -39.480  51.256 -52.207  1.00  0.00     0.002 A 
HETATM   22  C   UNL     1     -39.956  52.537 -51.926  1.00  0.00     0.030 A 
ENDBRANCH  13  16
ENDBRANCH   1  12
BRANCH   2  23
HETATM   23  C   UNL     1     -43.152  57.330 -53.464  1.00  0.00    -0.028 A 
HETATM   24  C   UNL     1     -44.324  57.027 -54.181  1.00  0.00     0.011 A 
HETATM   25  C   UNL     1     -44.313  56.979 -55.576  1.00  0.00     0.024 A 
HETATM   26  C   UNL     1     -43.133  57.235 -56.268  1.00  0.00     0.034 A 
HETATM   27 CL   UNL     1     -43.120  57.165 -57.987  1.00  0.00    -0.084 Cl
HETATM   28  C   UNL     1     -41.964  57.547 -55.577  1.00  0.00     0.024 A 
HETATM   29  C   UNL     1     -41.972  57.597 -54.181  1.00  0.00     0.011 A 
ENDBRANCH   2  23
BRANCH   7  30
HETATM   30  C   UNL     1     -43.486  62.152 -51.041  1.00  0.00     0.085 C 
BRANCH  30  31
HETATM   31  C   UNL     1     -43.914  62.678 -49.674  1.00  0.00     0.034 C 
BRANCH  31  32
HETATM   32  C   UNL     1     -44.978  61.813 -49.006  1.00  0.00     0.164 C 
BRANCH  32  33
HETATM   33  O   UNL     1     -44.368  60.982 -48.023  1.00  0.00    -0.401 OA
HETATM   34  H   UNL     1     -44.148  60.136 -48.450  1.00  0.00     0.209 HD
ENDBRANCH  32  33
ENDBRANCH  31  32
ENDBRANCH  30  31
ENDBRANCH   7  30
TORSDOF 7
ENDMDL
MODEL 3
REMARK VINA RESULT:      -7.7      3.023      4.941
REMARK  7 active torsions:
REMARK  status: ('A' for Active; 'I' for Inactive)
REMARK    1  A    between atoms: C_3  and  N_4 
REMARK       I    between atoms: N_4  and  C_5 
REMARK    2  A    between atoms: C_5  and  C_6 
REMARK    3  A    between atoms: C_7  and  C_8 
REMARK    4  A    between atoms: C_19  and  C_20 
REMARK    5  A    between atoms: C_20  and  C_21 
REMARK    6  A    between atoms: C_21  and  C_22 
REMARK    7  A    between atoms: C_22  and  O_23 
ROOT
HETATM    1  C   UNL     1     -41.735  58.382 -51.623  1.00  0.00     0.062 A 
HETATM    2  C   UNL     1     -43.258  58.490 -51.607  1.00  0.00     0.202 A 
HETATM    3  N   UNL     1     -43.710  59.676 -50.869  1.00  0.00    -0.083 N 
HETATM    4  C   UNL     1     -42.869  60.551 -50.238  1.00  0.00     0.726 A 
HETATM    5  N   UNL     1     -41.541  60.348 -50.297  1.00  0.00    -0.192 N 
HETATM    6  N   UNL     1     -45.003  59.967 -50.611  1.00  0.00    -0.140 NA
HETATM    7  C   UNL     1     -44.868  61.096 -49.900  1.00  0.00     0.166 A 
HETATM    8  N   UNL     1     -43.572  61.477 -49.639  1.00  0.00    -0.046 NA
HETATM    9  C   UNL     1     -40.955  59.292 -50.986  1.00  0.00     0.037 A 
HETATM   10  C   UNL     1     -39.446  59.244 -50.945  1.00  0.00     0.070 C 
HETATM   11  H   UNL     1     -40.924  61.016 -49.844  1.00  0.00     0.184 HD
ENDROOT
BRANCH   1  12
HETATM   12  C   UNL     1     -41.133  57.319 -52.480  1.00  0.00     0.256 C 
HETATM   13  N   UNL     1     -41.321  56.049 -51.986  1.00  0.00    -0.323 N 
HETATM   14  H   UNL     1     -41.503  55.981 -50.993  1.00  0.00     0.169 HD
HETATM   15  O   UNL     1     -40.516  57.634 -53.489  1.00  0.00    -0.267 OA
BRANCH  13  16
HETATM   16  C   UNL     1     -41.070  54.814 -52.631  1.00  0.00     0.041 A 
HETATM   17  C   UNL     1     -40.432  53.690 -52.075  1.00  0.00    -0.035 A 
HETATM   18  C   UNL     1     -39.821  53.629 -50.701  1.00  0.00     0.050 C 
HETATM   19  C   UNL     1     -40.302  52.524 -52.859  1.00  0.00     0.009 A 
HETATM   20  C   UNL     1     -40.731  52.484 -54.183  1.00  0.00     0.001 A 
HETATM   21  C   UNL     1     -41.300  53.614 -54.752  1.00  0.00     0.002 A 
HETATM   22  C   UNL     1     -41.462  54.767 -53.983  1.00  0.00     0.030 A 
ENDBRANCH  13  16
ENDBRANCH   1  12
BRANCH   2  23
HETATM   23  C   UNL     1     -43.891  58.453 -52.995  1.00  0.00    -0.028 A 
HETATM   24  C   UNL     1     -44.559  57.291 -53.425  1.00  0.00     0.011 A 
HETATM   25  C   UNL     1     -45.120  57.224 -54.701  1.00  0.00     0.024 A 
HETATM   26  C   UNL     1     -45.022  58.316 -55.559  1.00  0.00     0.034 A 
HETATM   27 CL   UNL     1     -45.705  58.227 -57.135  1.00  0.00    -0.084 Cl
HETATM   28  C   UNL     1     -44.373  59.478 -55.148  1.00  0.00     0.024 A 
HETATM   29  C   UNL     1     -43.812  59.550 -53.870  1.00  0.00     0.011 A 
ENDBRANCH   2  23
BRANCH   7  30
HETATM   30  C   UNL     1     -46.027  61.872 -49.392  1.00  0.00     0.085 C 
BRANCH  30  31
HETATM   31  C   UNL     1     -46.021  62.045 -47.875  1.00  0.00     0.034 C 
BRANCH  31  32
HETATM   32  C   UNL     1     -45.815  60.733 -47.124  1.00  0.00     0.164 C 
BRANCH  32  33
HETATM   33  O   UNL     1     -44.483  60.674 -46.626  1.00  0.00    -0.401 OA
HETATM   34  H   UNL     1     -44.534  60.470 -45.676  1.00  0.00     0.209 HD
ENDBRANCH  32  33
ENDBRANCH  31  32
ENDBRANCH  30  31
ENDBRANCH   7  30
TORSDOF 7
ENDMDL
MODEL 4
REMARK VINA RESULT:      -7.7      4.598      5.849
REMARK  7 active torsions:
REMARK  status: ('A' for Active; 'I' for Inactive)
REMARK    1  A    between atoms: C_3  and  N_4 
REMARK       I    between atoms: N_4  and  C_5 
REMARK    2  A    between atoms: C_5  and  C_6 
REMARK    3  A    between atoms: C_7  and  C_8 
REMARK    4  A    between atoms: C_19  and  C_20 
REMARK    5  A    between atoms: C_20  and  C_21 
REMARK    6  A    between atoms: C_21  and  C_22 
REMARK    7  A    between atoms: C_22  and  O_23 
ROOT
HETATM    1  C   UNL     1     -42.378  56.946 -56.765  1.00  0.00     0.062 A 
HETATM    2  C   UNL     1     -41.755  58.273 -56.337  1.00  0.00     0.202 A 
HETATM    3  N   UNL     1     -41.901  59.301 -57.375  1.00  0.00    -0.083 N 
HETATM    4  C   UNL     1     -42.485  59.081 -58.592  1.00  0.00     0.726 A 
HETATM    5  N   UNL     1     -42.983  57.864 -58.875  1.00  0.00    -0.192 N 
HETATM    6  N   UNL     1     -41.359  60.536 -57.307  1.00  0.00    -0.140 NA
HETATM    7  C   UNL     1     -41.747  61.044 -58.486  1.00  0.00     0.166 A 
HETATM    8  N   UNL     1     -42.428  60.175 -59.307  1.00  0.00    -0.046 NA
HETATM    9  C   UNL     1     -42.954  56.797 -57.985  1.00  0.00     0.037 A 
HETATM   10  C   UNL     1     -43.577  55.515 -58.483  1.00  0.00     0.070 C 
HETATM   11  H   UNL     1     -43.435  57.718 -59.773  1.00  0.00     0.184 HD
ENDROOT
BRANCH   1  12
HETATM   12  C   UNL     1     -42.453  55.863 -55.741  1.00  0.00     0.256 C 
HETATM   13  N   UNL     1     -41.233  55.286 -55.469  1.00  0.00    -0.323 N 
HETATM   14  H   UNL     1     -40.528  55.378 -56.188  1.00  0.00     0.169 HD
HETATM   15  O   UNL     1     -43.537  55.555 -55.266  1.00  0.00    -0.267 OA
BRANCH  13  16
HETATM   16  C   UNL     1     -40.905  54.389 -54.424  1.00  0.00     0.041 A 
HETATM   17  C   UNL     1     -41.014  54.634 -53.042  1.00  0.00    -0.035 A 
HETATM   18  C   UNL     1     -41.428  55.941 -52.421  1.00  0.00     0.050 C 
HETATM   19  C   UNL     1     -40.675  53.603 -52.140  1.00  0.00     0.009 A 
HETATM   20  C   UNL     1     -40.178  52.380 -52.583  1.00  0.00     0.001 A 
HETATM   21  C   UNL     1     -40.007  52.164 -53.942  1.00  0.00     0.002 A 
HETATM   22  C   UNL     1     -40.364  53.161 -54.851  1.00  0.00     0.030 A 
ENDBRANCH  13  16
ENDBRANCH   1  12
BRANCH   2  23
HETATM   23  C   UNL     1     -42.272  58.791 -54.998  1.00  0.00    -0.028 A 
HETATM   24  C   UNL     1     -41.359  59.124 -53.980  1.00  0.00     0.011 A 
HETATM   25  C   UNL     1     -41.811  59.571 -52.737  1.00  0.00     0.024 A 
HETATM   26  C   UNL     1     -43.177  59.693 -52.500  1.00  0.00     0.034 A 
HETATM   27 CL   UNL     1     -43.732  60.235 -50.965  1.00  0.00    -0.084 Cl
HETATM   28  C   UNL     1     -44.097  59.378 -53.498  1.00  0.00     0.024 A 
HETATM   29  C   UNL     1     -43.648  58.931 -54.744  1.00  0.00     0.011 A 
ENDBRANCH   2  23
BRANCH   7  30
HETATM   30  C   UNL     1     -41.439  62.434 -58.905  1.00  0.00     0.085 C 
BRANCH  30  31
HETATM   31  C   UNL     1     -40.247  62.530 -59.853  1.00  0.00     0.034 C 
BRANCH  31  32
HETATM   32  C   UNL     1     -40.655  62.684 -61.315  1.00  0.00     0.164 C 
BRANCH  32  33
HETATM   33  O   UNL     1     -40.983  61.408 -61.854  1.00  0.00    -0.401 OA
HETATM   34  H   UNL     1     -41.335  61.550 -62.750  1.00  0.00     0.209 HD
ENDBRANCH  32  33
ENDBRANCH  31  32
ENDBRANCH  30  31
ENDBRANCH   7  30
TORSDOF 7
ENDMDL
MODEL 5
REMARK VINA RESULT:      -7.6      3.776      5.419
REMARK  7 active torsions:
REMARK  status: ('A' for Active; 'I' for Inactive)
REMARK    1  A    between atoms: C_3  and  N_4 
REMARK       I    between atoms: N_4  and  C_5 
REMARK    2  A    between atoms: C_5  and  C_6 
REMARK    3  A    between atoms: C_7  and  C_8 
REMARK    4  A    between atoms: C_19  and  C_20 
REMARK    5  A    between atoms: C_20  and  C_21 
REMARK    6  A    between atoms: C_21  and  C_22 
REMARK    7  A    between atoms: C_22  and  O_23 
ROOT
HETATM    1  C   UNL     1     -42.290  56.598 -54.658  1.00  0.00     0.062 A 
HETATM    2  C   UNL     1     -42.040  58.083 -54.407  1.00  0.00     0.202 A 
HETATM    3  N   UNL     1     -42.117  58.863 -55.649  1.00  0.00    -0.083 N 
HETATM    4  C   UNL     1     -42.342  58.317 -56.883  1.00  0.00     0.726 A 
HETATM    5  N   UNL     1     -42.528  56.990 -56.993  1.00  0.00    -0.192 N 
HETATM    6  N   UNL     1     -41.841  60.182 -55.740  1.00  0.00    -0.140 NA
HETATM    7  C   UNL     1     -42.020  60.384 -57.054  1.00  0.00     0.166 A 
HETATM    8  N   UNL     1     -42.315  59.260 -57.789  1.00  0.00    -0.046 NA
HETATM    9  C   UNL     1     -42.521  56.121 -55.907  1.00  0.00     0.037 A 
HETATM   10  C   UNL     1     -42.762  54.667 -56.235  1.00  0.00     0.070 C 
HETATM   11  H   UNL     1     -42.717  56.597 -57.910  1.00  0.00     0.184 HD
ENDROOT
BRANCH   1  12
HETATM   12  C   UNL     1     -42.411  55.713 -53.463  1.00  0.00     0.256 C 
HETATM   13  N   UNL     1     -41.206  55.465 -52.845  1.00  0.00    -0.323 N 
HETATM   14  H   UNL     1     -40.381  55.583 -53.417  1.00  0.00     0.169 HD
HETATM   15  O   UNL     1     -43.505  55.265 -53.151  1.00  0.00    -0.267 OA
BRANCH  13  16
HETATM   16  C   UNL     1     -40.978  54.849 -51.590  1.00  0.00     0.041 A 
HETATM   17  C   UNL     1     -40.473  53.554 -51.370  1.00  0.00    -0.035 A 
HETATM   18  C   UNL     1     -40.159  52.549 -52.446  1.00  0.00     0.050 C 
HETATM   19  C   UNL     1     -40.274  53.119 -50.042  1.00  0.00     0.009 A 
HETATM   20  C   UNL     1     -40.624  53.914 -48.954  1.00  0.00     0.001 A 
HETATM   21  C   UNL     1     -41.184  55.164 -49.172  1.00  0.00     0.002 A 
HETATM   22  C   UNL     1     -41.362  55.623 -50.478  1.00  0.00     0.030 A 
ENDBRANCH  13  16
ENDBRANCH   1  12
BRANCH   2  23
HETATM   23  C   UNL     1     -42.949  58.689 -53.341  1.00  0.00    -0.028 A 
HETATM   24  C   UNL     1     -42.396  59.137 -52.127  1.00  0.00     0.011 A 
HETATM   25  C   UNL     1     -43.212  59.666 -51.126  1.00  0.00     0.024 A 
HETATM   26  C   UNL     1     -44.586  59.756 -51.328  1.00  0.00     0.034 A 
HETATM   27 CL   UNL     1     -45.591  60.399 -50.089  1.00  0.00    -0.084 Cl
HETATM   28  C   UNL     1     -45.151  59.327 -52.527  1.00  0.00     0.024 A 
HETATM   29  C   UNL     1     -44.337  58.798 -53.532  1.00  0.00     0.011 A 
ENDBRANCH   2  23
BRANCH   7  30
HETATM   30  C   UNL     1     -41.878  61.718 -57.690  1.00  0.00     0.085 C 
BRANCH  30  31
HETATM   31  C   UNL     1     -40.728  61.792 -58.691  1.00  0.00     0.034 C 
BRANCH  31  32
HETATM   32  C   UNL     1     -41.200  61.840 -60.141  1.00  0.00     0.164 C 
BRANCH  32  33
HETATM   33  O   UNL     1     -41.644  60.548 -60.541  1.00  0.00    -0.401 OA
HETATM   34  H   UNL     1     -42.598  60.496 -60.357  1.00  0.00     0.209 HD
ENDBRANCH  32  33
ENDBRANCH  31  32
ENDBRANCH  30  31
ENDBRANCH   7  30
TORSDOF 7
ENDMDL
MODEL 6
REMARK VINA RESULT:      -7.6      2.232      7.827
REMARK  7 active torsions:
REMARK  status: ('A' for Active; 'I' for Inactive)
REMARK    1  A    between atoms: C_3  and  N_4 
REMARK       I    between atoms: N_4  and  C_5 
REMARK    2  A    between atoms: C_5  and  C_6 
REMARK    3  A    between atoms: C_7  and  C_8 
REMARK    4  A    between atoms: C_19  and  C_20 
REMARK    5  A    between atoms: C_20  and  C_21 
REMARK    6  A    between atoms: C_21  and  C_22 
REMARK    7  A    between atoms: C_22  and  O_23 
ROOT
HETATM    1  C   UNL     1     -44.005  56.968 -53.179  1.00  0.00     0.062 A 
HETATM    2  C   UNL     1     -42.806  56.234 -52.583  1.00  0.00     0.202 A 
HETATM    3  N   UNL     1     -42.211  55.298 -53.545  1.00  0.00    -0.083 N 
HETATM    4  C   UNL     1     -42.700  55.081 -54.804  1.00  0.00     0.726 A 
HETATM    5  N   UNL     1     -43.779  55.768 -55.221  1.00  0.00    -0.192 N 
HETATM    6  N   UNL     1     -41.203  54.446 -53.258  1.00  0.00    -0.140 NA
HETATM    7  C   UNL     1     -41.069  53.812 -54.432  1.00  0.00     0.166 A 
HETATM    8  N   UNL     1     -41.980  54.166 -55.400  1.00  0.00    -0.046 NA
HETATM    9  C   UNL     1     -44.433  56.715 -54.442  1.00  0.00     0.037 A 
HETATM   10  C   UNL     1     -45.617  57.390 -55.093  1.00  0.00     0.070 C 
HETATM   11  H   UNL     1     -44.120  55.617 -56.165  1.00  0.00     0.184 HD
ENDROOT
BRANCH   1  12
HETATM   12  C   UNL     1     -44.602  58.071 -52.371  1.00  0.00     0.256 C 
HETATM   13  N   UNL     1     -44.195  59.323 -52.774  1.00  0.00    -0.323 N 
HETATM   14  H   UNL     1     -43.324  59.363 -53.286  1.00  0.00     0.169 HD
HETATM   15  O   UNL     1     -45.342  57.803 -51.434  1.00  0.00    -0.267 OA
BRANCH  13  16
HETATM   16  C   UNL     1     -44.711  60.580 -52.376  1.00  0.00     0.041 A 
HETATM   17  C   UNL     1     -44.143  61.461 -51.438  1.00  0.00    -0.035 A 
HETATM   18  C   UNL     1     -42.911  61.184 -50.619  1.00  0.00     0.050 C 
HETATM   19  C   UNL     1     -44.781  62.697 -51.192  1.00  0.00     0.009 A 
HETATM   20  C   UNL     1     -45.985  63.030 -51.807  1.00  0.00     0.001 A 
HETATM   21  C   UNL     1     -46.578  62.132 -52.681  1.00  0.00     0.002 A 
HETATM   22  C   UNL     1     -45.948  60.918 -52.957  1.00  0.00     0.030 A 
ENDBRANCH  13  16
ENDBRANCH   1  12
BRANCH   2  23
HETATM   23  C   UNL     1     -41.738  57.162 -52.013  1.00  0.00    -0.028 A 
HETATM   24  C   UNL     1     -41.546  57.231 -50.621  1.00  0.00     0.011 A 
HETATM   25  C   UNL     1     -40.595  58.096 -50.076  1.00  0.00     0.024 A 
HETATM   26  C   UNL     1     -39.825  58.896 -50.914  1.00  0.00     0.034 A 
HETATM   27 CL   UNL     1     -38.661  59.968 -50.240  1.00  0.00    -0.084 Cl
HETATM   28  C   UNL     1     -39.993  58.834 -52.296  1.00  0.00     0.024 A 
HETATM   29  C   UNL     1     -40.943  57.969 -52.846  1.00  0.00     0.011 A 
ENDBRANCH   2  23
BRANCH   7  30
HETATM   30  C   UNL     1     -40.037  52.773 -54.674  1.00  0.00     0.085 C 
BRANCH  30  31
HETATM   31  C   UNL     1     -40.092  51.621 -53.673  1.00  0.00     0.034 C 
BRANCH  31  32
HETATM   32  C   UNL     1     -40.479  50.292 -54.312  1.00  0.00     0.164 C 
BRANCH  32  33
HETATM   33  O   UNL     1     -39.366  49.404 -54.274  1.00  0.00    -0.401 OA
HETATM   34  H   UNL     1     -38.583  49.926 -54.024  1.00  0.00     0.209 HD
ENDBRANCH  32  33
ENDBRANCH  31  32
ENDBRANCH  30  31
ENDBRANCH   7  30
TORSDOF 7
ENDMDL
MODEL 7
REMARK VINA RESULT:      -7.6      2.954      4.708
REMARK  7 active torsions:
REMARK  status: ('A' for Active; 'I' for Inactive)
REMARK    1  A    between atoms: C_3  and  N_4 
REMARK       I    between atoms: N_4  and  C_5 
REMARK    2  A    between atoms: C_5  and  C_6 
REMARK    3  A    between atoms: C_7  and  C_8 
REMARK    4  A    between atoms: C_19  and  C_20 
REMARK    5  A    between atoms: C_20  and  C_21 
REMARK    6  A    between atoms: C_21  and  C_22 
REMARK    7  A    between atoms: C_22  and  O_23 
ROOT
HETATM    1  C   UNL     1     -42.284  57.269 -52.336  1.00  0.00     0.062 A 
HETATM    2  C   UNL     1     -43.510  57.636 -53.169  1.00  0.00     0.202 A 
HETATM    3  N   UNL     1     -44.229  58.783 -52.599  1.00  0.00    -0.083 N 
HETATM    4  C   UNL     1     -43.867  59.415 -51.441  1.00  0.00     0.726 A 
HETATM    5  N   UNL     1     -42.778  58.994 -50.773  1.00  0.00    -0.192 N 
HETATM    6  N   UNL     1     -45.401  59.260 -53.071  1.00  0.00    -0.140 NA
HETATM    7  C   UNL     1     -45.636  60.252 -52.200  1.00  0.00     0.166 A 
HETATM    8  N   UNL     1     -44.723  60.368 -51.178  1.00  0.00    -0.046 NA
HETATM    9  C   UNL     1     -41.972  57.945 -51.201  1.00  0.00     0.037 A 
HETATM   10  C   UNL     1     -40.787  57.632 -50.320  1.00  0.00     0.070 C 
HETATM   11  H   UNL     1     -42.504  59.484 -49.927  1.00  0.00     0.184 HD
ENDROOT
BRANCH   1  12
HETATM   12  C   UNL     1     -41.366  56.232 -52.891  1.00  0.00     0.256 C 
HETATM   13  N   UNL     1     -41.585  54.977 -52.370  1.00  0.00    -0.323 N 
HETATM   14  H   UNL     1     -42.048  54.942 -51.472  1.00  0.00     0.169 HD
HETATM   15  O   UNL     1     -40.506  56.556 -53.698  1.00  0.00    -0.267 OA
BRANCH  13  16
HETATM   16  C   UNL     1     -41.048  53.742 -52.811  1.00  0.00     0.041 A 
HETATM   17  C   UNL     1     -41.325  53.095 -54.030  1.00  0.00    -0.035 A 
HETATM   18  C   UNL     1     -42.316  53.566 -55.060  1.00  0.00     0.050 C 
HETATM   19  C   UNL     1     -40.664  51.881 -54.320  1.00  0.00     0.009 A 
HETATM   20  C   UNL     1     -39.802  51.284 -53.404  1.00  0.00     0.001 A 
HETATM   21  C   UNL     1     -39.582  51.889 -52.176  1.00  0.00     0.002 A 
HETATM   22  C   UNL     1     -40.204  53.104 -51.883  1.00  0.00     0.030 A 
ENDBRANCH  13  16
ENDBRANCH   1  12
BRANCH   2  23
HETATM   23  C   UNL     1     -43.202  57.880 -54.643  1.00  0.00    -0.028 A 
HETATM   24  C   UNL     1     -43.632  56.950 -55.608  1.00  0.00     0.011 A 
HETATM   25  C   UNL     1     -43.335  57.138 -56.959  1.00  0.00     0.024 A 
HETATM   26  C   UNL     1     -42.609  58.255 -57.360  1.00  0.00     0.034 A 
HETATM   27 CL   UNL     1     -42.236  58.479 -59.024  1.00  0.00    -0.084 Cl
HETATM   28  C   UNL     1     -42.183  59.192 -56.421  1.00  0.00     0.024 A 
HETATM   29  C   UNL     1     -42.480  59.009 -55.068  1.00  0.00     0.011 A 
ENDBRANCH   2  23
BRANCH   7  30
HETATM   30  C   UNL     1     -46.815  61.148 -52.299  1.00  0.00     0.085 C 
BRANCH  30  31
HETATM   31  C   UNL     1     -46.543  62.564 -51.796  1.00  0.00     0.034 C 
BRANCH  31  32
HETATM   32  C   UNL     1     -47.247  62.877 -50.480  1.00  0.00     0.164 C 
BRANCH  32  33
HETATM   33  O   UNL     1     -46.688  62.081 -49.440  1.00  0.00    -0.401 OA
HETATM   34  H   UNL     1     -46.286  61.298 -49.854  1.00  0.00     0.209 HD
ENDBRANCH  32  33
ENDBRANCH  31  32
ENDBRANCH  30  31
ENDBRANCH   7  30
TORSDOF 7
ENDMDL
MODEL 8
REMARK VINA RESULT:      -7.4      2.419      7.694
REMARK  7 active torsions:
REMARK  status: ('A' for Active; 'I' for Inactive)
REMARK    1  A    between atoms: C_3  and  N_4 
REMARK       I    between atoms: N_4  and  C_5 
REMARK    2  A    between atoms: C_5  and  C_6 
REMARK    3  A    between atoms: C_7  and  C_8 
REMARK    4  A    between atoms: C_19  and  C_20 
REMARK    5  A    between atoms: C_20  and  C_21 
REMARK    6  A    between atoms: C_21  and  C_22 
REMARK    7  A    between atoms: C_22  and  O_23 
ROOT
HETATM    1  C   UNL     1     -44.157  58.031 -53.922  1.00  0.00     0.062 A 
HETATM    2  C   UNL     1     -43.325  57.069 -53.076  1.00  0.00     0.202 A 
HETATM    3  N   UNL     1     -42.951  55.868 -53.833  1.00  0.00    -0.083 N 
HETATM    4  C   UNL     1     -43.337  55.624 -55.122  1.00  0.00     0.726 A 
HETATM    5  N   UNL     1     -44.090  56.532 -55.768  1.00  0.00    -0.192 N 
HETATM    6  N   UNL     1     -42.302  54.806 -53.307  1.00  0.00    -0.140 NA
HETATM    7  C   UNL     1     -42.242  53.996 -54.374  1.00  0.00     0.166 A 
HETATM    8  N   UNL     1     -42.879  54.459 -55.502  1.00  0.00    -0.046 NA
HETATM    9  C   UNL     1     -44.496  57.735 -55.202  1.00  0.00     0.037 A 
HETATM   10  C   UNL     1     -45.325  58.628 -56.094  1.00  0.00     0.070 C 
HETATM   11  H   UNL     1     -44.351  56.353 -56.733  1.00  0.00     0.184 HD
ENDROOT
BRANCH   1  12
HETATM   12  C   UNL     1     -44.462  59.368 -53.334  1.00  0.00     0.256 C 
HETATM   13  N   UNL     1     -45.234  59.300 -52.197  1.00  0.00    -0.323 N 
HETATM   14  H   UNL     1     -45.785  58.461 -52.084  1.00  0.00     0.169 HD
HETATM   15  O   UNL     1     -44.059  60.380 -53.893  1.00  0.00    -0.267 OA
BRANCH  13  16
HETATM   16  C   UNL     1     -45.534  60.338 -51.281  1.00  0.00     0.041 A 
HETATM   17  C   UNL     1     -46.507  61.342 -51.440  1.00  0.00    -0.035 A 
HETATM   18  C   UNL     1     -47.359  61.542 -52.665  1.00  0.00     0.050 C 
HETATM   19  C   UNL     1     -46.696  62.277 -50.399  1.00  0.00     0.009 A 
HETATM   20  C   UNL     1     -45.900  62.266 -49.257  1.00  0.00     0.001 A 
HETATM   21  C   UNL     1     -44.896  61.318 -49.131  1.00  0.00     0.002 A 
HETATM   22  C   UNL     1     -44.714  60.367 -50.137  1.00  0.00     0.030 A 
ENDBRANCH  13  16
ENDBRANCH   1  12
BRANCH   2  23
HETATM   23  C   UNL     1     -42.091  57.710 -52.449  1.00  0.00    -0.028 A 
HETATM   24  C   UNL     1     -41.985  57.793 -51.048  1.00  0.00     0.011 A 
HETATM   25  C   UNL     1     -40.879  58.402 -50.454  1.00  0.00     0.024 A 
HETATM   26  C   UNL     1     -39.868  58.931 -51.250  1.00  0.00     0.034 A 
HETATM   27 CL   UNL     1     -38.510  59.690 -50.515  1.00  0.00    -0.084 Cl
HETATM   28  C   UNL     1     -39.949  58.849 -52.639  1.00  0.00     0.024 A 
HETATM   29  C   UNL     1     -41.055  58.238 -53.238  1.00  0.00     0.011 A 
ENDBRANCH   2  23
BRANCH   7  30
HETATM   30  C   UNL     1     -41.570  52.673 -54.345  1.00  0.00     0.085 C 
BRANCH  30  31
HETATM   31  C   UNL     1     -40.125  52.739 -53.857  1.00  0.00     0.034 C 
BRANCH  31  32
HETATM   32  C   UNL     1     -39.930  52.116 -52.479  1.00  0.00     0.164 C 
BRANCH  32  33
HETATM   33  O   UNL     1     -40.534  52.945 -51.491  1.00  0.00    -0.401 OA
HETATM   34  H   UNL     1     -41.492  52.777 -51.514  1.00  0.00     0.209 HD
ENDBRANCH  32  33
ENDBRANCH  31  32
ENDBRANCH  30  31
ENDBRANCH   7  30
TORSDOF 7
ENDMDL
MODEL 9
REMARK VINA RESULT:      -7.3      2.793      4.300
REMARK  7 active torsions:
REMARK  status: ('A' for Active; 'I' for Inactive)
REMARK    1  A    between atoms: C_3  and  N_4 
REMARK       I    between atoms: N_4  and  C_5 
REMARK    2  A    between atoms: C_5  and  C_6 
REMARK    3  A    between atoms: C_7  and  C_8 
REMARK    4  A    between atoms: C_19  and  C_20 
REMARK    5  A    between atoms: C_20  and  C_21 
REMARK    6  A    between atoms: C_21  and  C_22 
REMARK    7  A    between atoms: C_22  and  O_23 
ROOT
HETATM    1  C   UNL     1     -42.024  55.658 -51.367  1.00  0.00     0.062 A 
HETATM    2  C   UNL     1     -42.947  56.618 -52.114  1.00  0.00     0.202 A 
HETATM    3  N   UNL     1     -42.710  58.013 -51.721  1.00  0.00    -0.083 N 
HETATM    4  C   UNL     1     -41.803  58.397 -50.771  1.00  0.00     0.726 A 
HETATM    5  N   UNL     1     -41.055  57.463 -50.157  1.00  0.00    -0.192 N 
HETATM    6  N   UNL     1     -43.447  59.061 -52.146  1.00  0.00    -0.140 NA
HETATM    7  C   UNL     1     -42.858  60.067 -51.483  1.00  0.00     0.166 A 
HETATM    8  N   UNL     1     -41.854  59.695 -50.619  1.00  0.00    -0.046 NA
HETATM    9  C   UNL     1     -41.136  56.105 -50.444  1.00  0.00     0.037 A 
HETATM   10  C   UNL     1     -40.202  55.217 -49.657  1.00  0.00     0.070 C 
HETATM   11  H   UNL     1     -40.369  57.761 -49.470  1.00  0.00     0.184 HD
ENDROOT
BRANCH   1  12
HETATM   12  C   UNL     1     -42.038  54.227 -51.791  1.00  0.00     0.256 C 
HETATM   13  N   UNL     1     -40.850  53.813 -52.350  1.00  0.00    -0.323 N 
HETATM   14  H   UNL     1     -40.261  54.541 -52.731  1.00  0.00     0.169 HD
HETATM   15  O   UNL     1     -43.058  53.566 -51.654  1.00  0.00    -0.267 OA
BRANCH  13  16
HETATM   16  C   UNL     1     -40.447  52.493 -52.667  1.00  0.00     0.041 A 
HETATM   17  C   UNL     1     -40.149  51.464 -51.755  1.00  0.00    -0.035 A 
HETATM   18  C   UNL     1     -40.127  51.610 -50.257  1.00  0.00     0.050 C 
HETATM   19  C   UNL     1     -39.799  50.191 -52.256  1.00  0.00     0.009 A 
HETATM   20  C   UNL     1     -39.681  49.954 -53.623  1.00  0.00     0.001 A 
HETATM   21  C   UNL     1     -39.909  50.987 -54.519  1.00  0.00     0.002 A 
HETATM   22  C   UNL     1     -40.284  52.244 -54.044  1.00  0.00     0.030 A 
ENDBRANCH  13  16
ENDBRANCH   1  12
BRANCH   2  23
HETATM   23  C   UNL     1     -42.886  56.475 -53.631  1.00  0.00    -0.028 A 
HETATM   24  C   UNL     1     -43.921  55.806 -54.310  1.00  0.00     0.011 A 
HETATM   25  C   UNL     1     -43.871  55.637 -55.695  1.00  0.00     0.024 A 
HETATM   26  C   UNL     1     -42.790  56.135 -56.415  1.00  0.00     0.034 A 
HETATM   27 CL   UNL     1     -42.726  55.917 -58.120  1.00  0.00    -0.084 Cl
HETATM   28  C   UNL     1     -41.760  56.809 -55.762  1.00  0.00     0.024 A 
HETATM   29  C   UNL     1     -41.807  56.982 -54.376  1.00  0.00     0.011 A 
ENDBRANCH   2  23
BRANCH   7  30
HETATM   30  C   UNL     1     -43.273  61.484 -51.634  1.00  0.00     0.085 C 
BRANCH  30  31
HETATM   31  C   UNL     1     -43.202  61.985 -53.074  1.00  0.00     0.034 C 
BRANCH  31  32
HETATM   32  C   UNL     1     -44.572  62.109 -53.733  1.00  0.00     0.164 C 
BRANCH  32  33
HETATM   33  O   UNL     1     -44.968  60.843 -54.250  1.00  0.00    -0.401 OA
HETATM   34  H   UNL     1     -45.256  60.297 -53.498  1.00  0.00     0.209 HD
ENDBRANCH  32  33
ENDBRANCH  31  32
ENDBRANCH  30  31
ENDBRANCH   7  30
TORSDOF 7
ENDMDL
MODEL 10
REMARK VINA RESULT:      -7.3      2.773      7.958
REMARK  7 active torsions:
REMARK  status: ('A' for Active; 'I' for Inactive)
REMARK    1  A    between atoms: C_3  and  N_4 
REMARK       I    between atoms: N_4  and  C_5 
REMARK    2  A    between atoms: C_5  and  C_6 
REMARK    3  A    between atoms: C_7  and  C_8 
REMARK    4  A    between atoms: C_19  and  C_20 
REMARK    5  A    between atoms: C_20  and  C_21 
REMARK    6  A    between atoms: C_21  and  C_22 
REMARK    7  A    between atoms: C_22  and  O_23 
ROOT
HETATM    1  C   UNL     1     -42.874  57.818 -54.702  1.00  0.00     0.062 A 
HETATM    2  C   UNL     1     -42.321  57.015 -53.527  1.00  0.00     0.202 A 
HETATM    3  N   UNL     1     -41.639  55.795 -53.978  1.00  0.00    -0.083 N 
HETATM    4  C   UNL     1     -41.549  55.408 -55.286  1.00  0.00     0.726 A 
HETATM    5  N   UNL     1     -42.092  56.182 -56.243  1.00  0.00    -0.192 N 
HETATM    6  N   UNL     1     -41.143  54.849 -53.152  1.00  0.00    -0.140 NA
HETATM    7  C   UNL     1     -40.675  53.961 -54.041  1.00  0.00     0.166 A 
HETATM    8  N   UNL     1     -40.918  54.264 -55.361  1.00  0.00    -0.046 NA
HETATM    9  C   UNL     1     -42.740  57.384 -55.981  1.00  0.00     0.037 A 
HETATM   10  C   UNL     1     -43.270  58.115 -57.191  1.00  0.00     0.070 C 
HETATM   11  H   UNL     1     -41.999  55.897 -57.213  1.00  0.00     0.184 HD
ENDROOT
BRANCH   1  12
HETATM   12  C   UNL     1     -43.442  59.165 -54.403  1.00  0.00     0.256 C 
HETATM   13  N   UNL     1     -44.729  59.117 -53.917  1.00  0.00    -0.323 N 
HETATM   14  H   UNL     1     -45.258  58.284 -54.140  1.00  0.00     0.169 HD
HETATM   15  O   UNL     1     -42.777  60.166 -54.630  1.00  0.00    -0.267 OA
BRANCH  13  16
HETATM   16  C   UNL     1     -45.487  60.168 -53.346  1.00  0.00     0.041 A 
HETATM   17  C   UNL     1     -46.109  61.225 -54.035  1.00  0.00    -0.035 A 
HETATM   18  C   UNL     1     -46.010  61.476 -55.515  1.00  0.00     0.050 C 
HETATM   19  C   UNL     1     -46.861  62.168 -53.299  1.00  0.00     0.009 A 
HETATM   20  C   UNL     1     -46.945  62.108 -51.910  1.00  0.00     0.001 A 
HETATM   21  C   UNL     1     -46.276  61.105 -51.227  1.00  0.00     0.002 A 
HETATM   22  C   UNL     1     -45.551  60.148 -51.939  1.00  0.00     0.030 A 
ENDBRANCH  13  16
ENDBRANCH   1  12
BRANCH   2  23
HETATM   23  C   UNL     1     -41.415  57.822 -52.602  1.00  0.00    -0.028 A 
HETATM   24  C   UNL     1     -40.219  58.369 -53.103  1.00  0.00     0.011 A 
HETATM   25  C   UNL     1     -39.360  59.085 -52.267  1.00  0.00     0.024 A 
HETATM   26  C   UNL     1     -39.687  59.264 -50.927  1.00  0.00     0.034 A 
HETATM   27 CL   UNL     1     -38.623  60.138 -49.897  1.00  0.00    -0.084 Cl
HETATM   28  C   UNL     1     -40.872  58.738 -50.415  1.00  0.00     0.024 A 
HETATM   29  C   UNL     1     -41.735  58.022 -51.249  1.00  0.00     0.011 A 
ENDBRANCH   2  23
BRANCH   7  30
HETATM   30  C   UNL     1     -39.972  52.716 -53.643  1.00  0.00     0.085 C 
BRANCH  30  31
HETATM   31  C   UNL     1     -40.558  51.460 -54.283  1.00  0.00     0.034 C 
BRANCH  31  32
HETATM   32  C   UNL     1     -39.818  50.186 -53.887  1.00  0.00     0.164 C 
BRANCH  32  33
HETATM   33  O   UNL     1     -39.823  49.274 -54.980  1.00  0.00    -0.401 OA
HETATM   34  H   UNL     1     -40.514  48.611 -54.806  1.00  0.00     0.209 HD
ENDBRANCH  32  33
ENDBRANCH  31  32
ENDBRANCH  30  31
ENDBRANCH   7  30
TORSDOF 7
ENDMDL
