MODEL 1
REMARK VINA RESULT:      -8.2      0.000      0.000
REMARK  7 active torsions:
REMARK  status: ('A' for Active; 'I' for Inactive)
REMARK    1  A    between atoms: C_7  and  C_8 
REMARK    2  A    between atoms: C_8  and  C_9 
REMARK    3  A    between atoms: C_9  and  C_10 
REMARK    4  A    between atoms: C_10  and  O_11 
REMARK    5  A    between atoms: C_13  and  C_14 
REMARK    6  A    between atoms: C_22  and  C_23 
REMARK       I    between atoms: C_23  and  N_24 
REMARK    7  A    between atoms: N_24  and  C_25 
ROOT
HETATM    1  C   UNL     1     -40.814  56.798 -50.423  1.00  0.00     0.070 C 
HETATM    2  C   UNL     1     -41.985  57.132 -51.316  1.00  0.00     0.037 C 
HETATM    3  N   UNL     1     -42.846  58.106 -50.824  1.00  0.00    -0.192 N 
HETATM    4  C   UNL     1     -43.816  58.676 -51.563  1.00  0.00     0.726 A 
HETATM    5  N   UNL     1     -44.069  58.204 -52.821  1.00  0.00    -0.083 N 
HETATM    6  N   UNL     1     -45.049  58.913 -53.424  1.00  0.00    -0.140 NA
HETATM    7  C   UNL     1     -45.317  59.826 -52.475  1.00  0.00     0.166 A 
HETATM    8  N   UNL     1     -44.593  59.698 -51.314  1.00  0.00    -0.046 NA
HETATM    9  C   UNL     1     -43.360  57.064 -53.425  1.00  0.00     0.204 C 
HETATM   10  C   UNL     1     -42.204  56.592 -52.543  1.00  0.00     0.062 C 
HETATM   11  H   UNL     1     -42.597  58.554 -49.946  1.00  0.00     0.184 HD
ENDROOT
BRANCH  10  12
HETATM   12  C   UNL     1     -41.313  55.539 -53.105  1.00  0.00     0.256 C 
HETATM   13  N   UNL     1     -41.658  54.262 -52.713  1.00  0.00    -0.323 N 
HETATM   14  H   UNL     1     -42.489  54.158 -52.144  1.00  0.00     0.169 HD
HETATM   15  O   UNL     1     -40.396  55.854 -53.850  1.00  0.00    -0.267 OA
BRANCH  13  16
HETATM   16  C   UNL     1     -40.919  53.080 -52.944  1.00  0.00     0.035 A 
HETATM   17  C   UNL     1     -40.065  52.495 -52.003  1.00  0.00     0.032 A 
HETATM   18  C   UNL     1     -39.400  51.299 -52.291  1.00  0.00     0.044 A 
HETATM   19  C   UNL     1     -39.588  50.688 -53.522  1.00  0.00     0.116 A 
HETATM   20  F   UNL     1     -38.959  49.537 -53.794  1.00  0.00    -0.206 F 
HETATM   21  C   UNL     1     -40.425  51.253 -54.474  1.00  0.00     0.044 A 
HETATM   22  C   UNL     1     -41.089  52.450 -54.186  1.00  0.00     0.032 A 
ENDBRANCH  13  16
ENDBRANCH  10  12
BRANCH   9  23
HETATM   23  C   UNL     1     -43.041  57.343 -54.894  1.00  0.00    -0.005 A 
HETATM   24  C   UNL     1     -43.144  56.381 -55.922  1.00  0.00     0.064 A 
HETATM   25 CL   UNL     1     -43.655  54.759 -55.565  1.00  0.00    -0.082 Cl
HETATM   26  C   UNL     1     -42.835  56.739 -57.247  1.00  0.00     0.056 A 
HETATM   27 CL   UNL     1     -42.943  55.620 -58.565  1.00  0.00    -0.083 Cl
HETATM   28  C   UNL     1     -42.421  58.038 -57.554  1.00  0.00     0.026 A 
HETATM   29  C   UNL     1     -42.311  58.991 -56.549  1.00  0.00     0.002 A 
HETATM   30  C   UNL     1     -42.617  58.647 -55.233  1.00  0.00     0.011 A 
ENDBRANCH   9  23
BRANCH   7  31
HETATM   31  C   UNL     1     -46.240  60.965 -52.708  1.00  0.00     0.085 C 
BRANCH  31  32
HETATM   32  C   UNL     1     -45.853  62.211 -51.905  1.00  0.00     0.034 C 
BRANCH  32  33
HETATM   33  C   UNL     1     -46.727  62.472 -50.682  1.00  0.00     0.164 C 
BRANCH  33  34
HETATM   34  O   UNL     1     -46.419  61.571 -49.629  1.00  0.00    -0.401 OA
HETATM   35  H   UNL     1     -45.529  61.815 -49.306  1.00  0.00     0.209 HD
ENDBRANCH  33  34
ENDBRANCH  32  33
ENDBRANCH  31  32
ENDBRANCH   7  31
TORSDOF 7
ENDMDL
MODEL 2
REMARK VINA RESULT:      -8.2      3.193      5.095
REMARK  7 active torsions:
REMARK  status: ('A' for Active; 'I' for Inactive)
REMARK    1  A    between atoms: C_7  and  C_8 
REMARK    2  A    between atoms: C_8  and  C_9 
REMARK    3  A    between atoms: C_9  and  C_10 
REMARK    4  A    between atoms: C_10  and  O_11 
REMARK    5  A    between atoms: C_13  and  C_14 
REMARK    6  A    between atoms: C_22  and  C_23 
REMARK       I    between atoms: C_23  and  N_24 
REMARK    7  A    between atoms: N_24  and  C_25 
ROOT
HETATM    1  C   UNL     1     -43.697  53.376 -56.167  1.00  0.00     0.070 C 
HETATM    2  C   UNL     1     -43.079  54.753 -56.122  1.00  0.00     0.037 C 
HETATM    3  N   UNL     1     -43.352  55.561 -57.219  1.00  0.00    -0.192 N 
HETATM    4  C   UNL     1     -43.063  56.875 -57.258  1.00  0.00     0.726 A 
HETATM    5  N   UNL     1     -42.354  57.439 -56.234  1.00  0.00    -0.083 N 
HETATM    6  N   UNL     1     -42.185  58.767 -56.427  1.00  0.00    -0.140 NA
HETATM    7  C   UNL     1     -42.855  58.938 -57.579  1.00  0.00     0.166 A 
HETATM    8  N   UNL     1     -43.389  57.797 -58.126  1.00  0.00    -0.046 NA
HETATM    9  C   UNL     1     -41.841  56.683 -55.080  1.00  0.00     0.204 C 
HETATM   10  C   UNL     1     -42.344  55.239 -55.088  1.00  0.00     0.062 C 
HETATM   11  H   UNL     1     -43.983  55.195 -57.928  1.00  0.00     0.184 HD
ENDROOT
BRANCH  10  12
HETATM   12  C   UNL     1     -42.019  54.405 -53.898  1.00  0.00     0.256 C 
HETATM   13  N   UNL     1     -40.849  53.687 -54.035  1.00  0.00    -0.323 N 
HETATM   14  H   UNL     1     -40.310  53.831 -54.879  1.00  0.00     0.169 HD
HETATM   15  O   UNL     1     -42.758  54.423 -52.924  1.00  0.00    -0.267 OA
BRANCH  13  16
HETATM   16  C   UNL     1     -40.362  52.693 -53.156  1.00  0.00     0.035 A 
HETATM   17  C   UNL     1     -40.238  52.866 -51.772  1.00  0.00     0.032 A 
HETATM   18  C   UNL     1     -39.788  51.820 -50.961  1.00  0.00     0.044 A 
HETATM   19  C   UNL     1     -39.460  50.599 -51.534  1.00  0.00     0.116 A 
HETATM   20  F   UNL     1     -39.039  49.594 -50.756  1.00  0.00    -0.206 F 
HETATM   21  C   UNL     1     -39.569  50.407 -52.904  1.00  0.00     0.044 A 
HETATM   22  C   UNL     1     -40.017  51.454 -53.716  1.00  0.00     0.032 A 
ENDBRANCH  13  16
ENDBRANCH  10  12
BRANCH   9  23
HETATM   23  C   UNL     1     -42.033  57.476 -53.787  1.00  0.00    -0.005 A 
HETATM   24  C   UNL     1     -43.293  57.790 -53.232  1.00  0.00     0.064 A 
HETATM   25 CL   UNL     1     -44.755  57.278 -54.018  1.00  0.00    -0.082 Cl
HETATM   26  C   UNL     1     -43.365  58.520 -52.031  1.00  0.00     0.056 A 
HETATM   27 CL   UNL     1     -44.871  58.938 -51.284  1.00  0.00    -0.083 Cl
HETATM   28  C   UNL     1     -42.201  58.941 -51.385  1.00  0.00     0.026 A 
HETATM   29  C   UNL     1     -40.955  58.643 -51.926  1.00  0.00     0.002 A 
HETATM   30  C   UNL     1     -40.872  57.918 -53.114  1.00  0.00     0.011 A 
ENDBRANCH   9  23
BRANCH   7  31
HETATM   31  C   UNL     1     -43.106  60.283 -58.157  1.00  0.00     0.085 C 
BRANCH  31  32
HETATM   32  C   UNL     1     -42.137  60.627 -59.292  1.00  0.00     0.034 C 
BRANCH  32  33
HETATM   33  C   UNL     1     -41.039  61.616 -58.910  1.00  0.00     0.164 C 
BRANCH  33  34
HETATM   34  O   UNL     1     -40.674  61.476 -57.545  1.00  0.00    -0.401 OA
HETATM   35  H   UNL     1     -39.810  61.020 -57.534  1.00  0.00     0.209 HD
ENDBRANCH  33  34
ENDBRANCH  32  33
ENDBRANCH  31  32
ENDBRANCH   7  31
TORSDOF 7
ENDMDL
MODEL 3
REMARK VINA RESULT:      -8.0      1.386      1.616
REMARK  7 active torsions:
REMARK  status: ('A' for Active; 'I' for Inactive)
REMARK    1  A    between atoms: C_7  and  C_8 
REMARK    2  A    between atoms: C_8  and  C_9 
REMARK    3  A    between atoms: C_9  and  C_10 
REMARK    4  A    between atoms: C_10  and  O_11 
REMARK    5  A    between atoms: C_13  and  C_14 
REMARK    6  A    between atoms: C_22  and  C_23 
REMARK       I    between atoms: C_23  and  N_24 
REMARK    7  A    between atoms: N_24  and  C_25 
ROOT
HETATM    1  C   UNL     1     -40.849  57.339 -50.514  1.00  0.00     0.070 C 
HETATM    2  C   UNL     1     -42.056  57.613 -51.378  1.00  0.00     0.037 C 
HETATM    3  N   UNL     1     -42.919  58.592 -50.900  1.00  0.00    -0.192 N 
HETATM    4  C   UNL     1     -43.923  59.112 -51.629  1.00  0.00     0.726 A 
HETATM    5  N   UNL     1     -44.211  58.579 -52.855  1.00  0.00    -0.083 N 
HETATM    6  N   UNL     1     -45.225  59.244 -53.454  1.00  0.00    -0.140 NA
HETATM    7  C   UNL     1     -45.477  60.193 -52.536  1.00  0.00     0.166 A 
HETATM    8  N   UNL     1     -44.711  60.130 -51.397  1.00  0.00    -0.046 NA
HETATM    9  C   UNL     1     -43.501  57.426 -53.433  1.00  0.00     0.204 C 
HETATM   10  C   UNL     1     -42.306  57.015 -52.572  1.00  0.00     0.062 C 
HETATM   11  H   UNL     1     -42.648  59.083 -50.051  1.00  0.00     0.184 HD
ENDROOT
BRANCH  10  12
HETATM   12  C   UNL     1     -41.415  55.954 -53.119  1.00  0.00     0.256 C 
HETATM   13  N   UNL     1     -41.776  54.681 -52.728  1.00  0.00    -0.323 N 
HETATM   14  H   UNL     1     -42.615  54.585 -52.172  1.00  0.00     0.169 HD
HETATM   15  O   UNL     1     -40.485  56.260 -53.851  1.00  0.00    -0.267 OA
BRANCH  13  16
HETATM   16  C   UNL     1     -41.042  53.493 -52.947  1.00  0.00     0.035 A 
HETATM   17  C   UNL     1     -40.225  52.890 -51.983  1.00  0.00     0.032 A 
HETATM   18  C   UNL     1     -39.563  51.690 -52.260  1.00  0.00     0.044 A 
HETATM   19  C   UNL     1     -39.718  51.091 -53.502  1.00  0.00     0.116 A 
HETATM   20  F   UNL     1     -39.093  49.936 -53.763  1.00  0.00    -0.206 F 
HETATM   21  C   UNL     1     -40.518  51.674 -54.475  1.00  0.00     0.044 A 
HETATM   22  C   UNL     1     -41.178  52.875 -54.199  1.00  0.00     0.032 A 
ENDBRANCH  13  16
ENDBRANCH  10  12
BRANCH   9  23
HETATM   23  C   UNL     1     -43.238  57.646 -54.923  1.00  0.00    -0.005 A 
HETATM   24  C   UNL     1     -42.515  58.741 -55.445  1.00  0.00     0.064 A 
HETATM   25 CL   UNL     1     -41.859  59.951 -54.385  1.00  0.00    -0.082 Cl
HETATM   26  C   UNL     1     -42.320  58.850 -56.834  1.00  0.00     0.056 A 
HETATM   27 CL   UNL     1     -41.438  60.158 -57.552  1.00  0.00    -0.083 Cl
HETATM   28  C   UNL     1     -42.840  57.888 -57.703  1.00  0.00     0.026 A 
HETATM   29  C   UNL     1     -43.559  56.810 -57.200  1.00  0.00     0.002 A 
HETATM   30  C   UNL     1     -43.756  56.690 -55.825  1.00  0.00     0.011 A 
ENDBRANCH   9  23
BRANCH   7  31
HETATM   31  C   UNL     1     -46.429  61.304 -52.787  1.00  0.00     0.085 C 
BRANCH  31  32
HETATM   32  C   UNL     1     -46.127  62.541 -51.936  1.00  0.00     0.034 C 
BRANCH  32  33
HETATM   33  C   UNL     1     -47.028  62.705 -50.714  1.00  0.00     0.164 C 
BRANCH  33  34
HETATM   34  O   UNL     1     -46.599  61.874 -49.646  1.00  0.00    -0.401 OA
HETATM   35  H   UNL     1     -45.791  61.418 -49.955  1.00  0.00     0.209 HD
ENDBRANCH  33  34
ENDBRANCH  32  33
ENDBRANCH  31  32
ENDBRANCH   7  31
TORSDOF 7
ENDMDL
MODEL 4
REMARK VINA RESULT:      -7.9      3.186      4.857
REMARK  7 active torsions:
REMARK  status: ('A' for Active; 'I' for Inactive)
REMARK    1  A    between atoms: C_7  and  C_8 
REMARK    2  A    between atoms: C_8  and  C_9 
REMARK    3  A    between atoms: C_9  and  C_10 
REMARK    4  A    between atoms: C_10  and  O_11 
REMARK    5  A    between atoms: C_13  and  C_14 
REMARK    6  A    between atoms: C_22  and  C_23 
REMARK       I    between atoms: C_23  and  N_24 
REMARK    7  A    between atoms: N_24  and  C_25 
ROOT
HETATM    1  C   UNL     1     -43.241  55.139 -57.545  1.00  0.00     0.070 C 
HETATM    2  C   UNL     1     -42.727  56.438 -56.971  1.00  0.00     0.037 C 
HETATM    3  N   UNL     1     -42.765  57.525 -57.836  1.00  0.00    -0.192 N 
HETATM    4  C   UNL     1     -42.546  58.792 -57.440  1.00  0.00     0.726 A 
HETATM    5  N   UNL     1     -42.141  59.036 -56.156  1.00  0.00    -0.083 N 
HETATM    6  N   UNL     1     -42.002  60.361 -55.929  1.00  0.00    -0.140 NA
HETATM    7  C   UNL     1     -42.376  60.859 -57.120  1.00  0.00     0.166 A 
HETATM    8  N   UNL     1     -42.698  59.925 -58.074  1.00  0.00    -0.046 NA
HETATM    9  C   UNL     1     -41.889  57.979 -55.163  1.00  0.00     0.204 C 
HETATM   10  C   UNL     1     -42.296  56.603 -55.693  1.00  0.00     0.062 C 
HETATM   11  H   UNL     1     -43.182  57.382 -58.753  1.00  0.00     0.184 HD
ENDROOT
BRANCH  10  12
HETATM   12  C   UNL     1     -42.230  55.465 -54.735  1.00  0.00     0.256 C 
HETATM   13  N   UNL     1     -40.941  55.067 -54.446  1.00  0.00    -0.323 N 
HETATM   14  H   UNL     1     -40.186  55.602 -54.854  1.00  0.00     0.169 HD
HETATM   15  O   UNL     1     -43.262  54.995 -54.278  1.00  0.00    -0.267 OA
BRANCH  13  16
HETATM   16  C   UNL     1     -40.557  53.925 -53.707  1.00  0.00     0.035 A 
HETATM   17  C   UNL     1     -40.172  52.711 -54.288  1.00  0.00     0.032 A 
HETATM   18  C   UNL     1     -39.764  51.638 -53.490  1.00  0.00     0.044 A 
HETATM   19  C   UNL     1     -39.741  51.778 -52.110  1.00  0.00     0.116 A 
HETATM   20  F   UNL     1     -39.340  50.753 -51.346  1.00  0.00    -0.206 F 
HETATM   21  C   UNL     1     -40.125  52.970 -51.511  1.00  0.00     0.044 A 
HETATM   22  C   UNL     1     -40.535  54.043 -52.309  1.00  0.00     0.032 A 
ENDBRANCH  13  16
ENDBRANCH  10  12
BRANCH   9  23
HETATM   23  C   UNL     1     -42.435  58.383 -53.794  1.00  0.00    -0.005 A 
HETATM   24  C   UNL     1     -41.626  58.762 -52.701  1.00  0.00     0.064 A 
HETATM   25 CL   UNL     1     -39.896  58.789 -52.851  1.00  0.00    -0.082 Cl
HETATM   26  C   UNL     1     -42.226  59.126 -51.481  1.00  0.00     0.056 A 
HETATM   27 CL   UNL     1     -41.305  59.609 -50.096  1.00  0.00    -0.083 Cl
HETATM   28  C   UNL     1     -43.616  59.109 -51.340  1.00  0.00     0.026 A 
HETATM   29  C   UNL     1     -44.422  58.732 -52.408  1.00  0.00     0.002 A 
HETATM   30  C   UNL     1     -43.838  58.373 -53.622  1.00  0.00     0.011 A 
ENDBRANCH   9  23
BRANCH   7  31
HETATM   31  C   UNL     1     -42.548  62.315 -57.350  1.00  0.00     0.085 C 
BRANCH  31  32
HETATM   32  C   UNL     1     -43.745  62.895 -56.591  1.00  0.00     0.034 C 
BRANCH  32  33
HETATM   33  C   UNL     1     -43.374  63.753 -55.384  1.00  0.00     0.164 C 
BRANCH  33  34
HETATM   34  O   UNL     1     -42.689  62.989 -54.402  1.00  0.00    -0.401 OA
HETATM   35  H   UNL     1     -42.078  62.399 -54.885  1.00  0.00     0.209 HD
ENDBRANCH  33  34
ENDBRANCH  32  33
ENDBRANCH  31  32
ENDBRANCH   7  31
TORSDOF 7
ENDMDL
MODEL 5
REMARK VINA RESULT:      -7.8      3.640      5.869
REMARK  7 active torsions:
REMARK  status: ('A' for Active; 'I' for Inactive)
REMARK    1  A    between atoms: C_7  and  C_8 
REMARK    2  A    between atoms: C_8  and  C_9 
REMARK    3  A    between atoms: C_9  and  C_10 
REMARK    4  A    between atoms: C_10  and  O_11 
REMARK    5  A    between atoms: C_13  and  C_14 
REMARK    6  A    between atoms: C_22  and  C_23 
REMARK       I    between atoms: C_23  and  N_24 
REMARK    7  A    between atoms: N_24  and  C_25 
ROOT
HETATM    1  C   UNL     1     -43.070  53.977 -55.545  1.00  0.00     0.070 C 
HETATM    2  C   UNL     1     -42.669  55.430 -55.636  1.00  0.00     0.037 C 
HETATM    3  N   UNL     1     -42.556  55.934 -56.926  1.00  0.00    -0.192 N 
HETATM    4  C   UNL     1     -42.414  57.245 -57.197  1.00  0.00     0.726 A 
HETATM    5  N   UNL     1     -42.242  58.130 -56.169  1.00  0.00    -0.083 N 
HETATM    6  N   UNL     1     -42.149  59.399 -56.624  1.00  0.00    -0.140 NA
HETATM    7  C   UNL     1     -42.308  59.203 -57.944  1.00  0.00     0.166 A 
HETATM    8  N   UNL     1     -42.454  57.894 -58.332  1.00  0.00    -0.046 NA
HETATM    9  C   UNL     1     -42.166  57.735 -54.753  1.00  0.00     0.204 C 
HETATM   10  C   UNL     1     -42.470  56.247 -54.569  1.00  0.00     0.062 C 
HETATM   11  H   UNL     1     -42.804  55.317 -57.696  1.00  0.00     0.184 HD
ENDROOT
BRANCH  10  12
HETATM   12  C   UNL     1     -42.571  55.747 -53.170  1.00  0.00     0.256 C 
HETATM   13  N   UNL     1     -41.345  55.516 -52.581  1.00  0.00    -0.323 N 
HETATM   14  H   UNL     1     -40.519  55.752 -53.117  1.00  0.00     0.169 HD
HETATM   15  O   UNL     1     -43.670  55.600 -52.656  1.00  0.00    -0.267 OA
BRANCH  13  16
HETATM   16  C   UNL     1     -41.113  54.894 -51.334  1.00  0.00     0.035 A 
HETATM   17  C   UNL     1     -40.635  53.587 -51.189  1.00  0.00     0.032 A 
HETATM   18  C   UNL     1     -40.389  53.054 -49.920  1.00  0.00     0.044 A 
HETATM   19  C   UNL     1     -40.622  53.831 -48.793  1.00  0.00     0.116 A 
HETATM   20  F   UNL     1     -40.376  53.324 -47.578  1.00  0.00    -0.206 F 
HETATM   21  C   UNL     1     -41.101  55.127 -48.912  1.00  0.00     0.044 A 
HETATM   22  C   UNL     1     -41.349  55.659 -50.181  1.00  0.00     0.032 A 
ENDBRANCH  13  16
ENDBRANCH  10  12
BRANCH   9  23
HETATM   23  C   UNL     1     -42.947  58.714 -53.876  1.00  0.00    -0.005 A 
HETATM   24  C   UNL     1     -42.386  59.424 -52.791  1.00  0.00     0.064 A 
HETATM   25 CL   UNL     1     -40.714  59.214 -52.370  1.00  0.00    -0.082 Cl
HETATM   26  C   UNL     1     -43.187  60.311 -52.048  1.00  0.00     0.056 A 
HETATM   27 CL   UNL     1     -42.573  61.222 -50.709  1.00  0.00    -0.083 Cl
HETATM   28  C   UNL     1     -44.534  60.492 -52.371  1.00  0.00     0.026 A 
HETATM   29  C   UNL     1     -45.097  59.794 -53.434  1.00  0.00     0.002 A 
HETATM   30  C   UNL     1     -44.312  58.915 -54.178  1.00  0.00     0.011 A 
ENDBRANCH   9  23
BRANCH   7  31
HETATM   31  C   UNL     1     -42.441  60.329 -58.902  1.00  0.00     0.085 C 
BRANCH  31  32
HETATM   32  C   UNL     1     -43.847  60.433 -59.499  1.00  0.00     0.034 C 
BRANCH  32  33
HETATM   33  C   UNL     1     -43.988  59.839 -60.898  1.00  0.00     0.164 C 
BRANCH  33  34
HETATM   34  O   UNL     1     -44.263  58.448 -60.839  1.00  0.00    -0.401 OA
HETATM   35  H   UNL     1     -43.771  58.099 -60.069  1.00  0.00     0.209 HD
ENDBRANCH  33  34
ENDBRANCH  32  33
ENDBRANCH  31  32
ENDBRANCH   7  31
TORSDOF 7
ENDMDL
MODEL 6
REMARK VINA RESULT:      -7.8      3.376      5.418
REMARK  7 active torsions:
REMARK  status: ('A' for Active; 'I' for Inactive)
REMARK    1  A    between atoms: C_7  and  C_8 
REMARK    2  A    between atoms: C_8  and  C_9 
REMARK    3  A    between atoms: C_9  and  C_10 
REMARK    4  A    between atoms: C_10  and  O_11 
REMARK    5  A    between atoms: C_13  and  C_14 
REMARK    6  A    between atoms: C_22  and  C_23 
REMARK       I    between atoms: C_23  and  N_24 
REMARK    7  A    between atoms: N_24  and  C_25 
ROOT
HETATM    1  C   UNL     1     -43.234  55.055 -57.504  1.00  0.00     0.070 C 
HETATM    2  C   UNL     1     -42.713  56.355 -56.939  1.00  0.00     0.037 C 
HETATM    3  N   UNL     1     -42.736  57.434 -57.814  1.00  0.00    -0.192 N 
HETATM    4  C   UNL     1     -42.509  58.703 -57.428  1.00  0.00     0.726 A 
HETATM    5  N   UNL     1     -42.110  58.956 -56.145  1.00  0.00    -0.083 N 
HETATM    6  N   UNL     1     -41.960  60.282 -55.929  1.00  0.00    -0.140 NA
HETATM    7  C   UNL     1     -42.323  60.772 -57.127  1.00  0.00     0.166 A 
HETATM    8  N   UNL     1     -42.647  59.832 -58.075  1.00  0.00    -0.046 NA
HETATM    9  C   UNL     1     -41.872  57.906 -55.141  1.00  0.00     0.204 C 
HETATM   10  C   UNL     1     -42.288  56.529 -55.660  1.00  0.00     0.062 C 
HETATM   11  H   UNL     1     -43.149  57.286 -58.732  1.00  0.00     0.184 HD
ENDROOT
BRANCH  10  12
HETATM   12  C   UNL     1     -42.238  55.399 -54.691  1.00  0.00     0.256 C 
HETATM   13  N   UNL     1     -40.954  55.041 -54.334  1.00  0.00    -0.323 N 
HETATM   14  H   UNL     1     -40.195  55.595 -54.709  1.00  0.00     0.169 HD
HETATM   15  O   UNL     1     -43.277  54.903 -54.282  1.00  0.00    -0.267 OA
BRANCH  13  16
HETATM   16  C   UNL     1     -40.575  53.915 -53.568  1.00  0.00     0.035 A 
HETATM   17  C   UNL     1     -40.582  53.884 -52.169  1.00  0.00     0.032 A 
HETATM   18  C   UNL     1     -40.235  52.717 -51.481  1.00  0.00     0.044 A 
HETATM   19  C   UNL     1     -39.879  51.580 -52.193  1.00  0.00     0.116 A 
HETATM   20  F   UNL     1     -39.557  50.460 -51.533  1.00  0.00    -0.206 F 
HETATM   21  C   UNL     1     -39.859  51.590 -53.580  1.00  0.00     0.044 A 
HETATM   22  C   UNL     1     -40.205  52.757 -54.268  1.00  0.00     0.032 A 
ENDBRANCH  13  16
ENDBRANCH  10  12
BRANCH   9  23
HETATM   23  C   UNL     1     -42.423  58.328 -53.778  1.00  0.00    -0.005 A 
HETATM   24  C   UNL     1     -41.619  58.737 -52.692  1.00  0.00     0.064 A 
HETATM   25 CL   UNL     1     -39.889  58.783 -52.844  1.00  0.00    -0.082 Cl
HETATM   26  C   UNL     1     -42.223  59.115 -51.479  1.00  0.00     0.056 A 
HETATM   27 CL   UNL     1     -41.307  59.635 -50.104  1.00  0.00    -0.083 Cl
HETATM   28  C   UNL     1     -43.612  59.083 -51.337  1.00  0.00     0.026 A 
HETATM   29  C   UNL     1     -44.414  58.677 -52.398  1.00  0.00     0.002 A 
HETATM   30  C   UNL     1     -43.825  58.303 -53.605  1.00  0.00     0.011 A 
ENDBRANCH   9  23
BRANCH   7  31
HETATM   31  C   UNL     1     -42.481  62.227 -57.372  1.00  0.00     0.085 C 
BRANCH  31  32
HETATM   32  C   UNL     1     -41.874  62.669 -58.707  1.00  0.00     0.034 C 
BRANCH  32  33
HETATM   33  C   UNL     1     -40.500  63.326 -58.592  1.00  0.00     0.164 C 
BRANCH  33  34
HETATM   34  O   UNL     1     -39.499  62.533 -59.212  1.00  0.00    -0.401 OA
HETATM   35  H   UNL     1     -39.119  61.966 -58.512  1.00  0.00     0.209 HD
ENDBRANCH  33  34
ENDBRANCH  32  33
ENDBRANCH  31  32
ENDBRANCH   7  31
TORSDOF 7
ENDMDL
MODEL 7
REMARK VINA RESULT:      -7.7      2.364      2.932
REMARK  7 active torsions:
REMARK  status: ('A' for Active; 'I' for Inactive)
REMARK    1  A    between atoms: C_7  and  C_8 
REMARK    2  A    between atoms: C_8  and  C_9 
REMARK    3  A    between atoms: C_9  and  C_10 
REMARK    4  A    between atoms: C_10  and  O_11 
REMARK    5  A    between atoms: C_13  and  C_14 
REMARK    6  A    between atoms: C_22  and  C_23 
REMARK       I    between atoms: C_23  and  N_24 
REMARK    7  A    between atoms: N_24  and  C_25 
ROOT
HETATM    1  C   UNL     1     -39.640  58.913 -50.697  1.00  0.00     0.070 C 
HETATM    2  C   UNL     1     -41.137  59.020 -50.868  1.00  0.00     0.037 C 
HETATM    3  N   UNL     1     -41.759  59.972 -50.069  1.00  0.00    -0.192 N 
HETATM    4  C   UNL     1     -43.040  60.349 -50.232  1.00  0.00     0.726 A 
HETATM    5  N   UNL     1     -43.826  59.691 -51.137  1.00  0.00    -0.083 N 
HETATM    6  N   UNL     1     -45.068  60.224 -51.188  1.00  0.00    -0.140 NA
HETATM    7  C   UNL     1     -44.944  61.229 -50.305  1.00  0.00     0.166 A 
HETATM    8  N   UNL     1     -43.721  61.323 -49.686  1.00  0.00    -0.046 NA
HETATM    9  C   UNL     1     -43.366  58.547 -51.941  1.00  0.00     0.204 C 
HETATM   10  C   UNL     1     -41.867  58.302 -51.761  1.00  0.00     0.062 C 
HETATM   11  H   UNL     1     -41.166  60.554 -49.483  1.00  0.00     0.184 HD
ENDROOT
BRANCH  10  12
HETATM   12  C   UNL     1     -41.244  57.266 -52.630  1.00  0.00     0.256 C 
HETATM   13  N   UNL     1     -41.625  55.980 -52.309  1.00  0.00    -0.323 N 
HETATM   14  H   UNL     1     -42.310  55.867 -51.573  1.00  0.00     0.169 HD
HETATM   15  O   UNL     1     -40.493  57.604 -53.534  1.00  0.00    -0.267 OA
BRANCH  13  16
HETATM   16  C   UNL     1     -41.087  54.784 -52.837  1.00  0.00     0.035 A 
HETATM   17  C   UNL     1     -40.869  54.562 -54.202  1.00  0.00     0.032 A 
HETATM   18  C   UNL     1     -40.292  53.368 -54.646  1.00  0.00     0.044 A 
HETATM   19  C   UNL     1     -39.933  52.395 -53.724  1.00  0.00     0.116 A 
HETATM   20  F   UNL     1     -39.371  51.256 -54.149  1.00  0.00    -0.206 F 
HETATM   21  C   UNL     1     -40.146  52.591 -52.367  1.00  0.00     0.044 A 
HETATM   22  C   UNL     1     -40.725  53.784 -51.923  1.00  0.00     0.032 A 
ENDBRANCH  13  16
ENDBRANCH  10  12
BRANCH   9  23
HETATM   23  C   UNL     1     -43.883  58.654 -53.376  1.00  0.00    -0.005 A 
HETATM   24  C   UNL     1     -43.490  59.661 -54.285  1.00  0.00     0.064 A 
HETATM   25 CL   UNL     1     -42.357  60.888 -53.807  1.00  0.00    -0.082 Cl
HETATM   26  C   UNL     1     -44.017  59.669 -55.589  1.00  0.00     0.056 A 
HETATM   27 CL   UNL     1     -43.581  60.865 -56.764  1.00  0.00    -0.083 Cl
HETATM   28  C   UNL     1     -44.930  58.692 -55.992  1.00  0.00     0.026 A 
HETATM   29  C   UNL     1     -45.328  57.699 -55.104  1.00  0.00     0.002 A 
HETATM   30  C   UNL     1     -44.810  57.681 -53.810  1.00  0.00     0.011 A 
ENDBRANCH   9  23
BRANCH   7  31
HETATM   31  C   UNL     1     -46.012  62.240 -50.101  1.00  0.00     0.085 C 
BRANCH  31  32
HETATM   32  C   UNL     1     -46.043  62.785 -48.670  1.00  0.00     0.034 C 
BRANCH  32  33
HETATM   33  C   UNL     1     -47.444  62.976 -48.095  1.00  0.00     0.164 C 
BRANCH  33  34
HETATM   34  O   UNL     1     -47.760  61.950 -47.165  1.00  0.00    -0.401 OA
HETATM   35  H   UNL     1     -47.124  62.036 -46.428  1.00  0.00     0.209 HD
ENDBRANCH  33  34
ENDBRANCH  32  33
ENDBRANCH  31  32
ENDBRANCH   7  31
TORSDOF 7
ENDMDL
MODEL 8
REMARK VINA RESULT:      -7.3      3.644      7.999
REMARK  7 active torsions:
REMARK  status: ('A' for Active; 'I' for Inactive)
REMARK    1  A    between atoms: C_7  and  C_8 
REMARK    2  A    between atoms: C_8  and  C_9 
REMARK    3  A    between atoms: C_9  and  C_10 
REMARK    4  A    between atoms: C_10  and  O_11 
REMARK    5  A    between atoms: C_13  and  C_14 
REMARK    6  A    between atoms: C_22  and  C_23 
REMARK       I    between atoms: C_23  and  N_24 
REMARK    7  A    between atoms: N_24  and  C_25 
ROOT
HETATM    1  C   UNL     1     -44.440  55.154 -50.118  1.00  0.00     0.070 C 
HETATM    2  C   UNL     1     -43.303  55.136 -51.112  1.00  0.00     0.037 C 
HETATM    3  N   UNL     1     -42.555  53.965 -51.137  1.00  0.00    -0.192 N 
HETATM    4  C   UNL     1     -41.646  53.690 -52.090  1.00  0.00     0.726 A 
HETATM    5  N   UNL     1     -41.332  54.645 -53.018  1.00  0.00    -0.083 N 
HETATM    6  N   UNL     1     -40.429  54.184 -53.911  1.00  0.00    -0.140 NA
HETATM    7  C   UNL     1     -40.269  52.923 -53.476  1.00  0.00     0.166 A 
HETATM    8  N   UNL     1     -40.985  52.592 -52.351  1.00  0.00    -0.046 NA
HETATM    9  C   UNL     1     -41.910  55.999 -53.025  1.00  0.00     0.204 C 
HETATM   10  C   UNL     1     -43.017  56.142 -51.980  1.00  0.00     0.062 C 
HETATM   11  H   UNL     1     -42.859  53.200 -50.539  1.00  0.00     0.184 HD
ENDROOT
BRANCH  10  12
HETATM   12  C   UNL     1     -43.786  57.417 -51.981  1.00  0.00     0.256 C 
HETATM   13  N   UNL     1     -43.234  58.390 -51.172  1.00  0.00    -0.323 N 
HETATM   14  H   UNL     1     -42.360  58.172 -50.712  1.00  0.00     0.169 HD
HETATM   15  O   UNL     1     -44.788  57.522 -52.673  1.00  0.00    -0.267 OA
BRANCH  13  16
HETATM   16  C   UNL     1     -43.811  59.637 -50.840  1.00  0.00     0.035 A 
HETATM   17  C   UNL     1     -45.131  59.795 -50.404  1.00  0.00     0.032 A 
HETATM   18  C   UNL     1     -45.618  61.058 -50.052  1.00  0.00     0.044 A 
HETATM   19  C   UNL     1     -44.784  62.164 -50.137  1.00  0.00     0.116 A 
HETATM   20  F   UNL     1     -45.247  63.372 -49.790  1.00  0.00    -0.206 F 
HETATM   21  C   UNL     1     -43.473  62.031 -50.573  1.00  0.00     0.044 A 
HETATM   22  C   UNL     1     -42.987  60.768 -50.927  1.00  0.00     0.032 A 
ENDBRANCH  13  16
ENDBRANCH  10  12
BRANCH   9  23
HETATM   23  C   UNL     1     -42.244  56.435 -54.452  1.00  0.00    -0.005 A 
HETATM   24  C   UNL     1     -41.970  57.720 -54.970  1.00  0.00     0.064 A 
HETATM   25 CL   UNL     1     -41.213  58.928 -53.978  1.00  0.00    -0.082 Cl
HETATM   26  C   UNL     1     -42.310  58.023 -56.301  1.00  0.00     0.056 A 
HETATM   27 CL   UNL     1     -42.001  59.572 -57.013  1.00  0.00    -0.083 Cl
HETATM   28  C   UNL     1     -42.921  57.065 -57.114  1.00  0.00     0.026 A 
HETATM   29  C   UNL     1     -43.200  55.799 -56.612  1.00  0.00     0.002 A 
HETATM   30  C   UNL     1     -42.866  55.488 -55.295  1.00  0.00     0.011 A 
ENDBRANCH   9  23
BRANCH   7  31
HETATM   31  C   UNL     1     -39.471  51.921 -54.226  1.00  0.00     0.085 C 
BRANCH  31  32
HETATM   32  C   UNL     1     -40.144  50.545 -54.271  1.00  0.00     0.034 C 
BRANCH  32  33
HETATM   33  C   UNL     1     -39.494  49.493 -53.377  1.00  0.00     0.164 C 
BRANCH  33  34
HETATM   34  O   UNL     1     -39.692  49.793 -52.003  1.00  0.00    -0.401 OA
HETATM   35  H   UNL     1     -40.006  50.718 -51.963  1.00  0.00     0.209 HD
ENDBRANCH  33  34
ENDBRANCH  32  33
ENDBRANCH  31  32
ENDBRANCH   7  31
TORSDOF 7
ENDMDL
MODEL 9
REMARK VINA RESULT:      -7.3      4.327      7.846
REMARK  7 active torsions:
REMARK  status: ('A' for Active; 'I' for Inactive)
REMARK    1  A    between atoms: C_7  and  C_8 
REMARK    2  A    between atoms: C_8  and  C_9 
REMARK    3  A    between atoms: C_9  and  C_10 
REMARK    4  A    between atoms: C_10  and  O_11 
REMARK    5  A    between atoms: C_13  and  C_14 
REMARK    6  A    between atoms: C_22  and  C_23 
REMARK       I    between atoms: C_23  and  N_24 
REMARK    7  A    between atoms: N_24  and  C_25 
ROOT
HETATM    1  C   UNL     1     -42.871  55.043 -57.112  1.00  0.00     0.070 C 
HETATM    2  C   UNL     1     -42.774  55.084 -55.606  1.00  0.00     0.037 C 
HETATM    3  N   UNL     1     -42.170  53.977 -55.020  1.00  0.00    -0.192 N 
HETATM    4  C   UNL     1     -41.812  53.932 -53.724  1.00  0.00     0.726 A 
HETATM    5  N   UNL     1     -42.161  54.960 -52.892  1.00  0.00    -0.083 N 
HETATM    6  N   UNL     1     -41.692  54.759 -51.640  1.00  0.00    -0.140 NA
HETATM    7  C   UNL     1     -41.036  53.597 -51.803  1.00  0.00     0.166 A 
HETATM    8  N   UNL     1     -41.105  53.053 -53.062  1.00  0.00    -0.046 NA
HETATM    9  C   UNL     1     -42.951  56.126 -53.320  1.00  0.00     0.204 C 
HETATM   10  C   UNL     1     -43.181  56.123 -54.832  1.00  0.00     0.062 C 
HETATM   11  H   UNL     1     -41.793  53.264 -55.640  1.00  0.00     0.184 HD
ENDROOT
BRANCH  10  12
HETATM   12  C   UNL     1     -43.841  57.323 -55.415  1.00  0.00     0.256 C 
HETATM   13  N   UNL     1     -42.990  58.102 -56.174  1.00  0.00    -0.323 N 
HETATM   14  H   UNL     1     -42.044  57.767 -56.303  1.00  0.00     0.169 HD
HETATM   15  O   UNL     1     -45.030  57.522 -55.213  1.00  0.00    -0.267 OA
BRANCH  13  16
HETATM   16  C   UNL     1     -43.273  59.375 -56.718  1.00  0.00     0.035 A 
HETATM   17  C   UNL     1     -43.962  59.575 -57.920  1.00  0.00     0.032 A 
HETATM   18  C   UNL     1     -44.242  60.868 -58.374  1.00  0.00     0.044 A 
HETATM   19  C   UNL     1     -43.833  61.962 -57.624  1.00  0.00     0.116 A 
HETATM   20  F   UNL     1     -44.111  63.200 -58.054  1.00  0.00    -0.206 F 
HETATM   21  C   UNL     1     -43.143  61.787 -56.433  1.00  0.00     0.044 A 
HETATM   22  C   UNL     1     -42.862  60.494 -55.980  1.00  0.00     0.032 A 
ENDBRANCH  13  16
ENDBRANCH  10  12
BRANCH   9  23
HETATM   23  C   UNL     1     -42.392  57.410 -52.707  1.00  0.00    -0.005 A 
HETATM   24  C   UNL     1     -43.115  58.246 -51.828  1.00  0.00     0.064 A 
HETATM   25 CL   UNL     1     -44.746  57.853 -51.378  1.00  0.00    -0.082 Cl
HETATM   26  C   UNL     1     -42.509  59.406 -51.310  1.00  0.00     0.056 A 
HETATM   27 CL   UNL     1     -43.325  60.478 -50.222  1.00  0.00    -0.083 Cl
HETATM   28  C   UNL     1     -41.199  59.740 -51.662  1.00  0.00     0.026 A 
HETATM   29  C   UNL     1     -40.480  58.927 -52.530  1.00  0.00     0.002 A 
HETATM   30  C   UNL     1     -41.070  57.775 -53.048  1.00  0.00     0.011 A 
ENDBRANCH   9  23
BRANCH   7  31
HETATM   31  C   UNL     1     -40.195  53.006 -50.732  1.00  0.00     0.085 C 
BRANCH  31  32
HETATM   32  C   UNL     1     -39.876  54.004 -49.614  1.00  0.00     0.034 C 
BRANCH  32  33
HETATM   33  C   UNL     1     -40.649  53.772 -48.319  1.00  0.00     0.164 C 
BRANCH  33  34
HETATM   34  O   UNL     1     -39.883  54.161 -47.188  1.00  0.00    -0.401 OA
HETATM   35  H   UNL     1     -39.424  54.988 -47.434  1.00  0.00     0.209 HD
ENDBRANCH  33  34
ENDBRANCH  32  33
ENDBRANCH  31  32
ENDBRANCH   7  31
TORSDOF 7
ENDMDL
MODEL 10
REMARK VINA RESULT:      -7.1     16.769     19.426
REMARK  7 active torsions:
REMARK  status: ('A' for Active; 'I' for Inactive)
REMARK    1  A    between atoms: C_7  and  C_8 
REMARK    2  A    between atoms: C_8  and  C_9 
REMARK    3  A    between atoms: C_9  and  C_10 
REMARK    4  A    between atoms: C_10  and  O_11 
REMARK    5  A    between atoms: C_13  and  C_14 
REMARK    6  A    between atoms: C_22  and  C_23 
REMARK       I    between atoms: C_23  and  N_24 
REMARK    7  A    between atoms: N_24  and  C_25 
ROOT
HETATM    1  C   UNL     1     -34.423  39.826 -50.910  1.00  0.00     0.070 C 
HETATM    2  C   UNL     1     -34.061  40.273 -52.307  1.00  0.00     0.037 C 
HETATM    3  N   UNL     1     -32.776  39.945 -52.720  1.00  0.00    -0.192 N 
HETATM    4  C   UNL     1     -32.353  40.075 -53.991  1.00  0.00     0.726 A 
HETATM    5  N   UNL     1     -33.166  40.675 -54.913  1.00  0.00    -0.083 N 
HETATM    6  N   UNL     1     -32.593  40.690 -56.137  1.00  0.00    -0.140 NA
HETATM    7  C   UNL     1     -31.441  40.046 -55.881  1.00  0.00     0.166 A 
HETATM    8  N   UNL     1     -31.253  39.673 -54.573  1.00  0.00    -0.046 NA
HETATM    9  C   UNL     1     -34.491  41.232 -54.596  1.00  0.00     0.204 C 
HETATM   10  C   UNL     1     -34.907  40.906 -53.161  1.00  0.00     0.062 C 
HETATM   11  H   UNL     1     -32.206  39.388 -52.087  1.00  0.00     0.184 HD
ENDROOT
BRANCH  10  12
HETATM   12  C   UNL     1     -36.290  41.285 -52.757  1.00  0.00     0.256 C 
HETATM   13  N   UNL     1     -37.094  40.201 -52.471  1.00  0.00    -0.323 N 
HETATM   14  H   UNL     1     -36.668  39.283 -52.508  1.00  0.00     0.169 HD
HETATM   15  O   UNL     1     -36.601  42.466 -52.690  1.00  0.00    -0.267 OA
BRANCH  13  16
HETATM   16  C   UNL     1     -38.484  40.225 -52.219  1.00  0.00     0.035 A 
HETATM   17  C   UNL     1     -39.365  41.153 -52.787  1.00  0.00     0.032 A 
HETATM   18  C   UNL     1     -40.736  41.087 -52.524  1.00  0.00     0.044 A 
HETATM   19  C   UNL     1     -41.228  40.092 -51.691  1.00  0.00     0.116 A 
HETATM   20  F   UNL     1     -42.543  40.022 -51.447  1.00  0.00    -0.206 F 
HETATM   21  C   UNL     1     -40.373  39.165 -51.111  1.00  0.00     0.044 A 
HETATM   22  C   UNL     1     -39.001  39.233 -51.374  1.00  0.00     0.032 A 
ENDBRANCH  13  16
ENDBRANCH  10  12
BRANCH   9  23
HETATM   23  C   UNL     1     -35.495  40.899 -55.700  1.00  0.00    -0.005 A 
HETATM   24  C   UNL     1     -35.948  39.594 -55.990  1.00  0.00     0.064 A 
HETATM   25 CL   UNL     1     -35.366  38.235 -55.077  1.00  0.00    -0.082 Cl
HETATM   26  C   UNL     1     -36.881  39.391 -57.024  1.00  0.00     0.056 A 
HETATM   27 CL   UNL     1     -37.490  37.823 -57.436  1.00  0.00    -0.083 Cl
HETATM   28  C   UNL     1     -37.359  40.471 -57.770  1.00  0.00     0.026 A 
HETATM   29  C   UNL     1     -36.916  41.760 -57.497  1.00  0.00     0.002 A 
HETATM   30  C   UNL     1     -35.993  41.972 -56.474  1.00  0.00     0.011 A 
ENDBRANCH   9  23
BRANCH   7  31
HETATM   31  C   UNL     1     -30.495  39.658 -56.957  1.00  0.00     0.085 C 
BRANCH  31  32
HETATM   32  C   UNL     1     -29.527  38.554 -56.520  1.00  0.00     0.034 C 
BRANCH  32  33
HETATM   33  C   UNL     1     -28.498  38.159 -57.576  1.00  0.00     0.164 C 
BRANCH  33  34
HETATM   34  O   UNL     1     -28.305  39.202 -58.519  1.00  0.00    -0.401 OA
HETATM   35  H   UNL     1     -28.083  38.772 -59.369  1.00  0.00     0.209 HD
ENDBRANCH  33  34
ENDBRANCH  32  33
ENDBRANCH  31  32
ENDBRANCH   7  31
TORSDOF 7
ENDMDL
