MODEL 1
REMARK VINA RESULT:      -8.4      0.000      0.000
REMARK  9 active torsions:
REMARK  status: ('A' for Active; 'I' for Inactive)
REMARK    1  A    between atoms: C_2  and  N_3 
REMARK    2  A    between atoms: C_2  and  C_11 
REMARK    3  A    between atoms: N_3  and  C_4 
REMARK    4  A    between atoms: N_12  and  C_13 
REMARK    5  A    between atoms: C_19  and  S_20 
REMARK    6  A    between atoms: S_20  and  C_21 
REMARK    7  A    between atoms: C_21  and  C_22 
REMARK       I    between atoms: C_22  and  N_23 
REMARK    8  A    between atoms: N_23  and  C_24 
REMARK    9  A    between atoms: C_26  and  N_27 
REMARK       I    between atoms: N_27  and  C_28 
ROOT
HETATM    1  C   UNL     1     -42.016  59.059 -51.689  1.00  0.00     0.158 A 
HETATM    2  N   UNL     1     -42.754  58.828 -52.851  1.00  0.00    -0.274 N 
HETATM    3  C   UNL     1     -43.414  60.028 -53.064  1.00  0.00     0.196 A 
HETATM    4  N   UNL     1     -43.183  60.860 -52.075  1.00  0.00    -0.122 NA
HETATM    5  N   UNL     1     -42.312  60.262 -51.219  1.00  0.00    -0.131 NA
ENDROOT
BRANCH   3   6
HETATM    6  S   UNL     1     -44.555  60.358 -54.328  1.00  0.00    -0.080 SA
BRANCH   6   7
HETATM    7  C   UNL     1     -43.515  61.275 -55.507  1.00  0.00     0.185 C 
BRANCH   7   8
HETATM    8  C   UNL     1     -42.726  60.303 -56.371  1.00  0.00     0.231 C 
HETATM    9  N   UNL     1     -43.503  59.623 -57.296  1.00  0.00    -0.326 N 
HETATM   10  H   UNL     1     -44.505  59.814 -57.275  1.00  0.00     0.169 HD
HETATM   11  O   UNL     1     -41.516  60.174 -56.203  1.00  0.00    -0.272 OA
BRANCH   9  12
HETATM   12  C   UNL     1     -43.078  58.626 -58.203  1.00  0.00     0.036 A 
HETATM   13  C   UNL     1     -43.665  57.351 -58.080  1.00  0.00     0.059 A 
HETATM   14  C   UNL     1     -43.293  56.300 -58.925  1.00  0.00     0.036 A 
HETATM   15  C   UNL     1     -42.309  56.538 -59.892  1.00  0.00     0.029 A 
HETATM   16  C   UNL     1     -41.729  57.797 -60.029  1.00  0.00     0.004 A 
HETATM   17  C   UNL     1     -42.115  58.838 -59.187  1.00  0.00     0.029 A 
BRANCH  14  18
HETATM   18  N   UNL     1     -43.801  54.988 -58.880  1.00  0.00    -0.327 N 
HETATM   19  C   UNL     1     -44.657  54.267 -59.654  1.00  0.00     0.218 C 
HETATM   20  C   UNL     1     -45.210  54.802 -60.939  1.00  0.00     0.117 C 
HETATM   21  O   UNL     1     -44.951  53.128 -59.277  1.00  0.00    -0.274 OA
HETATM   22  H   UNL     1     -43.472  54.415 -58.110  1.00  0.00     0.169 HD
ENDBRANCH  14  18
ENDBRANCH   9  12
ENDBRANCH   7   8
ENDBRANCH   6   7
ENDBRANCH   3   6
BRANCH   2  23
HETATM   23  C   UNL     1     -42.808  57.637 -53.622  1.00  0.00     0.043 A 
HETATM   24  C   UNL     1     -43.914  56.783 -53.513  1.00  0.00     0.030 A 
HETATM   25  C   UNL     1     -43.964  55.608 -54.266  1.00  0.00     0.002 A 
HETATM   26  C   UNL     1     -42.920  55.283 -55.128  1.00  0.00     0.000 A 
HETATM   27  C   UNL     1     -41.822  56.133 -55.244  1.00  0.00     0.002 A 
HETATM   28  C   UNL     1     -41.763  57.310 -54.495  1.00  0.00     0.030 A 
ENDBRANCH   2  23
BRANCH   1  29
HETATM   29  C   UNL     1     -40.931  58.170 -51.116  1.00  0.00     0.150 C 
HETATM   30  C   UNL     1     -39.867  59.014 -50.396  1.00  0.00     0.040 C 
BRANCH  29  31
HETATM   31  N   UNL     1     -41.492  57.212 -50.149  1.00  0.00    -0.379 N 
HETATM   32  H   UNL     1     -41.516  57.602 -49.209  1.00  0.00     0.160 HD
BRANCH  31  33
HETATM   33  C   UNL     1     -41.256  55.846 -50.200  1.00  0.00     0.028 A 
HETATM   34  C   UNL     1     -41.167  55.220 -51.454  1.00  0.00     0.030 A 
HETATM   35  C   UNL     1     -40.874  53.857 -51.572  1.00  0.00     0.021 A 
HETATM   36  C   UNL     1     -40.638  53.105 -50.428  1.00  0.00     0.011 A 
HETATM   37 BR   UNL     1     -40.214  51.270 -50.577  1.00  0.00    -0.051 Br
HETATM   38  C   UNL     1     -40.698  53.705 -49.174  1.00  0.00     0.021 A 
HETATM   39  C   UNL     1     -41.004  55.067 -49.066  1.00  0.00     0.030 A 
ENDBRANCH  31  33
ENDBRANCH  29  31
ENDBRANCH   1  29
TORSDOF 9
ENDMDL
MODEL 2
REMARK VINA RESULT:      -8.3      3.645      7.606
REMARK  9 active torsions:
REMARK  status: ('A' for Active; 'I' for Inactive)
REMARK    1  A    between atoms: C_2  and  N_3 
REMARK    2  A    between atoms: C_2  and  C_11 
REMARK    3  A    between atoms: N_3  and  C_4 
REMARK    4  A    between atoms: N_12  and  C_13 
REMARK    5  A    between atoms: C_19  and  S_20 
REMARK    6  A    between atoms: S_20  and  C_21 
REMARK    7  A    between atoms: C_21  and  C_22 
REMARK       I    between atoms: C_22  and  N_23 
REMARK    8  A    between atoms: N_23  and  C_24 
REMARK    9  A    between atoms: C_26  and  N_27 
REMARK       I    between atoms: N_27  and  C_28 
ROOT
HETATM    1  C   UNL     1     -42.052  59.041 -54.802  1.00  0.00     0.158 A 
HETATM    2  N   UNL     1     -41.819  57.906 -54.024  1.00  0.00    -0.274 N 
HETATM    3  C   UNL     1     -41.278  58.416 -52.854  1.00  0.00     0.196 A 
HETATM    4  N   UNL     1     -41.103  59.714 -52.958  1.00  0.00    -0.122 NA
HETATM    5  N   UNL     1     -41.585  60.105 -54.167  1.00  0.00    -0.131 NA
ENDROOT
BRANCH   3   6
HETATM    6  S   UNL     1     -40.705  57.492 -51.502  1.00  0.00    -0.080 SA
BRANCH   6   7
HETATM    7  C   UNL     1     -42.272  56.876 -50.811  1.00  0.00     0.185 C 
BRANCH   7   8
HETATM    8  C   UNL     1     -42.231  55.361 -50.695  1.00  0.00     0.231 C 
HETATM    9  N   UNL     1     -40.954  54.829 -50.796  1.00  0.00    -0.326 N 
HETATM   10  H   UNL     1     -40.199  55.493 -50.971  1.00  0.00     0.169 HD
HETATM   11  O   UNL     1     -43.272  54.727 -50.538  1.00  0.00    -0.272 OA
BRANCH   9  12
HETATM   12  C   UNL     1     -40.592  53.464 -50.777  1.00  0.00     0.036 A 
HETATM   13  C   UNL     1     -40.106  52.910 -51.977  1.00  0.00     0.059 A 
HETATM   14  C   UNL     1     -39.737  51.562 -52.054  1.00  0.00     0.036 A 
HETATM   15  C   UNL     1     -39.877  50.767 -50.910  1.00  0.00     0.029 A 
HETATM   16  C   UNL     1     -40.348  51.305 -49.716  1.00  0.00     0.004 A 
HETATM   17  C   UNL     1     -40.702  52.651 -49.650  1.00  0.00     0.029 A 
BRANCH  14  18
HETATM   18  N   UNL     1     -39.256  50.903 -53.201  1.00  0.00    -0.327 N 
HETATM   19  C   UNL     1     -39.837  50.223 -54.227  1.00  0.00     0.218 C 
HETATM   20  C   UNL     1     -41.324  50.135 -54.382  1.00  0.00     0.117 C 
HETATM   21  O   UNL     1     -39.093  49.692 -55.058  1.00  0.00    -0.274 OA
HETATM   22  H   UNL     1     -38.251  50.922 -53.330  1.00  0.00     0.169 HD
ENDBRANCH  14  18
ENDBRANCH   9  12
ENDBRANCH   7   8
ENDBRANCH   6   7
ENDBRANCH   3   6
BRANCH   2  23
HETATM   23  C   UNL     1     -42.078  56.552 -54.364  1.00  0.00     0.043 A 
HETATM   24  C   UNL     1     -43.374  56.034 -54.234  1.00  0.00     0.030 A 
HETATM   25  C   UNL     1     -43.628  54.700 -54.561  1.00  0.00     0.002 A 
HETATM   26  C   UNL     1     -42.598  53.883 -55.021  1.00  0.00     0.000 A 
HETATM   27  C   UNL     1     -41.310  54.397 -55.158  1.00  0.00     0.002 A 
HETATM   28  C   UNL     1     -41.046  55.729 -54.832  1.00  0.00     0.030 A 
ENDBRANCH   2  23
BRANCH   1  29
HETATM   29  C   UNL     1     -42.844  59.105 -56.092  1.00  0.00     0.150 C 
HETATM   30  C   UNL     1     -43.081  60.564 -56.508  1.00  0.00     0.040 C 
BRANCH  29  31
HETATM   31  N   UNL     1     -42.127  58.424 -57.183  1.00  0.00    -0.379 N 
HETATM   32  H   UNL     1     -41.343  58.980 -57.519  1.00  0.00     0.160 HD
BRANCH  31  33
HETATM   33  C   UNL     1     -42.760  57.670 -58.162  1.00  0.00     0.028 A 
HETATM   34  C   UNL     1     -42.951  56.297 -57.942  1.00  0.00     0.030 A 
HETATM   35  C   UNL     1     -43.631  55.496 -58.864  1.00  0.00     0.021 A 
HETATM   36  C   UNL     1     -44.157  56.071 -60.015  1.00  0.00     0.011 A 
HETATM   37 BR   UNL     1     -45.102  55.004 -61.255  1.00  0.00    -0.051 Br
HETATM   38  C   UNL     1     -44.002  57.434 -60.247  1.00  0.00     0.021 A 
HETATM   39  C   UNL     1     -43.308  58.225 -59.323  1.00  0.00     0.030 A 
ENDBRANCH  31  33
ENDBRANCH  29  31
ENDBRANCH   1  29
TORSDOF 9
ENDMDL
MODEL 3
REMARK VINA RESULT:      -8.2      2.186      3.702
REMARK  9 active torsions:
REMARK  status: ('A' for Active; 'I' for Inactive)
REMARK    1  A    between atoms: C_2  and  N_3 
REMARK    2  A    between atoms: C_2  and  C_11 
REMARK    3  A    between atoms: N_3  and  C_4 
REMARK    4  A    between atoms: N_12  and  C_13 
REMARK    5  A    between atoms: C_19  and  S_20 
REMARK    6  A    between atoms: S_20  and  C_21 
REMARK    7  A    between atoms: C_21  and  C_22 
REMARK       I    between atoms: C_22  and  N_23 
REMARK    8  A    between atoms: N_23  and  C_24 
REMARK    9  A    between atoms: C_26  and  N_27 
REMARK       I    between atoms: N_27  and  C_28 
ROOT
HETATM    1  C   UNL     1     -42.810  56.567 -52.432  1.00  0.00     0.158 A 
HETATM    2  N   UNL     1     -42.366  57.885 -52.553  1.00  0.00    -0.274 N 
HETATM    3  C   UNL     1     -43.259  58.450 -53.450  1.00  0.00     0.196 A 
HETATM    4  N   UNL     1     -44.090  57.540 -53.905  1.00  0.00    -0.122 NA
HETATM    5  N   UNL     1     -43.814  56.369 -53.272  1.00  0.00    -0.131 NA
ENDROOT
BRANCH   3   6
HETATM    6  S   UNL     1     -43.200  60.068 -54.073  1.00  0.00    -0.080 SA
BRANCH   6   7
HETATM    7  C   UNL     1     -42.275  59.814 -55.619  1.00  0.00     0.185 C 
BRANCH   7   8
HETATM    8  C   UNL     1     -43.231  59.790 -56.801  1.00  0.00     0.231 C 
HETATM    9  N   UNL     1     -44.186  58.787 -56.724  1.00  0.00    -0.326 N 
HETATM   10  H   UNL     1     -44.124  58.163 -55.919  1.00  0.00     0.169 HD
HETATM   11  O   UNL     1     -43.105  60.605 -57.712  1.00  0.00    -0.272 OA
BRANCH   9  12
HETATM   12  C   UNL     1     -45.178  58.475 -57.680  1.00  0.00     0.036 A 
HETATM   13  C   UNL     1     -44.811  57.610 -58.730  1.00  0.00     0.059 A 
HETATM   14  C   UNL     1     -45.725  57.258 -59.729  1.00  0.00     0.036 A 
HETATM   15  C   UNL     1     -47.015  57.800 -59.674  1.00  0.00     0.029 A 
HETATM   16  C   UNL     1     -47.392  58.649 -58.636  1.00  0.00     0.004 A 
HETATM   17  C   UNL     1     -46.475  58.983 -57.641  1.00  0.00     0.029 A 
BRANCH  14  18
HETATM   18  N   UNL     1     -45.462  56.418 -60.827  1.00  0.00    -0.327 N 
HETATM   19  C   UNL     1     -45.022  55.138 -60.968  1.00  0.00     0.218 C 
HETATM   20  C   UNL     1     -44.806  54.237 -59.792  1.00  0.00     0.117 C 
HETATM   21  O   UNL     1     -44.826  54.721 -62.115  1.00  0.00    -0.274 OA
HETATM   22  H   UNL     1     -45.632  56.823 -61.742  1.00  0.00     0.169 HD
ENDBRANCH  14  18
ENDBRANCH   9  12
ENDBRANCH   7   8
ENDBRANCH   6   7
ENDBRANCH   3   6
BRANCH   2  23
HETATM   23  C   UNL     1     -41.257  58.491 -51.906  1.00  0.00     0.043 A 
HETATM   24  C   UNL     1     -40.027  58.585 -52.570  1.00  0.00     0.030 A 
HETATM   25  C   UNL     1     -38.933  59.174 -51.931  1.00  0.00     0.002 A 
HETATM   26  C   UNL     1     -39.062  59.672 -50.637  1.00  0.00     0.000 A 
HETATM   27  C   UNL     1     -40.286  59.586 -49.977  1.00  0.00     0.002 A 
HETATM   28  C   UNL     1     -41.384  58.998 -50.607  1.00  0.00     0.030 A 
ENDBRANCH   2  23
BRANCH   1  29
HETATM   29  C   UNL     1     -42.348  55.550 -51.408  1.00  0.00     0.150 C 
HETATM   30  C   UNL     1     -43.270  54.321 -51.416  1.00  0.00     0.040 C 
BRANCH  29  31
HETATM   31  N   UNL     1     -40.976  55.099 -51.697  1.00  0.00    -0.379 N 
HETATM   32  H   UNL     1     -40.394  55.866 -52.030  1.00  0.00     0.160 HD
BRANCH  31  33
HETATM   33  C   UNL     1     -40.677  53.865 -52.256  1.00  0.00     0.028 A 
HETATM   34  C   UNL     1     -40.845  53.689 -53.639  1.00  0.00     0.030 A 
HETATM   35  C   UNL     1     -40.506  52.487 -54.270  1.00  0.00     0.021 A 
HETATM   36  C   UNL     1     -39.965  51.449 -53.522  1.00  0.00     0.011 A 
HETATM   37 BR   UNL     1     -39.478  49.832 -54.368  1.00  0.00    -0.051 Br
HETATM   38  C   UNL     1     -39.767  51.605 -52.154  1.00  0.00     0.021 A 
HETATM   39  C   UNL     1     -40.120  52.807 -51.530  1.00  0.00     0.030 A 
ENDBRANCH  31  33
ENDBRANCH  29  31
ENDBRANCH   1  29
TORSDOF 9
ENDMDL
MODEL 4
REMARK VINA RESULT:      -8.2      4.472      8.273
REMARK  9 active torsions:
REMARK  status: ('A' for Active; 'I' for Inactive)
REMARK    1  A    between atoms: C_2  and  N_3 
REMARK    2  A    between atoms: C_2  and  C_11 
REMARK    3  A    between atoms: N_3  and  C_4 
REMARK    4  A    between atoms: N_12  and  C_13 
REMARK    5  A    between atoms: C_19  and  S_20 
REMARK    6  A    between atoms: S_20  and  C_21 
REMARK    7  A    between atoms: C_21  and  C_22 
REMARK       I    between atoms: C_22  and  N_23 
REMARK    8  A    between atoms: N_23  and  C_24 
REMARK    9  A    between atoms: C_26  and  N_27 
REMARK       I    between atoms: N_27  and  C_28 
ROOT
HETATM    1  C   UNL     1     -42.977  56.709 -52.374  1.00  0.00     0.158 A 
HETATM    2  N   UNL     1     -42.537  58.033 -52.390  1.00  0.00    -0.274 N 
HETATM    3  C   UNL     1     -43.518  58.696 -53.111  1.00  0.00     0.196 A 
HETATM    4  N   UNL     1     -44.402  57.842 -53.573  1.00  0.00    -0.122 NA
HETATM    5  N   UNL     1     -44.070  56.606 -53.115  1.00  0.00    -0.131 NA
ENDROOT
BRANCH   3   6
HETATM    6  S   UNL     1     -43.512  60.376 -53.544  1.00  0.00    -0.080 SA
BRANCH   6   7
HETATM    7  C   UNL     1     -44.933  60.988 -52.586  1.00  0.00     0.185 C 
BRANCH   7   8
HETATM    8  C   UNL     1     -44.488  61.381 -51.186  1.00  0.00     0.231 C 
HETATM    9  N   UNL     1     -45.505  61.328 -50.244  1.00  0.00    -0.326 N 
HETATM   10  H   UNL     1     -46.431  61.074 -50.589  1.00  0.00     0.169 HD
HETATM   11  O   UNL     1     -43.324  61.714 -50.981  1.00  0.00    -0.272 OA
BRANCH   9  12
HETATM   12  C   UNL     1     -45.424  61.677 -48.877  1.00  0.00     0.036 A 
HETATM   13  C   UNL     1     -45.455  60.626 -47.941  1.00  0.00     0.059 A 
HETATM   14  C   UNL     1     -45.395  60.880 -46.566  1.00  0.00     0.036 A 
HETATM   15  C   UNL     1     -45.318  62.210 -46.137  1.00  0.00     0.029 A 
HETATM   16  C   UNL     1     -45.278  63.258 -47.054  1.00  0.00     0.004 A 
HETATM   17  C   UNL     1     -45.328  62.990 -48.421  1.00  0.00     0.029 A 
BRANCH  14  18
HETATM   18  N   UNL     1     -45.435  59.910 -45.547  1.00  0.00    -0.327 N 
HETATM   19  C   UNL     1     -46.409  59.123 -45.013  1.00  0.00     0.218 C 
HETATM   20  C   UNL     1     -47.795  59.080 -45.578  1.00  0.00     0.117 C 
HETATM   21  O   UNL     1     -46.108  58.413 -44.048  1.00  0.00    -0.274 OA
HETATM   22  H   UNL     1     -44.553  59.724 -45.082  1.00  0.00     0.169 HD
ENDBRANCH  14  18
ENDBRANCH   9  12
ENDBRANCH   7   8
ENDBRANCH   6   7
ENDBRANCH   3   6
BRANCH   2  23
HETATM   23  C   UNL     1     -41.358  58.563 -51.804  1.00  0.00     0.043 A 
HETATM   24  C   UNL     1     -40.192  58.691 -52.571  1.00  0.00     0.030 A 
HETATM   25  C   UNL     1     -39.029  59.206 -51.993  1.00  0.00     0.002 A 
HETATM   26  C   UNL     1     -39.025  59.597 -50.657  1.00  0.00     0.000 A 
HETATM   27  C   UNL     1     -40.184  59.477 -49.892  1.00  0.00     0.002 A 
HETATM   28  C   UNL     1     -41.351  58.963 -50.462  1.00  0.00     0.030 A 
ENDBRANCH   2  23
BRANCH   1  29
HETATM   29  C   UNL     1     -42.415  55.581 -51.533  1.00  0.00     0.150 C 
HETATM   30  C   UNL     1     -43.262  54.310 -51.699  1.00  0.00     0.040 C 
BRANCH  29  31
HETATM   31  N   UNL     1     -41.032  55.269 -51.930  1.00  0.00    -0.379 N 
HETATM   32  H   UNL     1     -40.549  56.094 -52.279  1.00  0.00     0.160 HD
BRANCH  31  33
HETATM   33  C   UNL     1     -40.660  54.081 -52.544  1.00  0.00     0.028 A 
HETATM   34  C   UNL     1     -40.131  53.047 -51.755  1.00  0.00     0.030 A 
HETATM   35  C   UNL     1     -39.792  51.807 -52.306  1.00  0.00     0.021 A 
HETATM   36  C   UNL     1     -40.007  51.577 -53.659  1.00  0.00     0.011 A 
HETATM   37 BR   UNL     1     -39.578  49.896 -54.409  1.00  0.00    -0.051 Br
HETATM   38  C   UNL     1     -40.551  52.576 -54.459  1.00  0.00     0.021 A 
HETATM   39  C   UNL     1     -40.876  53.818 -53.901  1.00  0.00     0.030 A 
ENDBRANCH  31  33
ENDBRANCH  29  31
ENDBRANCH   1  29
TORSDOF 9
ENDMDL
MODEL 5
REMARK VINA RESULT:      -8.2      1.990      3.390
REMARK  9 active torsions:
REMARK  status: ('A' for Active; 'I' for Inactive)
REMARK    1  A    between atoms: C_2  and  N_3 
REMARK    2  A    between atoms: C_2  and  C_11 
REMARK    3  A    between atoms: N_3  and  C_4 
REMARK    4  A    between atoms: N_12  and  C_13 
REMARK    5  A    between atoms: C_19  and  S_20 
REMARK    6  A    between atoms: S_20  and  C_21 
REMARK    7  A    between atoms: C_21  and  C_22 
REMARK       I    between atoms: C_22  and  N_23 
REMARK    8  A    between atoms: N_23  and  C_24 
REMARK    9  A    between atoms: C_26  and  N_27 
REMARK       I    between atoms: N_27  and  C_28 
ROOT
HETATM    1  C   UNL     1     -43.024  56.540 -52.195  1.00  0.00     0.158 A 
HETATM    2  N   UNL     1     -42.644  57.881 -52.275  1.00  0.00    -0.274 N 
HETATM    3  C   UNL     1     -43.645  58.460 -53.038  1.00  0.00     0.196 A 
HETATM    4  N   UNL     1     -44.483  57.544 -53.465  1.00  0.00    -0.122 NA
HETATM    5  N   UNL     1     -44.101  56.350 -52.941  1.00  0.00    -0.131 NA
ENDROOT
BRANCH   3   6
HETATM    6  S   UNL     1     -43.709  60.115 -53.557  1.00  0.00    -0.080 SA
BRANCH   6   7
HETATM    7  C   UNL     1     -45.097  60.058 -54.733  1.00  0.00     0.185 C 
BRANCH   7   8
HETATM    8  C   UNL     1     -44.571  60.012 -56.158  1.00  0.00     0.231 C 
HETATM    9  N   UNL     1     -44.022  58.787 -56.510  1.00  0.00    -0.326 N 
HETATM   10  H   UNL     1     -43.997  58.075 -55.779  1.00  0.00     0.169 HD
HETATM   11  O   UNL     1     -44.645  61.007 -56.875  1.00  0.00    -0.272 OA
BRANCH   9  12
HETATM   12  C   UNL     1     -43.410  58.443 -57.736  1.00  0.00     0.036 A 
HETATM   13  C   UNL     1     -44.166  57.670 -58.638  1.00  0.00     0.059 A 
HETATM   14  C   UNL     1     -43.634  57.271 -59.870  1.00  0.00     0.036 A 
HETATM   15  C   UNL     1     -42.322  57.646 -60.182  1.00  0.00     0.029 A 
HETATM   16  C   UNL     1     -41.568  58.418 -59.301  1.00  0.00     0.004 A 
HETATM   17  C   UNL     1     -42.113  58.817 -58.082  1.00  0.00     0.029 A 
BRANCH  14  18
HETATM   18  N   UNL     1     -44.292  56.487 -60.836  1.00  0.00    -0.327 N 
HETATM   19  C   UNL     1     -44.707  55.193 -60.896  1.00  0.00     0.218 C 
HETATM   20  C   UNL     1     -44.607  54.270 -59.720  1.00  0.00     0.117 C 
HETATM   21  O   UNL     1     -45.203  54.797 -61.956  1.00  0.00    -0.274 OA
HETATM   22  H   UNL     1     -44.532  56.963 -61.699  1.00  0.00     0.169 HD
ENDBRANCH  14  18
ENDBRANCH   9  12
ENDBRANCH   7   8
ENDBRANCH   6   7
ENDBRANCH   3   6
BRANCH   2  23
HETATM   23  C   UNL     1     -41.497  58.493 -51.704  1.00  0.00     0.043 A 
HETATM   24  C   UNL     1     -41.551  59.002 -50.400  1.00  0.00     0.030 A 
HETATM   25  C   UNL     1     -40.426  59.612 -49.841  1.00  0.00     0.002 A 
HETATM   26  C   UNL     1     -39.246  59.711 -50.575  1.00  0.00     0.000 A 
HETATM   27  C   UNL     1     -39.186  59.199 -51.869  1.00  0.00     0.002 A 
HETATM   28  C   UNL     1     -40.307  58.590 -52.437  1.00  0.00     0.030 A 
ENDBRANCH   2  23
BRANCH   1  29
HETATM   29  C   UNL     1     -42.422  55.483 -51.292  1.00  0.00     0.150 C 
HETATM   30  C   UNL     1     -43.240  54.184 -51.362  1.00  0.00     0.040 C 
BRANCH  29  31
HETATM   31  N   UNL     1     -41.037  55.178 -51.690  1.00  0.00    -0.379 N 
HETATM   32  H   UNL     1     -40.545  56.015 -51.999  1.00  0.00     0.160 HD
BRANCH  31  33
HETATM   33  C   UNL     1     -40.668  54.016 -52.353  1.00  0.00     0.028 A 
HETATM   34  C   UNL     1     -40.100  52.967 -51.614  1.00  0.00     0.030 A 
HETATM   35  C   UNL     1     -39.760  51.749 -52.213  1.00  0.00     0.021 A 
HETATM   36  C   UNL     1     -40.015  51.557 -53.566  1.00  0.00     0.011 A 
HETATM   37 BR   UNL     1     -39.586  49.908 -54.381  1.00  0.00    -0.051 Br
HETATM   38  C   UNL     1     -40.598  52.572 -54.317  1.00  0.00     0.021 A 
HETATM   39  C   UNL     1     -40.923  53.792 -53.710  1.00  0.00     0.030 A 
ENDBRANCH  31  33
ENDBRANCH  29  31
ENDBRANCH   1  29
TORSDOF 9
ENDMDL
MODEL 6
REMARK VINA RESULT:      -8.0      2.644      4.085
REMARK  9 active torsions:
REMARK  status: ('A' for Active; 'I' for Inactive)
REMARK    1  A    between atoms: C_2  and  N_3 
REMARK    2  A    between atoms: C_2  and  C_11 
REMARK    3  A    between atoms: N_3  and  C_4 
REMARK    4  A    between atoms: N_12  and  C_13 
REMARK    5  A    between atoms: C_19  and  S_20 
REMARK    6  A    between atoms: S_20  and  C_21 
REMARK    7  A    between atoms: C_21  and  C_22 
REMARK       I    between atoms: C_22  and  N_23 
REMARK    8  A    between atoms: N_23  and  C_24 
REMARK    9  A    between atoms: C_26  and  N_27 
REMARK       I    between atoms: N_27  and  C_28 
ROOT
HETATM    1  C   UNL     1     -42.932  56.171 -52.605  1.00  0.00     0.158 A 
HETATM    2  N   UNL     1     -42.648  57.527 -52.768  1.00  0.00    -0.274 N 
HETATM    3  C   UNL     1     -43.387  57.885 -53.885  1.00  0.00     0.196 A 
HETATM    4  N   UNL     1     -43.970  56.829 -54.405  1.00  0.00    -0.122 NA
HETATM    5  N   UNL     1     -43.691  55.762 -53.610  1.00  0.00    -0.131 NA
ENDROOT
BRANCH   3   6
HETATM    6  S   UNL     1     -43.403  59.443 -54.647  1.00  0.00    -0.080 SA
BRANCH   6   7
HETATM    7  C   UNL     1     -45.026  59.414 -55.469  1.00  0.00     0.185 C 
BRANCH   7   8
HETATM    8  C   UNL     1     -44.864  59.028 -56.931  1.00  0.00     0.231 C 
HETATM    9  N   UNL     1     -45.295  57.741 -57.218  1.00  0.00    -0.326 N 
HETATM   10  H   UNL     1     -45.633  57.190 -56.429  1.00  0.00     0.169 HD
HETATM   11  O   UNL     1     -44.377  59.826 -57.728  1.00  0.00    -0.272 OA
BRANCH   9  12
HETATM   12  C   UNL     1     -45.233  57.075 -58.462  1.00  0.00     0.036 A 
HETATM   13  C   UNL     1     -46.412  57.038 -59.233  1.00  0.00     0.059 A 
HETATM   14  C   UNL     1     -46.445  56.388 -60.471  1.00  0.00     0.036 A 
HETATM   15  C   UNL     1     -45.280  55.757 -60.925  1.00  0.00     0.029 A 
HETATM   16  C   UNL     1     -44.107  55.795 -60.176  1.00  0.00     0.004 A 
HETATM   17  C   UNL     1     -44.084  56.455 -58.949  1.00  0.00     0.029 A 
BRANCH  14  18
HETATM   18  N   UNL     1     -47.568  56.275 -61.313  1.00  0.00    -0.327 N 
HETATM   19  C   UNL     1     -48.364  57.164 -61.968  1.00  0.00     0.218 C 
HETATM   20  C   UNL     1     -48.072  58.632 -61.984  1.00  0.00     0.117 C 
HETATM   21  O   UNL     1     -49.339  56.716 -62.582  1.00  0.00    -0.274 OA
HETATM   22  H   UNL     1     -47.883  55.330 -61.502  1.00  0.00     0.169 HD
ENDBRANCH  14  18
ENDBRANCH   9  12
ENDBRANCH   7   8
ENDBRANCH   6   7
ENDBRANCH   3   6
BRANCH   2  23
HETATM   23  C   UNL     1     -41.798  58.338 -51.971  1.00  0.00     0.043 A 
HETATM   24  C   UNL     1     -40.418  58.349 -52.209  1.00  0.00     0.030 A 
HETATM   25  C   UNL     1     -39.580  59.141 -51.420  1.00  0.00     0.002 A 
HETATM   26  C   UNL     1     -40.113  59.924 -50.399  1.00  0.00     0.000 A 
HETATM   27  C   UNL     1     -41.487  59.922 -50.165  1.00  0.00     0.002 A 
HETATM   28  C   UNL     1     -42.331  59.132 -50.948  1.00  0.00     0.030 A 
ENDBRANCH   2  23
BRANCH   1  29
HETATM   29  C   UNL     1     -42.580  55.312 -51.407  1.00  0.00     0.150 C 
HETATM   30  C   UNL     1     -43.461  54.054 -51.367  1.00  0.00     0.040 C 
BRANCH  29  31
HETATM   31  N   UNL     1     -41.171  54.888 -51.462  1.00  0.00    -0.379 N 
HETATM   32  H   UNL     1     -40.541  55.687 -51.491  1.00  0.00     0.160 HD
BRANCH  31  33
HETATM   33  C   UNL     1     -40.731  53.782 -52.176  1.00  0.00     0.028 A 
HETATM   34  C   UNL     1     -40.116  52.728 -51.481  1.00  0.00     0.030 A 
HETATM   35  C   UNL     1     -39.704  51.563 -52.136  1.00  0.00     0.021 A 
HETATM   36  C   UNL     1     -39.930  51.427 -53.500  1.00  0.00     0.011 A 
HETATM   37 BR   UNL     1     -39.402  49.846 -54.390  1.00  0.00    -0.051 Br
HETATM   38  C   UNL     1     -40.557  52.446 -54.209  1.00  0.00     0.021 A 
HETATM   39  C   UNL     1     -40.955  53.614 -53.546  1.00  0.00     0.030 A 
ENDBRANCH  31  33
ENDBRANCH  29  31
ENDBRANCH   1  29
TORSDOF 9
ENDMDL
MODEL 7
REMARK VINA RESULT:      -7.9      1.657      2.021
REMARK  9 active torsions:
REMARK  status: ('A' for Active; 'I' for Inactive)
REMARK    1  A    between atoms: C_2  and  N_3 
REMARK    2  A    between atoms: C_2  and  C_11 
REMARK    3  A    between atoms: N_3  and  C_4 
REMARK    4  A    between atoms: N_12  and  C_13 
REMARK    5  A    between atoms: C_19  and  S_20 
REMARK    6  A    between atoms: S_20  and  C_21 
REMARK    7  A    between atoms: C_21  and  C_22 
REMARK       I    between atoms: C_22  and  N_23 
REMARK    8  A    between atoms: N_23  and  C_24 
REMARK    9  A    between atoms: C_26  and  N_27 
REMARK       I    between atoms: N_27  and  C_28 
ROOT
HETATM    1  C   UNL     1     -42.465  58.651 -51.757  1.00  0.00     0.158 A 
HETATM    2  N   UNL     1     -43.081  58.287 -52.955  1.00  0.00    -0.274 N 
HETATM    3  C   UNL     1     -43.929  59.351 -53.223  1.00  0.00     0.196 A 
HETATM    4  N   UNL     1     -43.907  60.215 -52.235  1.00  0.00    -0.122 NA
HETATM    5  N   UNL     1     -42.995  59.784 -51.323  1.00  0.00    -0.131 NA
ENDROOT
BRANCH   3   6
HETATM    6  S   UNL     1     -45.036  59.467 -54.554  1.00  0.00    -0.080 SA
BRANCH   6   7
HETATM    7  C   UNL     1     -44.038  60.400 -55.757  1.00  0.00     0.185 C 
BRANCH   7   8
HETATM    8  C   UNL     1     -44.056  59.698 -57.106  1.00  0.00     0.231 C 
HETATM    9  N   UNL     1     -44.095  58.315 -57.012  1.00  0.00    -0.326 N 
HETATM   10  H   UNL     1     -44.070  57.923 -56.071  1.00  0.00     0.169 HD
HETATM   11  O   UNL     1     -44.025  60.356 -58.143  1.00  0.00    -0.272 OA
BRANCH   9  12
HETATM   12  C   UNL     1     -44.072  57.384 -58.075  1.00  0.00     0.036 A 
HETATM   13  C   UNL     1     -45.264  57.207 -58.803  1.00  0.00     0.059 A 
HETATM   14  C   UNL     1     -45.336  56.296 -59.862  1.00  0.00     0.036 A 
HETATM   15  C   UNL     1     -44.195  55.548 -60.177  1.00  0.00     0.029 A 
HETATM   16  C   UNL     1     -43.008  55.721 -59.470  1.00  0.00     0.004 A 
HETATM   17  C   UNL     1     -42.947  56.639 -58.424  1.00  0.00     0.029 A 
BRANCH  14  18
HETATM   18  N   UNL     1     -46.476  56.028 -60.643  1.00  0.00    -0.327 N 
HETATM   19  C   UNL     1     -47.476  56.788 -61.167  1.00  0.00     0.218 C 
HETATM   20  C   UNL     1     -47.476  58.282 -61.068  1.00  0.00     0.117 C 
HETATM   21  O   UNL     1     -48.390  56.204 -61.761  1.00  0.00    -0.274 OA
HETATM   22  H   UNL     1     -46.616  55.056 -60.898  1.00  0.00     0.169 HD
ENDBRANCH  14  18
ENDBRANCH   9  12
ENDBRANCH   7   8
ENDBRANCH   6   7
ENDBRANCH   3   6
BRANCH   2  23
HETATM   23  C   UNL     1     -42.880  57.102 -53.710  1.00  0.00     0.043 A 
HETATM   24  C   UNL     1     -43.835  56.078 -53.672  1.00  0.00     0.030 A 
HETATM   25  C   UNL     1     -43.634  54.908 -54.408  1.00  0.00     0.002 A 
HETATM   26  C   UNL     1     -42.488  54.758 -55.185  1.00  0.00     0.000 A 
HETATM   27  C   UNL     1     -41.539  55.777 -55.230  1.00  0.00     0.002 A 
HETATM   28  C   UNL     1     -41.731  56.949 -54.496  1.00  0.00     0.030 A 
ENDBRANCH   2  23
BRANCH   1  29
HETATM   29  C   UNL     1     -41.275  57.971 -51.110  1.00  0.00     0.150 C 
HETATM   30  C   UNL     1     -40.437  58.988 -50.320  1.00  0.00     0.040 C 
BRANCH  29  31
HETATM   31  N   UNL     1     -41.713  56.914 -50.184  1.00  0.00    -0.379 N 
HETATM   32  H   UNL     1     -41.795  57.263 -49.231  1.00  0.00     0.160 HD
BRANCH  31  33
HETATM   33  C   UNL     1     -41.299  55.593 -50.279  1.00  0.00     0.028 A 
HETATM   34  C   UNL     1     -41.055  54.873 -49.099  1.00  0.00     0.030 A 
HETATM   35  C   UNL     1     -40.692  53.523 -49.127  1.00  0.00     0.021 A 
HETATM   36  C   UNL     1     -40.595  52.865 -50.346  1.00  0.00     0.011 A 
HETATM   37 BR   UNL     1     -40.132  51.033 -50.396  1.00  0.00    -0.051 Br
HETATM   38  C   UNL     1     -40.854  53.548 -51.530  1.00  0.00     0.021 A 
HETATM   39  C   UNL     1     -41.205  54.903 -51.492  1.00  0.00     0.030 A 
ENDBRANCH  31  33
ENDBRANCH  29  31
ENDBRANCH   1  29
TORSDOF 9
ENDMDL
MODEL 8
REMARK VINA RESULT:      -7.7      2.324      3.876
REMARK  9 active torsions:
REMARK  status: ('A' for Active; 'I' for Inactive)
REMARK    1  A    between atoms: C_2  and  N_3 
REMARK    2  A    between atoms: C_2  and  C_11 
REMARK    3  A    between atoms: N_3  and  C_4 
REMARK    4  A    between atoms: N_12  and  C_13 
REMARK    5  A    between atoms: C_19  and  S_20 
REMARK    6  A    between atoms: S_20  and  C_21 
REMARK    7  A    between atoms: C_21  and  C_22 
REMARK       I    between atoms: C_22  and  N_23 
REMARK    8  A    between atoms: N_23  and  C_24 
REMARK    9  A    between atoms: C_26  and  N_27 
REMARK       I    between atoms: N_27  and  C_28 
ROOT
HETATM    1  C   UNL     1     -43.051  56.695 -51.871  1.00  0.00     0.158 A 
HETATM    2  N   UNL     1     -42.610  58.012 -52.009  1.00  0.00    -0.274 N 
HETATM    3  C   UNL     1     -43.640  58.632 -52.699  1.00  0.00     0.196 A 
HETATM    4  N   UNL     1     -44.558  57.756 -53.037  1.00  0.00    -0.122 NA
HETATM    5  N   UNL     1     -44.196  56.551 -52.521  1.00  0.00    -0.131 NA
ENDROOT
BRANCH   3   6
HETATM    6  S   UNL     1     -43.662  60.279 -53.244  1.00  0.00    -0.080 SA
BRANCH   6   7
HETATM    7  C   UNL     1     -45.409  60.467 -53.718  1.00  0.00     0.185 C 
BRANCH   7   8
HETATM    8  C   UNL     1     -45.573  60.226 -55.210  1.00  0.00     0.231 C 
HETATM    9  N   UNL     1     -45.680  58.885 -55.549  1.00  0.00    -0.326 N 
HETATM   10  H   UNL     1     -45.601  58.216 -54.783  1.00  0.00     0.169 HD
HETATM   11  O   UNL     1     -45.589  61.176 -55.990  1.00  0.00    -0.272 OA
BRANCH   9  12
HETATM   12  C   UNL     1     -45.792  58.337 -56.846  1.00  0.00     0.036 A 
HETATM   13  C   UNL     1     -44.632  57.767 -57.407  1.00  0.00     0.059 A 
HETATM   14  C   UNL     1     -44.648  57.214 -58.692  1.00  0.00     0.036 A 
HETATM   15  C   UNL     1     -45.843  57.253 -59.421  1.00  0.00     0.029 A 
HETATM   16  C   UNL     1     -46.998  57.806 -58.873  1.00  0.00     0.004 A 
HETATM   17  C   UNL     1     -46.971  58.344 -57.588  1.00  0.00     0.029 A 
BRANCH  14  18
HETATM   18  N   UNL     1     -43.548  56.636 -59.354  1.00  0.00    -0.327 N 
HETATM   19  C   UNL     1     -42.452  57.125 -59.995  1.00  0.00     0.218 C 
HETATM   20  C   UNL     1     -42.133  58.588 -60.021  1.00  0.00     0.117 C 
HETATM   21  O   UNL     1     -41.698  56.315 -60.544  1.00  0.00    -0.274 OA
HETATM   22  H   UNL     1     -43.531  55.622 -59.374  1.00  0.00     0.169 HD
ENDBRANCH  14  18
ENDBRANCH   9  12
ENDBRANCH   7   8
ENDBRANCH   6   7
ENDBRANCH   3   6
BRANCH   2  23
HETATM   23  C   UNL     1     -41.389  58.571 -51.548  1.00  0.00     0.043 A 
HETATM   24  C   UNL     1     -40.278  58.622 -52.400  1.00  0.00     0.030 A 
HETATM   25  C   UNL     1     -39.074  59.165 -51.945  1.00  0.00     0.002 A 
HETATM   26  C   UNL     1     -38.976  59.661 -50.647  1.00  0.00     0.000 A 
HETATM   27  C   UNL     1     -40.081  59.619 -49.800  1.00  0.00     0.002 A 
HETATM   28  C   UNL     1     -41.288  59.077 -50.246  1.00  0.00     0.030 A 
ENDBRANCH   2  23
BRANCH   1  29
HETATM   29  C   UNL     1     -42.432  55.622 -50.999  1.00  0.00     0.150 C 
HETATM   30  C   UNL     1     -43.302  54.356 -51.002  1.00  0.00     0.040 C 
BRANCH  29  31
HETATM   31  N   UNL     1     -41.090  55.260 -51.486  1.00  0.00    -0.379 N 
HETATM   32  H   UNL     1     -40.612  56.062 -51.894  1.00  0.00     0.160 HD
BRANCH  31  33
HETATM   33  C   UNL     1     -40.796  54.046 -52.091  1.00  0.00     0.028 A 
HETATM   34  C   UNL     1     -41.200  53.836 -53.419  1.00  0.00     0.030 A 
HETATM   35  C   UNL     1     -40.883  52.657 -54.102  1.00  0.00     0.021 A 
HETATM   36  C   UNL     1     -40.128  51.679 -53.467  1.00  0.00     0.011 A 
HETATM   37 BR   UNL     1     -39.672  50.094 -54.388  1.00  0.00    -0.051 Br
HETATM   38  C   UNL     1     -39.696  51.871 -52.159  1.00  0.00     0.021 A 
HETATM   39  C   UNL     1     -40.029  53.049 -51.479  1.00  0.00     0.030 A 
ENDBRANCH  31  33
ENDBRANCH  29  31
ENDBRANCH   1  29
TORSDOF 9
ENDMDL
MODEL 9
REMARK VINA RESULT:      -7.7      1.862      2.693
REMARK  9 active torsions:
REMARK  status: ('A' for Active; 'I' for Inactive)
REMARK    1  A    between atoms: C_2  and  N_3 
REMARK    2  A    between atoms: C_2  and  C_11 
REMARK    3  A    between atoms: N_3  and  C_4 
REMARK    4  A    between atoms: N_12  and  C_13 
REMARK    5  A    between atoms: C_19  and  S_20 
REMARK    6  A    between atoms: S_20  and  C_21 
REMARK    7  A    between atoms: C_21  and  C_22 
REMARK       I    between atoms: C_22  and  N_23 
REMARK    8  A    between atoms: N_23  and  C_24 
REMARK    9  A    between atoms: C_26  and  N_27 
REMARK       I    between atoms: N_27  and  C_28 
ROOT
HETATM    1  C   UNL     1     -41.504  56.918 -51.185  1.00  0.00     0.158 A 
HETATM    2  N   UNL     1     -42.190  57.371 -52.313  1.00  0.00    -0.274 N 
HETATM    3  C   UNL     1     -42.515  58.680 -51.994  1.00  0.00     0.196 A 
HETATM    4  N   UNL     1     -42.157  58.954 -50.761  1.00  0.00    -0.122 NA
HETATM    5  N   UNL     1     -41.526  57.861 -50.256  1.00  0.00    -0.131 NA
ENDROOT
BRANCH   3   6
HETATM    6  S   UNL     1     -43.444  59.771 -52.972  1.00  0.00    -0.080 SA
BRANCH   6   7
HETATM    7  C   UNL     1     -42.160  60.427 -54.082  1.00  0.00     0.185 C 
BRANCH   7   8
HETATM    8  C   UNL     1     -42.524  60.137 -55.529  1.00  0.00     0.231 C 
HETATM    9  N   UNL     1     -43.859  59.809 -55.712  1.00  0.00    -0.326 N 
HETATM   10  H   UNL     1     -44.433  59.761 -54.871  1.00  0.00     0.169 HD
HETATM   11  O   UNL     1     -41.663  60.194 -56.404  1.00  0.00    -0.272 OA
BRANCH   9  12
HETATM   12  C   UNL     1     -44.492  59.442 -56.921  1.00  0.00     0.036 A 
HETATM   13  C   UNL     1     -44.447  58.082 -57.285  1.00  0.00     0.059 A 
HETATM   14  C   UNL     1     -45.034  57.631 -58.472  1.00  0.00     0.036 A 
HETATM   15  C   UNL     1     -45.658  58.568 -59.304  1.00  0.00     0.029 A 
HETATM   16  C   UNL     1     -45.716  59.914 -58.951  1.00  0.00     0.004 A 
HETATM   17  C   UNL     1     -45.136  60.348 -57.761  1.00  0.00     0.029 A 
BRANCH  14  18
HETATM   18  N   UNL     1     -45.035  56.303 -58.939  1.00  0.00    -0.327 N 
HETATM   19  C   UNL     1     -44.108  55.492 -59.517  1.00  0.00     0.218 C 
HETATM   20  C   UNL     1     -42.681  55.912 -59.688  1.00  0.00     0.117 C 
HETATM   21  O   UNL     1     -44.474  54.370 -59.881  1.00  0.00    -0.274 OA
HETATM   22  H   UNL     1     -45.910  55.800 -58.833  1.00  0.00     0.169 HD
ENDBRANCH  14  18
ENDBRANCH   9  12
ENDBRANCH   7   8
ENDBRANCH   6   7
ENDBRANCH   3   6
BRANCH   2  23
HETATM   23  C   UNL     1     -42.481  56.649 -53.500  1.00  0.00     0.043 A 
HETATM   24  C   UNL     1     -41.561  56.640 -54.557  1.00  0.00     0.030 A 
HETATM   25  C   UNL     1     -41.851  55.936 -55.728  1.00  0.00     0.002 A 
HETATM   26  C   UNL     1     -43.050  55.238 -55.847  1.00  0.00     0.000 A 
HETATM   27  C   UNL     1     -43.964  55.239 -54.796  1.00  0.00     0.002 A 
HETATM   28  C   UNL     1     -43.684  55.941 -53.622  1.00  0.00     0.030 A 
ENDBRANCH   2  23
BRANCH   1  29
HETATM   29  C   UNL     1     -40.717  55.629 -51.064  1.00  0.00     0.150 C 
HETATM   30  C   UNL     1     -40.228  55.429 -49.621  1.00  0.00     0.040 C 
BRANCH  29  31
HETATM   31  N   UNL     1     -41.546  54.470 -51.435  1.00  0.00    -0.379 N 
HETATM   32  H   UNL     1     -42.248  54.271 -50.725  1.00  0.00     0.160 HD
BRANCH  31  33
HETATM   33  C   UNL     1     -41.049  53.348 -52.084  1.00  0.00     0.028 A 
HETATM   34  C   UNL     1     -41.376  53.146 -53.434  1.00  0.00     0.030 A 
HETATM   35  C   UNL     1     -40.860  52.066 -54.158  1.00  0.00     0.021 A 
HETATM   36  C   UNL     1     -39.981  51.185 -53.541  1.00  0.00     0.011 A 
HETATM   37 BR   UNL     1     -39.255  49.739 -54.516  1.00  0.00    -0.051 Br
HETATM   38  C   UNL     1     -39.622  51.375 -52.210  1.00  0.00     0.021 A 
HETATM   39  C   UNL     1     -40.154  52.452 -51.491  1.00  0.00     0.030 A 
ENDBRANCH  31  33
ENDBRANCH  29  31
ENDBRANCH   1  29
TORSDOF 9
ENDMDL
MODEL 10
REMARK VINA RESULT:      -7.6      4.128      8.551
REMARK  9 active torsions:
REMARK  status: ('A' for Active; 'I' for Inactive)
REMARK    1  A    between atoms: C_2  and  N_3 
REMARK    2  A    between atoms: C_2  and  C_11 
REMARK    3  A    between atoms: N_3  and  C_4 
REMARK    4  A    between atoms: N_12  and  C_13 
REMARK    5  A    between atoms: C_19  and  S_20 
REMARK    6  A    between atoms: S_20  and  C_21 
REMARK    7  A    between atoms: C_21  and  C_22 
REMARK       I    between atoms: C_22  and  N_23 
REMARK    8  A    between atoms: N_23  and  C_24 
REMARK    9  A    between atoms: C_26  and  N_27 
REMARK       I    between atoms: N_27  and  C_28 
ROOT
HETATM    1  C   UNL     1     -43.186  56.419 -57.401  1.00  0.00     0.158 A 
HETATM    2  N   UNL     1     -42.802  57.476 -56.575  1.00  0.00    -0.274 N 
HETATM    3  C   UNL     1     -42.159  56.849 -55.519  1.00  0.00     0.196 A 
HETATM    4  N   UNL     1     -42.241  55.544 -55.643  1.00  0.00    -0.122 NA
HETATM    5  N   UNL     1     -42.877  55.274 -56.813  1.00  0.00    -0.131 NA
ENDROOT
BRANCH   3   6
HETATM    6  S   UNL     1     -41.508  57.625 -54.110  1.00  0.00    -0.080 SA
BRANCH   6   7
HETATM    7  C   UNL     1     -42.847  57.347 -52.909  1.00  0.00     0.185 C 
BRANCH   7   8
HETATM    8  C   UNL     1     -42.668  55.998 -52.231  1.00  0.00     0.231 C 
HETATM    9  N   UNL     1     -41.365  55.523 -52.272  1.00  0.00    -0.326 N 
HETATM   10  H   UNL     1     -40.688  56.099 -52.773  1.00  0.00     0.169 HD
HETATM   11  O   UNL     1     -43.633  55.430 -51.725  1.00  0.00    -0.272 OA
BRANCH   9  12
HETATM   12  C   UNL     1     -40.889  54.288 -51.778  1.00  0.00     0.036 A 
HETATM   13  C   UNL     1     -40.348  53.386 -52.714  1.00  0.00     0.059 A 
HETATM   14  C   UNL     1     -39.866  52.134 -52.317  1.00  0.00     0.036 A 
HETATM   15  C   UNL     1     -39.948  51.788 -50.962  1.00  0.00     0.029 A 
HETATM   16  C   UNL     1     -40.473  52.675 -50.026  1.00  0.00     0.004 A 
HETATM   17  C   UNL     1     -40.940  53.923 -50.434  1.00  0.00     0.029 A 
BRANCH  14  18
HETATM   18  N   UNL     1     -39.322  51.152 -53.166  1.00  0.00    -0.327 N 
HETATM   19  C   UNL     1     -39.841  50.271 -54.064  1.00  0.00     0.218 C 
HETATM   20  C   UNL     1     -41.294  50.267 -54.427  1.00  0.00     0.117 C 
HETATM   21  O   UNL     1     -39.064  49.475 -54.602  1.00  0.00    -0.274 OA
HETATM   22  H   UNL     1     -38.314  51.052 -53.133  1.00  0.00     0.169 HD
ENDBRANCH  14  18
ENDBRANCH   9  12
ENDBRANCH   7   8
ENDBRANCH   6   7
ENDBRANCH   3   6
BRANCH   2  23
HETATM   23  C   UNL     1     -43.026  58.863 -56.778  1.00  0.00     0.043 A 
HETATM   24  C   UNL     1     -42.195  59.587 -57.644  1.00  0.00     0.030 A 
HETATM   25  C   UNL     1     -42.411  60.953 -57.839  1.00  0.00     0.002 A 
HETATM   26  C   UNL     1     -43.453  61.599 -57.178  1.00  0.00     0.000 A 
HETATM   27  C   UNL     1     -44.286  60.881 -56.322  1.00  0.00     0.002 A 
HETATM   28  C   UNL     1     -44.077  59.515 -56.120  1.00  0.00     0.030 A 
ENDBRANCH   2  23
BRANCH   1  29
HETATM   29  C   UNL     1     -43.726  56.528 -58.814  1.00  0.00     0.150 C 
HETATM   30  C   UNL     1     -43.371  55.272 -59.624  1.00  0.00     0.040 C 
BRANCH  29  31
HETATM   31  N   UNL     1     -45.191  56.674 -58.806  1.00  0.00    -0.379 N 
HETATM   32  H   UNL     1     -45.642  55.940 -59.349  1.00  0.00     0.160 HD
BRANCH  31  33
HETATM   33  C   UNL     1     -45.838  57.900 -58.847  1.00  0.00     0.028 A 
HETATM   34  C   UNL     1     -46.924  58.122 -57.985  1.00  0.00     0.030 A 
HETATM   35  C   UNL     1     -47.581  59.356 -57.938  1.00  0.00     0.021 A 
HETATM   36  C   UNL     1     -47.137  60.400 -58.741  1.00  0.00     0.011 A 
HETATM   37 BR   UNL     1     -47.999  62.079 -58.666  1.00  0.00    -0.051 Br
HETATM   38  C   UNL     1     -46.049  60.214 -59.588  1.00  0.00     0.021 A 
HETATM   39  C   UNL     1     -45.406  58.971 -59.637  1.00  0.00     0.030 A 
ENDBRANCH  31  33
ENDBRANCH  29  31
ENDBRANCH   1  29
TORSDOF 9
ENDMDL
