MODEL 1
REMARK VINA RESULT:      -9.2      0.000      0.000
REMARK  4 active torsions:
REMARK  status: ('A' for Active; 'I' for Inactive)
REMARK    1  A    between atoms: N_4  and  C_5 
REMARK    2  A    between atoms: C_15  and  C_16 
REMARK       I    between atoms: C_16  and  N_17 
REMARK    3  A    between atoms: N_17  and  C_18 
REMARK    4  A    between atoms: C_19  and  C_20 
REMARK       I    between atoms: C_20  and  N_21 
ROOT
HETATM    1  C   UNL     1     -41.285  56.455 -50.816  1.00  0.00     0.073 C 
HETATM    2  C   UNL     1     -41.193  55.447 -51.901  1.00  0.00     0.069 A 
HETATM    3  N   UNL     1     -40.612  54.262 -51.672  1.00  0.00    -0.170 NA
HETATM    4  N   UNL     1     -40.726  53.564 -52.843  1.00  0.00    -0.216 N 
HETATM    5  C   UNL     1     -41.268  54.375 -53.829  1.00  0.00     0.145 A 
HETATM    6  C   UNL     1     -41.601  55.573 -53.240  1.00  0.00     0.087 A 
HETATM    7  N   UNL     1     -41.413  54.154 -55.159  1.00  0.00    -0.349 N 
HETATM    8  C   UNL     1     -41.905  55.185 -55.943  1.00  0.00     0.111 A 
HETATM    9  C   UNL     1     -42.302  56.390 -55.476  1.00  0.00     0.098 A 
HETATM   10  C   UNL     1     -42.179  56.660 -54.001  1.00  0.00     0.205 A 
HETATM   11  O   UNL     1     -42.512  57.735 -53.509  1.00  0.00    -0.286 OA
HETATM   12  H   UNL     1     -40.944  53.398 -55.657  1.00  0.00     0.167 HD
ENDROOT
BRANCH   9  13
HETATM   13  C   UNL     1     -42.772  57.409 -56.464  1.00  0.00     0.261 C 
HETATM   14  N   UNL     1     -41.792  57.883 -57.319  1.00  0.00    -0.322 N 
HETATM   15  H   UNL     1     -40.912  57.363 -57.311  1.00  0.00     0.169 HD
HETATM   16  O   UNL     1     -43.959  57.710 -56.516  1.00  0.00    -0.267 OA
BRANCH  14  17
HETATM   17  C   UNL     1     -42.029  58.661 -58.479  1.00  0.00     0.050 A 
HETATM   18  C   UNL     1     -42.468  58.193 -59.732  1.00  0.00     0.058 A 
HETATM   19  C   UNL     1     -42.499  59.074 -60.829  1.00  0.00     0.019 A 
HETATM   20  C   UNL     1     -42.156  60.418 -60.679  1.00  0.00     0.001 A 
HETATM   21  C   UNL     1     -41.801  60.901 -59.426  1.00  0.00     0.002 A 
HETATM   22  C   UNL     1     -41.746  60.032 -58.334  1.00  0.00     0.030 A 
BRANCH  18  23
HETATM   23  C   UNL     1     -43.080  56.861 -59.991  1.00  0.00     0.251 C 
HETATM   24  N   UNL     1     -44.234  56.846 -60.726  1.00  0.00    -0.366 N 
HETATM   25  H   UNL     1     -44.722  57.689 -60.987  1.00  0.00     0.159 HD
HETATM   26  H   UNL     1     -44.671  55.948 -60.878  1.00  0.00     0.159 HD
HETATM   27  O   UNL     1     -42.523  55.818 -59.672  1.00  0.00    -0.268 OA
ENDBRANCH  18  23
ENDBRANCH  14  17
ENDBRANCH   9  13
BRANCH   4  28
HETATM   28  C   UNL     1     -40.313  52.202 -52.901  1.00  0.00     0.060 A 
HETATM   29  C   UNL     1     -40.355  51.467 -54.091  1.00  0.00     0.031 A 
HETATM   30  C   UNL     1     -39.935  50.133 -54.108  1.00  0.00     0.002 A 
HETATM   31  C   UNL     1     -39.477  49.526 -52.940  1.00  0.00     0.000 A 
HETATM   32  C   UNL     1     -39.454  50.243 -51.746  1.00  0.00     0.002 A 
HETATM   33  C   UNL     1     -39.879  51.573 -51.722  1.00  0.00     0.031 A 
ENDBRANCH   4  28
TORSDOF 4
ENDMDL
MODEL 2
REMARK VINA RESULT:      -8.9      1.293      2.128
REMARK  4 active torsions:
REMARK  status: ('A' for Active; 'I' for Inactive)
REMARK    1  A    between atoms: N_4  and  C_5 
REMARK    2  A    between atoms: C_15  and  C_16 
REMARK       I    between atoms: C_16  and  N_17 
REMARK    3  A    between atoms: N_17  and  C_18 
REMARK    4  A    between atoms: C_19  and  C_20 
REMARK       I    between atoms: C_20  and  N_21 
ROOT
HETATM    1  C   UNL     1     -41.071  56.264 -50.457  1.00  0.00     0.073 C 
HETATM    2  C   UNL     1     -41.016  55.237 -51.526  1.00  0.00     0.069 A 
HETATM    3  N   UNL     1     -40.429  54.055 -51.295  1.00  0.00    -0.170 NA
HETATM    4  N   UNL     1     -40.582  53.336 -52.448  1.00  0.00    -0.216 N 
HETATM    5  C   UNL     1     -41.155  54.130 -53.431  1.00  0.00     0.145 A 
HETATM    6  C   UNL     1     -41.467  55.339 -52.854  1.00  0.00     0.087 A 
HETATM    7  N   UNL     1     -41.343  53.885 -54.751  1.00  0.00    -0.349 N 
HETATM    8  C   UNL     1     -41.858  54.902 -55.537  1.00  0.00     0.111 A 
HETATM    9  C   UNL     1     -42.238  56.117 -55.080  1.00  0.00     0.098 A 
HETATM   10  C   UNL     1     -42.068  56.413 -53.615  1.00  0.00     0.205 A 
HETATM   11  O   UNL     1     -42.383  57.497 -53.132  1.00  0.00    -0.286 OA
HETATM   12  H   UNL     1     -40.892  53.119 -55.251  1.00  0.00     0.167 HD
ENDROOT
BRANCH   9  13
HETATM   13  C   UNL     1     -42.739  57.119 -56.071  1.00  0.00     0.261 C 
HETATM   14  N   UNL     1     -41.827  57.472 -57.049  1.00  0.00    -0.322 N 
HETATM   15  H   UNL     1     -40.991  56.887 -57.103  1.00  0.00     0.169 HD
HETATM   16  O   UNL     1     -43.901  57.508 -56.015  1.00  0.00    -0.267 OA
BRANCH  14  17
HETATM   17  C   UNL     1     -42.132  58.207 -58.222  1.00  0.00     0.050 A 
HETATM   18  C   UNL     1     -42.191  59.608 -58.345  1.00  0.00     0.058 A 
HETATM   19  C   UNL     1     -42.667  60.179 -59.541  1.00  0.00     0.019 A 
HETATM   20  C   UNL     1     -43.025  59.377 -60.625  1.00  0.00     0.001 A 
HETATM   21  C   UNL     1     -42.889  57.998 -60.534  1.00  0.00     0.002 A 
HETATM   22  C   UNL     1     -42.439  57.419 -59.346  1.00  0.00     0.030 A 
BRANCH  18  23
HETATM   23  C   UNL     1     -41.632  60.586 -57.373  1.00  0.00     0.251 C 
HETATM   24  N   UNL     1     -41.246  61.800 -57.873  1.00  0.00    -0.366 N 
HETATM   25  H   UNL     1     -41.226  61.997 -58.863  1.00  0.00     0.159 HD
HETATM   26  H   UNL     1     -40.837  62.456 -57.224  1.00  0.00     0.159 HD
HETATM   27  O   UNL     1     -41.625  60.371 -56.167  1.00  0.00    -0.268 OA
ENDBRANCH  18  23
ENDBRANCH  14  17
ENDBRANCH   9  13
BRANCH   4  28
HETATM   28  C   UNL     1     -40.173  51.973 -52.495  1.00  0.00     0.060 A 
HETATM   29  C   UNL     1     -40.092  51.266 -53.700  1.00  0.00     0.031 A 
HETATM   30  C   UNL     1     -39.680  49.929 -53.704  1.00  0.00     0.002 A 
HETATM   31  C   UNL     1     -39.353  49.291 -52.510  1.00  0.00     0.000 A 
HETATM   32  C   UNL     1     -39.453  49.980 -51.303  1.00  0.00     0.002 A 
HETATM   33  C   UNL     1     -39.871  51.312 -51.292  1.00  0.00     0.031 A 
ENDBRANCH   4  28
TORSDOF 4
ENDMDL
MODEL 3
REMARK VINA RESULT:      -8.9      1.706      1.893
REMARK  4 active torsions:
REMARK  status: ('A' for Active; 'I' for Inactive)
REMARK    1  A    between atoms: N_4  and  C_5 
REMARK    2  A    between atoms: C_15  and  C_16 
REMARK       I    between atoms: C_16  and  N_17 
REMARK    3  A    between atoms: N_17  and  C_18 
REMARK    4  A    between atoms: C_19  and  C_20 
REMARK       I    between atoms: C_20  and  N_21 
ROOT
HETATM    1  C   UNL     1     -41.353  56.508 -50.871  1.00  0.00     0.073 C 
HETATM    2  C   UNL     1     -41.239  55.440 -51.895  1.00  0.00     0.069 A 
HETATM    3  N   UNL     1     -40.629  54.285 -51.598  1.00  0.00    -0.170 NA
HETATM    4  N   UNL     1     -40.728  53.516 -52.726  1.00  0.00    -0.216 N 
HETATM    5  C   UNL     1     -41.291  54.256 -53.757  1.00  0.00     0.145 A 
HETATM    6  C   UNL     1     -41.651  55.478 -53.238  1.00  0.00     0.087 A 
HETATM    7  N   UNL     1     -41.432  53.953 -55.071  1.00  0.00    -0.349 N 
HETATM    8  C   UNL     1     -41.949  54.924 -55.912  1.00  0.00     0.111 A 
HETATM    9  C   UNL     1     -42.374  56.145 -55.516  1.00  0.00     0.098 A 
HETATM   10  C   UNL     1     -42.256  56.504 -54.061  1.00  0.00     0.205 A 
HETATM   11  O   UNL     1     -42.613  57.598 -53.631  1.00  0.00    -0.286 OA
HETATM   12  H   UNL     1     -40.947  53.180 -55.525  1.00  0.00     0.167 HD
ENDROOT
BRANCH   9  13
HETATM   13  C   UNL     1     -42.869  57.093 -56.562  1.00  0.00     0.261 C 
HETATM   14  N   UNL     1     -44.026  56.694 -57.205  1.00  0.00    -0.322 N 
HETATM   15  H   UNL     1     -44.515  55.903 -56.781  1.00  0.00     0.169 HD
HETATM   16  O   UNL     1     -42.294  58.162 -56.740  1.00  0.00    -0.267 OA
BRANCH  14  17
HETATM   17  C   UNL     1     -44.815  57.514 -58.050  1.00  0.00     0.050 A 
HETATM   18  C   UNL     1     -44.777  57.556 -59.457  1.00  0.00     0.058 A 
HETATM   19  C   UNL     1     -45.511  58.544 -60.140  1.00  0.00     0.019 A 
HETATM   20  C   UNL     1     -46.320  59.444 -59.447  1.00  0.00     0.001 A 
HETATM   21  C   UNL     1     -46.424  59.352 -58.065  1.00  0.00     0.002 A 
HETATM   22  C   UNL     1     -45.684  58.390 -57.374  1.00  0.00     0.030 A 
BRANCH  18  23
HETATM   23  C   UNL     1     -44.152  56.531 -60.335  1.00  0.00     0.251 C 
HETATM   24  N   UNL     1     -44.978  55.889 -61.217  1.00  0.00    -0.366 N 
HETATM   25  H   UNL     1     -45.980  56.007 -61.206  1.00  0.00     0.159 HD
HETATM   26  H   UNL     1     -44.566  55.170 -61.794  1.00  0.00     0.159 HD
HETATM   27  O   UNL     1     -42.941  56.349 -60.361  1.00  0.00    -0.268 OA
ENDBRANCH  18  23
ENDBRANCH  14  17
ENDBRANCH   9  13
BRANCH   4  28
HETATM   28  C   UNL     1     -40.283  52.164 -52.706  1.00  0.00     0.060 A 
HETATM   29  C   UNL     1     -40.218  51.389 -53.869  1.00  0.00     0.031 A 
HETATM   30  C   UNL     1     -39.770  50.066 -53.807  1.00  0.00     0.002 A 
HETATM   31  C   UNL     1     -39.391  49.508 -52.588  1.00  0.00     0.000 A 
HETATM   32  C   UNL     1     -39.475  50.264 -51.421  1.00  0.00     0.002 A 
HETATM   33  C   UNL     1     -39.929  51.584 -51.475  1.00  0.00     0.031 A 
ENDBRANCH   4  28
TORSDOF 4
ENDMDL
MODEL 4
REMARK VINA RESULT:      -8.8      1.527      1.996
REMARK  4 active torsions:
REMARK  status: ('A' for Active; 'I' for Inactive)
REMARK    1  A    between atoms: N_4  and  C_5 
REMARK    2  A    between atoms: C_15  and  C_16 
REMARK       I    between atoms: C_16  and  N_17 
REMARK    3  A    between atoms: N_17  and  C_18 
REMARK    4  A    between atoms: C_19  and  C_20 
REMARK       I    between atoms: C_20  and  N_21 
ROOT
HETATM    1  C   UNL     1     -41.280  56.461 -50.662  1.00  0.00     0.073 C 
HETATM    2  C   UNL     1     -41.161  55.417 -51.710  1.00  0.00     0.069 A 
HETATM    3  N   UNL     1     -40.581  54.243 -51.428  1.00  0.00    -0.170 NA
HETATM    4  N   UNL     1     -40.666  53.505 -52.577  1.00  0.00    -0.216 N 
HETATM    5  C   UNL     1     -41.188  54.281 -53.602  1.00  0.00     0.145 A 
HETATM    6  C   UNL     1     -41.538  55.497 -53.061  1.00  0.00     0.087 A 
HETATM    7  N   UNL     1     -41.302  54.015 -54.926  1.00  0.00    -0.349 N 
HETATM    8  C   UNL     1     -41.778  55.017 -55.756  1.00  0.00     0.111 A 
HETATM    9  C   UNL     1     -42.189  56.236 -55.339  1.00  0.00     0.098 A 
HETATM   10  C   UNL     1     -42.101  56.555 -53.872  1.00  0.00     0.205 A 
HETATM   11  O   UNL     1     -42.448  57.645 -53.424  1.00  0.00    -0.286 OA
HETATM   12  H   UNL     1     -40.820  53.244 -55.388  1.00  0.00     0.167 HD
ENDROOT
BRANCH   9  13
HETATM   13  C   UNL     1     -42.639  57.219 -56.372  1.00  0.00     0.261 C 
HETATM   14  N   UNL     1     -43.501  56.707 -57.324  1.00  0.00    -0.322 N 
HETATM   15  H   UNL     1     -43.881  55.780 -57.121  1.00  0.00     0.169 HD
HETATM   16  O   UNL     1     -42.296  58.394 -56.289  1.00  0.00    -0.267 OA
BRANCH  14  17
HETATM   17  C   UNL     1     -44.245  57.479 -58.251  1.00  0.00     0.050 A 
HETATM   18  C   UNL     1     -43.816  57.916 -59.519  1.00  0.00     0.058 A 
HETATM   19  C   UNL     1     -44.617  58.812 -60.251  1.00  0.00     0.019 A 
HETATM   20  C   UNL     1     -45.856  59.228 -59.764  1.00  0.00     0.001 A 
HETATM   21  C   UNL     1     -46.319  58.734 -58.551  1.00  0.00     0.002 A 
HETATM   22  C   UNL     1     -45.523  57.861 -57.805  1.00  0.00     0.030 A 
BRANCH  18  23
HETATM   23  C   UNL     1     -42.642  57.385 -60.264  1.00  0.00     0.251 C 
HETATM   24  N   UNL     1     -41.788  58.307 -60.805  1.00  0.00    -0.366 N 
HETATM   25  H   UNL     1     -41.989  59.296 -60.810  1.00  0.00     0.159 HD
HETATM   26  H   UNL     1     -41.007  57.953 -61.339  1.00  0.00     0.159 HD
HETATM   27  O   UNL     1     -42.378  56.189 -60.294  1.00  0.00    -0.268 OA
ENDBRANCH  18  23
ENDBRANCH  14  17
ENDBRANCH   9  13
BRANCH   4  28
HETATM   28  C   UNL     1     -40.249  52.144 -52.580  1.00  0.00     0.060 A 
HETATM   29  C   UNL     1     -39.880  51.481 -51.404  1.00  0.00     0.031 A 
HETATM   30  C   UNL     1     -39.482  50.141 -51.448  1.00  0.00     0.002 A 
HETATM   31  C   UNL     1     -39.442  49.459 -52.663  1.00  0.00     0.000 A 
HETATM   32  C   UNL     1     -39.784  50.119 -53.842  1.00  0.00     0.002 A 
HETATM   33  C   UNL     1     -40.176  51.459 -53.804  1.00  0.00     0.031 A 
ENDBRANCH   4  28
TORSDOF 4
ENDMDL
MODEL 5
REMARK VINA RESULT:      -8.7      1.914      9.074
REMARK  4 active torsions:
REMARK  status: ('A' for Active; 'I' for Inactive)
REMARK    1  A    between atoms: N_4  and  C_5 
REMARK    2  A    between atoms: C_15  and  C_16 
REMARK       I    between atoms: C_16  and  N_17 
REMARK    3  A    between atoms: N_17  and  C_18 
REMARK    4  A    between atoms: C_19  and  C_20 
REMARK       I    between atoms: C_20  and  N_21 
ROOT
HETATM    1  C   UNL     1     -44.338  54.222 -59.646  1.00  0.00     0.073 C 
HETATM    2  C   UNL     1     -43.818  55.585 -59.375  1.00  0.00     0.069 A 
HETATM    3  N   UNL     1     -43.774  56.496 -60.355  1.00  0.00    -0.170 NA
HETATM    4  N   UNL     1     -43.291  57.638 -59.776  1.00  0.00    -0.216 N 
HETATM    5  C   UNL     1     -42.919  57.383 -58.463  1.00  0.00     0.145 A 
HETATM    6  C   UNL     1     -43.276  56.085 -58.179  1.00  0.00     0.087 A 
HETATM    7  N   UNL     1     -42.259  58.166 -57.576  1.00  0.00    -0.349 N 
HETATM    8  C   UNL     1     -41.926  57.623 -56.346  1.00  0.00     0.111 A 
HETATM    9  C   UNL     1     -42.254  56.377 -55.936  1.00  0.00     0.098 A 
HETATM   10  C   UNL     1     -43.010  55.490 -56.886  1.00  0.00     0.205 A 
HETATM   11  O   UNL     1     -43.333  54.344 -56.585  1.00  0.00    -0.286 OA
HETATM   12  H   UNL     1     -41.760  59.016 -57.839  1.00  0.00     0.167 HD
ENDROOT
BRANCH   9  13
HETATM   13  C   UNL     1     -41.781  55.930 -54.590  1.00  0.00     0.261 C 
HETATM   14  N   UNL     1     -42.172  54.653 -54.233  1.00  0.00    -0.322 N 
HETATM   15  H   UNL     1     -42.576  54.090 -54.984  1.00  0.00     0.169 HD
HETATM   16  O   UNL     1     -41.045  56.654 -53.928  1.00  0.00    -0.267 OA
BRANCH  14  17
HETATM   17  C   UNL     1     -41.662  53.921 -53.131  1.00  0.00     0.050 A 
HETATM   18  C   UNL     1     -42.065  54.033 -51.787  1.00  0.00     0.058 A 
HETATM   19  C   UNL     1     -41.346  53.349 -50.789  1.00  0.00     0.019 A 
HETATM   20  C   UNL     1     -40.276  52.517 -51.119  1.00  0.00     0.001 A 
HETATM   21  C   UNL     1     -39.929  52.340 -52.452  1.00  0.00     0.002 A 
HETATM   22  C   UNL     1     -40.621  53.030 -53.450  1.00  0.00     0.030 A 
BRANCH  18  23
HETATM   23  C   UNL     1     -43.313  54.690 -51.311  1.00  0.00     0.251 C 
HETATM   24  N   UNL     1     -44.378  53.872 -51.049  1.00  0.00    -0.366 N 
HETATM   25  H   UNL     1     -44.374  52.887 -51.272  1.00  0.00     0.159 HD
HETATM   26  H   UNL     1     -45.237  54.314 -50.756  1.00  0.00     0.159 HD
HETATM   27  O   UNL     1     -43.358  55.885 -51.047  1.00  0.00    -0.268 OA
ENDBRANCH  18  23
ENDBRANCH  14  17
ENDBRANCH   9  13
BRANCH   4  28
HETATM   28  C   UNL     1     -43.236  58.847 -60.525  1.00  0.00     0.060 A 
HETATM   29  C   UNL     1     -42.022  59.416 -60.924  1.00  0.00     0.031 A 
HETATM   30  C   UNL     1     -42.011  60.602 -61.665  1.00  0.00     0.002 A 
HETATM   31  C   UNL     1     -43.208  61.229 -62.005  1.00  0.00     0.000 A 
HETATM   32  C   UNL     1     -44.421  60.683 -61.592  1.00  0.00     0.002 A 
HETATM   33  C   UNL     1     -44.438  59.502 -60.846  1.00  0.00     0.031 A 
ENDBRANCH   4  28
TORSDOF 4
ENDMDL
MODEL 6
REMARK VINA RESULT:      -8.6      1.717      2.231
REMARK  4 active torsions:
REMARK  status: ('A' for Active; 'I' for Inactive)
REMARK    1  A    between atoms: N_4  and  C_5 
REMARK    2  A    between atoms: C_15  and  C_16 
REMARK       I    between atoms: C_16  and  N_17 
REMARK    3  A    between atoms: N_17  and  C_18 
REMARK    4  A    between atoms: C_19  and  C_20 
REMARK       I    between atoms: C_20  and  N_21 
ROOT
HETATM    1  C   UNL     1     -41.302  56.363 -50.568  1.00  0.00     0.073 C 
HETATM    2  C   UNL     1     -41.147  55.362 -51.653  1.00  0.00     0.069 A 
HETATM    3  N   UNL     1     -40.587  54.173 -51.396  1.00  0.00    -0.170 NA
HETATM    4  N   UNL     1     -40.629  53.483 -52.577  1.00  0.00    -0.216 N 
HETATM    5  C   UNL     1     -41.104  54.305 -53.590  1.00  0.00     0.145 A 
HETATM    6  C   UNL     1     -41.467  55.500 -53.014  1.00  0.00     0.087 A 
HETATM    7  N   UNL     1     -41.165  54.094 -54.927  1.00  0.00    -0.349 N 
HETATM    8  C   UNL     1     -41.600  55.133 -55.733  1.00  0.00     0.111 A 
HETATM    9  C   UNL     1     -42.020  56.337 -55.284  1.00  0.00     0.098 A 
HETATM   10  C   UNL     1     -41.990  56.596 -53.803  1.00  0.00     0.205 A 
HETATM   11  O   UNL     1     -42.348  57.669 -53.324  1.00  0.00    -0.286 OA
HETATM   12  H   UNL     1     -40.670  53.339 -55.401  1.00  0.00     0.167 HD
ENDROOT
BRANCH   9  13
HETATM   13  C   UNL     1     -42.421  57.366 -56.293  1.00  0.00     0.261 C 
HETATM   14  N   UNL     1     -43.232  56.896 -57.310  1.00  0.00    -0.322 N 
HETATM   15  H   UNL     1     -43.617  55.960 -57.168  1.00  0.00     0.169 HD
HETATM   16  O   UNL     1     -42.087  58.536 -56.139  1.00  0.00    -0.267 OA
BRANCH  14  17
HETATM   17  C   UNL     1     -43.930  57.708 -58.238  1.00  0.00     0.050 A 
HETATM   18  C   UNL     1     -45.240  58.206 -58.102  1.00  0.00     0.058 A 
HETATM   19  C   UNL     1     -45.846  58.864 -59.188  1.00  0.00     0.019 A 
HETATM   20  C   UNL     1     -45.148  59.081 -60.376  1.00  0.00     0.001 A 
HETATM   21  C   UNL     1     -43.828  58.663 -60.483  1.00  0.00     0.002 A 
HETATM   22  C   UNL     1     -43.222  57.990 -59.420  1.00  0.00     0.030 A 
BRANCH  18  23
HETATM   23  C   UNL     1     -46.018  58.256 -56.835  1.00  0.00     0.251 C 
HETATM   24  N   UNL     1     -47.256  57.673 -56.849  1.00  0.00    -0.366 N 
HETATM   25  H   UNL     1     -47.683  57.327 -57.695  1.00  0.00     0.159 HD
HETATM   26  H   UNL     1     -47.802  57.732 -56.001  1.00  0.00     0.159 HD
HETATM   27  O   UNL     1     -45.537  58.687 -55.794  1.00  0.00    -0.268 OA
ENDBRANCH  18  23
ENDBRANCH  14  17
ENDBRANCH   9  13
BRANCH   4  28
HETATM   28  C   UNL     1     -40.221  52.120 -52.619  1.00  0.00     0.060 A 
HETATM   29  C   UNL     1     -40.179  51.397 -53.816  1.00  0.00     0.031 A 
HETATM   30  C   UNL     1     -39.765  50.061 -53.816  1.00  0.00     0.002 A 
HETATM   31  C   UNL     1     -39.399  49.439 -52.624  1.00  0.00     0.000 A 
HETATM   32  C   UNL     1     -39.461  50.144 -51.424  1.00  0.00     0.002 A 
HETATM   33  C   UNL     1     -39.880  51.476 -51.417  1.00  0.00     0.031 A 
ENDBRANCH   4  28
TORSDOF 4
ENDMDL
MODEL 7
REMARK VINA RESULT:      -8.6      2.873      3.180
REMARK  4 active torsions:
REMARK  status: ('A' for Active; 'I' for Inactive)
REMARK    1  A    between atoms: N_4  and  C_5 
REMARK    2  A    between atoms: C_15  and  C_16 
REMARK       I    between atoms: C_16  and  N_17 
REMARK    3  A    between atoms: N_17  and  C_18 
REMARK    4  A    between atoms: C_19  and  C_20 
REMARK       I    between atoms: C_20  and  N_21 
ROOT
HETATM    1  C   UNL     1     -43.997  56.769 -51.432  1.00  0.00     0.073 C 
HETATM    2  C   UNL     1     -43.302  55.945 -52.451  1.00  0.00     0.069 A 
HETATM    3  N   UNL     1     -42.411  55.018 -52.074  1.00  0.00    -0.170 NA
HETATM    4  N   UNL     1     -41.991  54.419 -53.230  1.00  0.00    -0.216 N 
HETATM    5  C   UNL     1     -42.536  55.071 -54.327  1.00  0.00     0.145 A 
HETATM    6  C   UNL     1     -43.399  56.029 -53.850  1.00  0.00     0.087 A 
HETATM    7  N   UNL     1     -42.275  54.920 -55.649  1.00  0.00    -0.349 N 
HETATM    8  C   UNL     1     -42.899  55.777 -56.540  1.00  0.00     0.111 A 
HETATM    9  C   UNL     1     -43.794  56.731 -56.198  1.00  0.00     0.098 A 
HETATM   10  C   UNL     1     -44.127  56.908 -54.742  1.00  0.00     0.205 A 
HETATM   11  O   UNL     1     -44.924  57.760 -54.357  1.00  0.00    -0.286 OA
HETATM   12  H   UNL     1     -41.466  54.414 -56.008  1.00  0.00     0.167 HD
ENDROOT
BRANCH   9  13
HETATM   13  C   UNL     1     -44.346  57.602 -57.281  1.00  0.00     0.261 C 
HETATM   14  N   UNL     1     -45.688  57.406 -57.555  1.00  0.00    -0.322 N 
HETATM   15  H   UNL     1     -46.196  56.833 -56.879  1.00  0.00     0.169 HD
HETATM   16  O   UNL     1     -43.637  58.457 -57.800  1.00  0.00    -0.267 OA
BRANCH  14  17
HETATM   17  C   UNL     1     -46.490  58.257 -58.357  1.00  0.00     0.050 A 
HETATM   18  C   UNL     1     -46.755  58.115 -59.732  1.00  0.00     0.058 A 
HETATM   19  C   UNL     1     -47.440  59.137 -60.414  1.00  0.00     0.019 A 
HETATM   20  C   UNL     1     -47.911  60.261 -59.736  1.00  0.00     0.001 A 
HETATM   21  C   UNL     1     -47.723  60.365 -58.364  1.00  0.00     0.002 A 
HETATM   22  C   UNL     1     -47.025  59.367 -57.679  1.00  0.00     0.030 A 
BRANCH  18  23
HETATM   23  C   UNL     1     -46.523  56.883 -60.533  1.00  0.00     0.251 C 
HETATM   24  N   UNL     1     -47.350  56.680 -61.604  1.00  0.00    -0.366 N 
HETATM   25  H   UNL     1     -48.154  57.262 -61.787  1.00  0.00     0.159 HD
HETATM   26  H   UNL     1     -47.218  55.830 -62.134  1.00  0.00     0.159 HD
HETATM   27  O   UNL     1     -45.568  56.144 -60.327  1.00  0.00    -0.268 OA
ENDBRANCH  18  23
ENDBRANCH  14  17
ENDBRANCH   9  13
BRANCH   4  28
HETATM   28  C   UNL     1     -41.123  53.292 -53.172  1.00  0.00     0.060 A 
HETATM   29  C   UNL     1     -40.279  53.065 -52.079  1.00  0.00     0.031 A 
HETATM   30  C   UNL     1     -39.445  51.942 -52.057  1.00  0.00     0.002 A 
HETATM   31  C   UNL     1     -39.444  51.046 -53.124  1.00  0.00     0.000 A 
HETATM   32  C   UNL     1     -40.263  51.278 -54.227  1.00  0.00     0.002 A 
HETATM   33  C   UNL     1     -41.093  52.401 -54.258  1.00  0.00     0.031 A 
ENDBRANCH   4  28
TORSDOF 4
ENDMDL
MODEL 8
REMARK VINA RESULT:      -8.5      5.071      9.133
REMARK  4 active torsions:
REMARK  status: ('A' for Active; 'I' for Inactive)
REMARK    1  A    between atoms: N_4  and  C_5 
REMARK    2  A    between atoms: C_15  and  C_16 
REMARK       I    between atoms: C_16  and  N_17 
REMARK    3  A    between atoms: N_17  and  C_18 
REMARK    4  A    between atoms: C_19  and  C_20 
REMARK       I    between atoms: C_20  and  N_21 
ROOT
HETATM    1  C   UNL     1     -40.269  59.915 -50.196  1.00  0.00     0.073 C 
HETATM    2  C   UNL     1     -41.681  59.747 -50.619  1.00  0.00     0.069 A 
HETATM    3  N   UNL     1     -42.562  60.740 -50.437  1.00  0.00    -0.170 NA
HETATM    4  N   UNL     1     -43.741  60.287 -50.962  1.00  0.00    -0.216 N 
HETATM    5  C   UNL     1     -43.609  58.961 -51.352  1.00  0.00     0.145 A 
HETATM    6  C   UNL     1     -42.293  58.607 -51.169  1.00  0.00     0.087 A 
HETATM    7  N   UNL     1     -44.548  58.078 -51.772  1.00  0.00    -0.349 N 
HETATM    8  C   UNL     1     -44.156  56.771 -52.010  1.00  0.00     0.111 A 
HETATM    9  C   UNL     1     -42.888  56.313 -51.903  1.00  0.00     0.098 A 
HETATM   10  C   UNL     1     -41.817  57.273 -51.465  1.00  0.00     0.205 A 
HETATM   11  O   UNL     1     -40.646  56.924 -51.337  1.00  0.00    -0.286 OA
HETATM   12  H   UNL     1     -45.551  58.232 -51.668  1.00  0.00     0.167 HD
ENDROOT
BRANCH   9  13
HETATM   13  C   UNL     1     -42.640  54.860 -52.157  1.00  0.00     0.261 C 
HETATM   14  N   UNL     1     -41.429  54.576 -52.763  1.00  0.00    -0.322 N 
HETATM   15  H   UNL     1     -40.765  55.351 -52.804  1.00  0.00     0.169 HD
HETATM   16  O   UNL     1     -43.449  54.024 -51.770  1.00  0.00    -0.267 OA
BRANCH  14  17
HETATM   17  C   UNL     1     -40.864  53.282 -52.890  1.00  0.00     0.050 A 
HETATM   18  C   UNL     1     -40.153  52.574 -51.903  1.00  0.00     0.058 A 
HETATM   19  C   UNL     1     -39.516  51.365 -52.241  1.00  0.00     0.019 A 
HETATM   20  C   UNL     1     -39.628  50.831 -53.524  1.00  0.00     0.001 A 
HETATM   21  C   UNL     1     -40.398  51.486 -54.477  1.00  0.00     0.002 A 
HETATM   22  C   UNL     1     -41.017  52.697 -54.160  1.00  0.00     0.030 A 
BRANCH  18  23
HETATM   23  C   UNL     1     -40.140  52.895 -50.450  1.00  0.00     0.251 C 
HETATM   24  N   UNL     1     -40.448  51.876 -49.591  1.00  0.00    -0.366 N 
HETATM   25  H   UNL     1     -40.784  50.979 -49.911  1.00  0.00     0.159 HD
HETATM   26  H   UNL     1     -40.472  52.095 -48.605  1.00  0.00     0.159 HD
HETATM   27  O   UNL     1     -39.755  53.979 -50.027  1.00  0.00    -0.268 OA
ENDBRANCH  18  23
ENDBRANCH  14  17
ENDBRANCH   9  13
BRANCH   4  28
HETATM   28  C   UNL     1     -44.865  61.157 -51.042  1.00  0.00     0.060 A 
HETATM   29  C   UNL     1     -45.516  61.631 -49.897  1.00  0.00     0.031 A 
HETATM   30  C   UNL     1     -46.613  62.490 -50.018  1.00  0.00     0.002 A 
HETATM   31  C   UNL     1     -47.069  62.876 -51.277  1.00  0.00     0.000 A 
HETATM   32  C   UNL     1     -46.442  62.389 -52.422  1.00  0.00     0.002 A 
HETATM   33  C   UNL     1     -45.350  61.526 -52.308  1.00  0.00     0.031 A 
ENDBRANCH   4  28
TORSDOF 4
ENDMDL
MODEL 9
REMARK VINA RESULT:      -8.5      3.801      5.080
REMARK  4 active torsions:
REMARK  status: ('A' for Active; 'I' for Inactive)
REMARK    1  A    between atoms: N_4  and  C_5 
REMARK    2  A    between atoms: C_15  and  C_16 
REMARK       I    between atoms: C_16  and  N_17 
REMARK    3  A    between atoms: N_17  and  C_18 
REMARK    4  A    between atoms: C_19  and  C_20 
REMARK       I    between atoms: C_20  and  N_21 
ROOT
HETATM    1  C   UNL     1     -40.967  54.759 -48.680  1.00  0.00     0.073 C 
HETATM    2  C   UNL     1     -40.801  54.381 -50.105  1.00  0.00     0.069 A 
HETATM    3  N   UNL     1     -40.390  53.149 -50.431  1.00  0.00    -0.170 NA
HETATM    4  N   UNL     1     -40.380  53.114 -51.799  1.00  0.00    -0.216 N 
HETATM    5  C   UNL     1     -40.666  54.373 -52.308  1.00  0.00     0.145 A 
HETATM    6  C   UNL     1     -40.967  55.189 -51.243  1.00  0.00     0.087 A 
HETATM    7  N   UNL     1     -40.611  54.832 -53.582  1.00  0.00    -0.349 N 
HETATM    8  C   UNL     1     -40.859  56.176 -53.804  1.00  0.00     0.111 A 
HETATM    9  C   UNL     1     -41.201  57.068 -52.847  1.00  0.00     0.098 A 
HETATM   10  C   UNL     1     -41.297  56.587 -51.426  1.00  0.00     0.205 A 
HETATM   11  O   UNL     1     -41.595  57.342 -50.504  1.00  0.00    -0.286 OA
HETATM   12  H   UNL     1     -40.147  54.332 -54.340  1.00  0.00     0.167 HD
ENDROOT
BRANCH   9  13
HETATM   13  C   UNL     1     -41.395  58.495 -53.250  1.00  0.00     0.261 C 
HETATM   14  N   UNL     1     -42.711  58.920 -53.266  1.00  0.00    -0.322 N 
HETATM   15  H   UNL     1     -43.383  58.285 -52.831  1.00  0.00     0.169 HD
HETATM   16  O   UNL     1     -40.420  59.207 -53.466  1.00  0.00    -0.267 OA
BRANCH  14  17
HETATM   17  C   UNL     1     -43.132  60.269 -53.378  1.00  0.00     0.050 A 
HETATM   18  C   UNL     1     -43.500  61.126 -52.324  1.00  0.00     0.058 A 
HETATM   19  C   UNL     1     -44.050  62.388 -52.618  1.00  0.00     0.019 A 
HETATM   20  C   UNL     1     -44.180  62.824 -53.936  1.00  0.00     0.001 A 
HETATM   21  C   UNL     1     -43.740  62.013 -54.975  1.00  0.00     0.002 A 
HETATM   22  C   UNL     1     -43.213  60.750 -54.697  1.00  0.00     0.030 A 
BRANCH  18  23
HETATM   23  C   UNL     1     -43.210  60.898 -50.882  1.00  0.00     0.251 C 
HETATM   24  N   UNL     1     -44.101  60.124 -50.189  1.00  0.00    -0.366 N 
HETATM   25  H   UNL     1     -44.975  59.814 -50.588  1.00  0.00     0.159 HD
HETATM   26  H   UNL     1     -43.926  59.992 -49.204  1.00  0.00     0.159 HD
HETATM   27  O   UNL     1     -42.167  61.276 -50.362  1.00  0.00    -0.268 OA
ENDBRANCH  18  23
ENDBRANCH  14  17
ENDBRANCH   9  13
BRANCH   4  28
HETATM   28  C   UNL     1     -40.105  51.893 -52.477  1.00  0.00     0.060 A 
HETATM   29  C   UNL     1     -39.679  50.748 -51.794  1.00  0.00     0.031 A 
HETATM   30  C   UNL     1     -39.425  49.565 -52.496  1.00  0.00     0.002 A 
HETATM   31  C   UNL     1     -39.588  49.520 -53.880  1.00  0.00     0.000 A 
HETATM   32  C   UNL     1     -39.988  50.662 -54.570  1.00  0.00     0.002 A 
HETATM   33  C   UNL     1     -40.236  51.848 -53.875  1.00  0.00     0.031 A 
ENDBRANCH   4  28
TORSDOF 4
ENDMDL
MODEL 10
REMARK VINA RESULT:      -8.5      4.527      7.215
REMARK  4 active torsions:
REMARK  status: ('A' for Active; 'I' for Inactive)
REMARK    1  A    between atoms: N_4  and  C_5 
REMARK    2  A    between atoms: C_15  and  C_16 
REMARK       I    between atoms: C_16  and  N_17 
REMARK    3  A    between atoms: N_17  and  C_18 
REMARK    4  A    between atoms: C_19  and  C_20 
REMARK       I    between atoms: C_20  and  N_21 
ROOT
HETATM    1  C   UNL     1     -44.485  56.390 -54.741  1.00  0.00     0.073 C 
HETATM    2  C   UNL     1     -43.343  56.006 -53.875  1.00  0.00     0.069 A 
HETATM    3  N   UNL     1     -42.907  54.740 -53.858  1.00  0.00    -0.170 NA
HETATM    4  N   UNL     1     -41.838  54.730 -53.004  1.00  0.00    -0.216 N 
HETATM    5  C   UNL     1     -41.702  55.971 -52.399  1.00  0.00     0.145 A 
HETATM    6  C   UNL     1     -42.635  56.809 -52.964  1.00  0.00     0.087 A 
HETATM    7  N   UNL     1     -40.891  56.364 -51.386  1.00  0.00    -0.349 N 
HETATM    8  C   UNL     1     -41.027  57.655 -50.904  1.00  0.00     0.111 A 
HETATM    9  C   UNL     1     -41.878  58.581 -51.401  1.00  0.00     0.098 A 
HETATM   10  C   UNL     1     -42.773  58.187 -52.543  1.00  0.00     0.205 A 
HETATM   11  O   UNL     1     -43.577  58.973 -53.038  1.00  0.00    -0.286 OA
HETATM   12  H   UNL     1     -40.388  55.713 -50.784  1.00  0.00     0.167 HD
ENDROOT
BRANCH   9  13
HETATM   13  C   UNL     1     -41.929  59.920 -50.737  1.00  0.00     0.261 C 
HETATM   14  N   UNL     1     -43.161  60.547 -50.790  1.00  0.00    -0.322 N 
HETATM   15  H   UNL     1     -43.938  59.964 -51.107  1.00  0.00     0.169 HD
HETATM   16  O   UNL     1     -40.945  60.347 -50.143  1.00  0.00    -0.267 OA
BRANCH  14  17
HETATM   17  C   UNL     1     -43.526  61.694 -50.043  1.00  0.00     0.050 A 
HETATM   18  C   UNL     1     -44.580  61.795 -49.116  1.00  0.00     0.058 A 
HETATM   19  C   UNL     1     -44.912  63.053 -48.577  1.00  0.00     0.019 A 
HETATM   20  C   UNL     1     -44.174  64.189 -48.904  1.00  0.00     0.001 A 
HETATM   21  C   UNL     1     -43.081  64.078 -49.755  1.00  0.00     0.002 A 
HETATM   22  C   UNL     1     -42.755  62.840 -50.312  1.00  0.00     0.030 A 
BRANCH  18  23
HETATM   23  C   UNL     1     -45.301  60.648 -48.499  1.00  0.00     0.251 C 
HETATM   24  N   UNL     1     -45.355  60.617 -47.133  1.00  0.00    -0.366 N 
HETATM   25  H   UNL     1     -44.839  61.264 -46.555  1.00  0.00     0.159 HD
HETATM   26  H   UNL     1     -45.815  59.826 -46.707  1.00  0.00     0.159 HD
HETATM   27  O   UNL     1     -45.922  59.834 -49.172  1.00  0.00    -0.268 OA
ENDBRANCH  18  23
ENDBRANCH  14  17
ENDBRANCH   9  13
BRANCH   4  28
HETATM   28  C   UNL     1     -41.059  53.547 -52.854  1.00  0.00     0.060 A 
HETATM   29  C   UNL     1     -40.680  52.768 -53.952  1.00  0.00     0.031 A 
HETATM   30  C   UNL     1     -39.909  51.616 -53.763  1.00  0.00     0.002 A 
HETATM   31  C   UNL     1     -39.519  51.234 -52.481  1.00  0.00     0.000 A 
HETATM   32  C   UNL     1     -39.913  51.990 -51.380  1.00  0.00     0.002 A 
HETATM   33  C   UNL     1     -40.688  53.138 -51.562  1.00  0.00     0.031 A 
ENDBRANCH   4  28
TORSDOF 4
ENDMDL
