MODEL 1
REMARK VINA RESULT:      -8.4      0.000      0.000
REMARK  4 active torsions:
REMARK  status: ('A' for Active; 'I' for Inactive)
REMARK    1  A    between atoms: C_2  and  C_3 
REMARK    2  A    between atoms: C_6  and  C_7 
REMARK    3  A    between atoms: C_11  and  C_12 
REMARK       I    between atoms: C_12  and  N_13 
REMARK    4  A    between atoms: N_13  and  N_14 
ROOT
HETATM    1  C   UNL     1     -43.026  56.802 -57.404  1.00  0.00     0.289 C 
HETATM    2  N   UNL     1     -41.928  57.552 -57.790  1.00  0.00    -0.241 N 
HETATM    3  O   UNL     1     -44.132  56.877 -57.933  1.00  0.00    -0.264 OA
HETATM    4  H   UNL     1     -41.040  57.466 -57.297  1.00  0.00     0.192 HD
ENDROOT
BRANCH   1   5
HETATM    5  C   UNL     1     -42.790  55.902 -56.303  1.00  0.00     0.121 A 
HETATM    6  N   UNL     1     -43.778  55.617 -55.404  1.00  0.00    -0.272 N 
HETATM    7  N   UNL     1     -43.410  54.778 -54.427  1.00  0.00    -0.174 NA
HETATM    8  H   UNL     1     -44.726  55.980 -55.413  1.00  0.00     0.189 HD
HETATM    9  C   UNL     1     -42.131  54.474 -54.702  1.00  0.00     0.089 A 
HETATM   10  C   UNL     1     -41.703  55.166 -55.872  1.00  0.00     0.071 A 
BRANCH   9  11
HETATM   11  C   UNL     1     -41.364  53.552 -53.855  1.00  0.00    -0.006 A 
HETATM   12  C   UNL     1     -41.291  53.728 -52.467  1.00  0.00     0.014 A 
HETATM   13  C   UNL     1     -40.550  52.843 -51.673  1.00  0.00     0.008 A 
HETATM   14  C   UNL     1     -39.865  51.769 -52.252  1.00  0.00    -0.059 A 
HETATM   15  C   UNL     1     -39.941  51.586 -53.636  1.00  0.00     0.008 A 
HETATM   16  C   UNL     1     -40.678  52.472 -54.428  1.00  0.00     0.014 A 
BRANCH  14  17
HETATM   17  C   UNL     1     -39.077  50.811 -51.397  1.00  0.00     0.034 C 
HETATM   18  C   UNL     1     -39.981  49.836 -50.659  1.00  0.00     0.010 C 
ENDBRANCH  14  17
ENDBRANCH   9  11
ENDBRANCH   1   5
BRANCH   2  19
HETATM   19  N   UNL     1     -42.029  58.448 -58.819  1.00  0.00    -0.165 NA
HETATM   20  C   UNL     1     -41.952  59.702 -58.508  1.00  0.00     0.157 A 
HETATM   21  C   UNL     1     -41.764  60.330 -57.123  1.00  0.00     0.277 A 
HETATM   22  C   UNL     1     -42.037  60.816 -59.443  1.00  0.00     0.027 A 
HETATM   23  O   UNL     1     -41.649  59.703 -56.091  1.00  0.00    -0.266 OA
HETATM   24  N   UNL     1     -41.760  61.692 -57.332  1.00  0.00    -0.321 N 
HETATM   25  C   UNL     1     -41.918  61.981 -58.686  1.00  0.00     0.048 A 
HETATM   26  H   UNL     1     -41.654  62.370 -56.592  1.00  0.00     0.169 HD
HETATM   27  C   UNL     1     -41.959  63.225 -59.279  1.00  0.00     0.030 A 
HETATM   28  C   UNL     1     -42.125  63.269 -60.669  1.00  0.00     0.002 A 
HETATM   29  C   UNL     1     -42.243  62.085 -61.428  1.00  0.00     0.001 A 
HETATM   30  C   UNL     1     -42.200  60.832 -60.813  1.00  0.00     0.016 A 
ENDBRANCH   2  19
TORSDOF 4
ENDMDL
MODEL 2
REMARK VINA RESULT:      -8.4      3.524      4.544
REMARK  4 active torsions:
REMARK  status: ('A' for Active; 'I' for Inactive)
REMARK    1  A    between atoms: C_2  and  C_3 
REMARK    2  A    between atoms: C_6  and  C_7 
REMARK    3  A    between atoms: C_11  and  C_12 
REMARK       I    between atoms: C_12  and  N_13 
REMARK    4  A    between atoms: N_13  and  N_14 
ROOT
HETATM    1  C   UNL     1     -43.741  56.882 -56.156  1.00  0.00     0.289 C 
HETATM    2  N   UNL     1     -43.918  56.707 -57.518  1.00  0.00    -0.241 N 
HETATM    3  O   UNL     1     -44.383  57.678 -55.474  1.00  0.00    -0.264 OA
HETATM    4  H   UNL     1     -43.338  56.050 -58.038  1.00  0.00     0.192 HD
ENDROOT
BRANCH   1   5
HETATM    5  C   UNL     1     -42.719  56.055 -55.565  1.00  0.00     0.121 A 
HETATM    6  N   UNL     1     -41.405  56.427 -55.603  1.00  0.00    -0.272 N 
HETATM    7  N   UNL     1     -40.568  55.553 -55.029  1.00  0.00    -0.174 NA
HETATM    8  H   UNL     1     -41.028  57.272 -56.021  1.00  0.00     0.189 HD
HETATM    9  C   UNL     1     -41.362  54.573 -54.568  1.00  0.00     0.089 A 
HETATM   10  C   UNL     1     -42.722  54.849 -54.891  1.00  0.00     0.071 A 
BRANCH   9  11
HETATM   11  C   UNL     1     -40.812  53.417 -53.849  1.00  0.00    -0.006 A 
HETATM   12  C   UNL     1     -40.478  52.232 -54.520  1.00  0.00     0.014 A 
HETATM   13  C   UNL     1     -39.960  51.136 -53.820  1.00  0.00     0.008 A 
HETATM   14  C   UNL     1     -39.769  51.201 -52.435  1.00  0.00    -0.059 A 
HETATM   15  C   UNL     1     -40.093  52.383 -51.762  1.00  0.00     0.008 A 
HETATM   16  C   UNL     1     -40.613  53.476 -52.463  1.00  0.00     0.014 A 
BRANCH  14  17
HETATM   17  C   UNL     1     -39.201  50.025 -51.682  1.00  0.00     0.034 C 
HETATM   18  C   UNL     1     -39.910  49.806 -50.355  1.00  0.00     0.010 C 
ENDBRANCH  14  17
ENDBRANCH   9  11
ENDBRANCH   1   5
BRANCH   2  19
HETATM   19  N   UNL     1     -44.854  57.441 -58.194  1.00  0.00    -0.165 NA
HETATM   20  C   UNL     1     -45.436  56.862 -59.195  1.00  0.00     0.157 A 
HETATM   21  C   UNL     1     -45.212  55.446 -59.737  1.00  0.00     0.277 A 
HETATM   22  C   UNL     1     -46.454  57.459 -60.048  1.00  0.00     0.027 A 
HETATM   23  O   UNL     1     -44.431  54.644 -59.270  1.00  0.00    -0.266 OA
HETATM   24  N   UNL     1     -46.063  55.323 -60.814  1.00  0.00    -0.321 N 
HETATM   25  C   UNL     1     -46.792  56.497 -60.999  1.00  0.00     0.048 A 
HETATM   26  H   UNL     1     -46.135  54.488 -61.376  1.00  0.00     0.169 HD
HETATM   27  C   UNL     1     -47.740  56.751 -61.967  1.00  0.00     0.030 A 
HETATM   28  C   UNL     1     -48.348  58.013 -61.955  1.00  0.00     0.002 A 
HETATM   29  C   UNL     1     -48.001  58.981 -60.989  1.00  0.00     0.001 A 
HETATM   30  C   UNL     1     -47.038  58.709 -60.015  1.00  0.00     0.016 A 
ENDBRANCH   2  19
TORSDOF 4
ENDMDL
MODEL 3
REMARK VINA RESULT:      -8.4      5.728      7.003
REMARK  4 active torsions:
REMARK  status: ('A' for Active; 'I' for Inactive)
REMARK    1  A    between atoms: C_2  and  C_3 
REMARK    2  A    between atoms: C_6  and  C_7 
REMARK    3  A    between atoms: C_11  and  C_12 
REMARK       I    between atoms: C_12  and  N_13 
REMARK    4  A    between atoms: N_13  and  N_14 
ROOT
HETATM    1  C   UNL     1     -41.886  59.708 -52.736  1.00  0.00     0.289 C 
HETATM    2  N   UNL     1     -42.143  59.832 -51.380  1.00  0.00    -0.241 N 
HETATM    3  O   UNL     1     -41.833  60.656 -53.516  1.00  0.00    -0.264 OA
HETATM    4  H   UNL     1     -42.201  59.007 -50.785  1.00  0.00     0.192 HD
ENDROOT
BRANCH   1   5
HETATM    5  C   UNL     1     -41.688  58.356 -53.195  1.00  0.00     0.121 A 
HETATM    6  N   UNL     1     -42.039  57.986 -54.462  1.00  0.00    -0.272 N 
HETATM    7  N   UNL     1     -41.811  56.696 -54.743  1.00  0.00    -0.174 NA
HETATM    8  H   UNL     1     -42.450  58.582 -55.174  1.00  0.00     0.189 HD
HETATM    9  C   UNL     1     -41.262  56.195 -53.625  1.00  0.00     0.089 A 
HETATM   10  C   UNL     1     -41.173  57.208 -52.626  1.00  0.00     0.071 A 
BRANCH   9  11
HETATM   11  C   UNL     1     -40.848  54.790 -53.539  1.00  0.00    -0.006 A 
HETATM   12  C   UNL     1     -40.481  54.066 -54.682  1.00  0.00     0.014 A 
HETATM   13  C   UNL     1     -40.094  52.724 -54.584  1.00  0.00     0.008 A 
HETATM   14  C   UNL     1     -40.071  52.078 -53.343  1.00  0.00    -0.059 A 
HETATM   15  C   UNL     1     -40.429  52.798 -52.199  1.00  0.00     0.008 A 
HETATM   16  C   UNL     1     -40.818  54.137 -52.298  1.00  0.00     0.014 A 
BRANCH  14  17
HETATM   17  C   UNL     1     -39.644  50.636 -53.236  1.00  0.00     0.034 C 
HETATM   18  C   UNL     1     -39.812  49.896 -54.554  1.00  0.00     0.010 C 
ENDBRANCH  14  17
ENDBRANCH   9  11
ENDBRANCH   1   5
BRANCH   2  19
HETATM   19  N   UNL     1     -42.357  61.064 -50.826  1.00  0.00    -0.165 NA
HETATM   20  C   UNL     1     -43.536  61.287 -50.341  1.00  0.00     0.157 A 
HETATM   21  C   UNL     1     -44.745  60.347 -50.307  1.00  0.00     0.277 A 
HETATM   22  C   UNL     1     -43.975  62.525 -49.711  1.00  0.00     0.027 A 
HETATM   23  O   UNL     1     -44.750  59.214 -50.741  1.00  0.00    -0.266 OA
HETATM   24  N   UNL     1     -45.753  61.063 -49.699  1.00  0.00    -0.321 N 
HETATM   25  C   UNL     1     -45.308  62.336 -49.349  1.00  0.00     0.048 A 
HETATM   26  H   UNL     1     -46.679  60.695 -49.538  1.00  0.00     0.169 HD
HETATM   27  C   UNL     1     -46.026  63.332 -48.722  1.00  0.00     0.030 A 
HETATM   28  C   UNL     1     -45.362  64.539 -48.467  1.00  0.00     0.002 A 
HETATM   29  C   UNL     1     -44.012  64.722 -48.836  1.00  0.00     0.001 A 
HETATM   30  C   UNL     1     -43.298  63.703 -49.471  1.00  0.00     0.016 A 
ENDBRANCH   2  19
TORSDOF 4
ENDMDL
MODEL 4
REMARK VINA RESULT:      -8.4      5.362      9.931
REMARK  4 active torsions:
REMARK  status: ('A' for Active; 'I' for Inactive)
REMARK    1  A    between atoms: C_2  and  C_3 
REMARK    2  A    between atoms: C_6  and  C_7 
REMARK    3  A    between atoms: C_11  and  C_12 
REMARK       I    between atoms: C_12  and  N_13 
REMARK    4  A    between atoms: N_13  and  N_14 
ROOT
HETATM    1  C   UNL     1     -41.701  56.851 -54.005  1.00  0.00     0.289 C 
HETATM    2  N   UNL     1     -41.299  55.839 -53.148  1.00  0.00    -0.241 N 
HETATM    3  O   UNL     1     -41.817  56.718 -55.221  1.00  0.00    -0.264 OA
HETATM    4  H   UNL     1     -41.195  56.014 -52.150  1.00  0.00     0.192 HD
ENDROOT
BRANCH   1   5
HETATM    5  C   UNL     1     -41.975  58.114 -53.367  1.00  0.00     0.121 A 
HETATM    6  N   UNL     1     -41.476  59.280 -53.872  1.00  0.00    -0.272 N 
HETATM    7  N   UNL     1     -41.800  60.371 -53.166  1.00  0.00    -0.174 NA
HETATM    8  H   UNL     1     -40.896  59.381 -54.700  1.00  0.00     0.189 HD
HETATM    9  C   UNL     1     -42.567  59.914 -52.164  1.00  0.00     0.089 A 
HETATM   10  C   UNL     1     -42.696  58.497 -52.252  1.00  0.00     0.071 A 
BRANCH   9  11
HETATM   11  C   UNL     1     -43.143  60.821 -51.164  1.00  0.00    -0.006 A 
HETATM   12  C   UNL     1     -42.728  62.157 -51.068  1.00  0.00     0.014 A 
HETATM   13  C   UNL     1     -43.282  63.009 -50.105  1.00  0.00     0.008 A 
HETATM   14  C   UNL     1     -44.259  62.543 -49.218  1.00  0.00    -0.059 A 
HETATM   15  C   UNL     1     -44.682  61.213 -49.315  1.00  0.00     0.008 A 
HETATM   16  C   UNL     1     -44.125  60.362 -50.275  1.00  0.00     0.014 A 
BRANCH  14  17
HETATM   17  C   UNL     1     -44.864  63.463 -48.189  1.00  0.00     0.034 C 
HETATM   18  C   UNL     1     -45.312  62.708 -46.947  1.00  0.00     0.010 C 
ENDBRANCH  14  17
ENDBRANCH   9  11
ENDBRANCH   1   5
BRANCH   2  19
HETATM   19  N   UNL     1     -41.002  54.596 -53.636  1.00  0.00    -0.165 NA
HETATM   20  C   UNL     1     -40.626  53.708 -52.774  1.00  0.00     0.157 A 
HETATM   21  C   UNL     1     -40.460  53.861 -51.258  1.00  0.00     0.277 A 
HETATM   22  C   UNL     1     -40.262  52.330 -53.077  1.00  0.00     0.027 A 
HETATM   23  O   UNL     1     -40.681  54.882 -50.641  1.00  0.00    -0.266 OA
HETATM   24  N   UNL     1     -40.029  52.633 -50.807  1.00  0.00    -0.321 N 
HETATM   25  C   UNL     1     -39.913  51.735 -51.866  1.00  0.00     0.048 A 
HETATM   26  H   UNL     1     -39.832  52.433 -49.838  1.00  0.00     0.169 HD
HETATM   27  C   UNL     1     -39.514  50.416 -51.807  1.00  0.00     0.030 A 
HETATM   28  C   UNL     1     -39.476  49.702 -53.012  1.00  0.00     0.002 A 
HETATM   29  C   UNL     1     -39.833  50.312 -54.233  1.00  0.00     0.001 A 
HETATM   30  C   UNL     1     -40.234  51.649 -54.277  1.00  0.00     0.016 A 
ENDBRANCH   2  19
TORSDOF 4
ENDMDL
MODEL 5
REMARK VINA RESULT:      -8.2      5.773      6.562
REMARK  4 active torsions:
REMARK  status: ('A' for Active; 'I' for Inactive)
REMARK    1  A    between atoms: C_2  and  C_3 
REMARK    2  A    between atoms: C_6  and  C_7 
REMARK    3  A    between atoms: C_11  and  C_12 
REMARK       I    between atoms: C_12  and  N_13 
REMARK    4  A    between atoms: N_13  and  N_14 
ROOT
HETATM    1  C   UNL     1     -42.108  58.970 -51.002  1.00  0.00     0.289 C 
HETATM    2  N   UNL     1     -43.421  59.163 -50.604  1.00  0.00    -0.241 N 
HETATM    3  O   UNL     1     -41.322  59.882 -51.245  1.00  0.00    -0.264 OA
HETATM    4  H   UNL     1     -44.037  58.367 -50.441  1.00  0.00     0.192 HD
ENDROOT
BRANCH   1   5
HETATM    5  C   UNL     1     -41.708  57.591 -51.128  1.00  0.00     0.121 A 
HETATM    6  N   UNL     1     -41.407  56.843 -50.026  1.00  0.00    -0.272 N 
HETATM    7  N   UNL     1     -41.036  55.585 -50.297  1.00  0.00    -0.174 NA
HETATM    8  H   UNL     1     -41.433  57.154 -49.059  1.00  0.00     0.189 HD
HETATM    9  C   UNL     1     -41.119  55.486 -51.633  1.00  0.00     0.089 A 
HETATM   10  C   UNL     1     -41.532  56.730 -52.193  1.00  0.00     0.071 A 
BRANCH   9  11
HETATM   11  C   UNL     1     -40.802  54.233 -52.329  1.00  0.00    -0.006 A 
HETATM   12  C   UNL     1     -41.129  54.045 -53.679  1.00  0.00     0.014 A 
HETATM   13  C   UNL     1     -40.826  52.841 -54.327  1.00  0.00     0.008 A 
HETATM   14  C   UNL     1     -40.194  51.800 -53.637  1.00  0.00    -0.059 A 
HETATM   15  C   UNL     1     -39.859  51.985 -52.292  1.00  0.00     0.008 A 
HETATM   16  C   UNL     1     -40.165  53.187 -51.645  1.00  0.00     0.014 A 
BRANCH  14  17
HETATM   17  C   UNL     1     -39.857  50.509 -54.337  1.00  0.00     0.034 C 
HETATM   18  C   UNL     1     -39.485  49.411 -53.353  1.00  0.00     0.010 C 
ENDBRANCH  14  17
ENDBRANCH   9  11
ENDBRANCH   1   5
BRANCH   2  19
HETATM   19  N   UNL     1     -43.921  60.427 -50.456  1.00  0.00    -0.165 NA
HETATM   20  C   UNL     1     -44.920  60.750 -51.214  1.00  0.00     0.157 A 
HETATM   21  C   UNL     1     -45.626  59.898 -52.274  1.00  0.00     0.277 A 
HETATM   22  C   UNL     1     -45.599  62.038 -51.222  1.00  0.00     0.027 A 
HETATM   23  O   UNL     1     -45.332  58.752 -52.545  1.00  0.00    -0.266 OA
HETATM   24  N   UNL     1     -46.609  60.705 -52.802  1.00  0.00    -0.321 N 
HETATM   25  C   UNL     1     -46.598  61.956 -52.190  1.00  0.00     0.048 A 
HETATM   26  H   UNL     1     -47.242  60.409 -53.531  1.00  0.00     0.169 HD
HETATM   27  C   UNL     1     -47.432  63.024 -52.449  1.00  0.00     0.030 A 
HETATM   28  C   UNL     1     -47.233  64.191 -51.700  1.00  0.00     0.002 A 
HETATM   29  C   UNL     1     -46.219  64.265 -50.720  1.00  0.00     0.001 A 
HETATM   30  C   UNL     1     -45.382  63.176 -50.470  1.00  0.00     0.016 A 
ENDBRANCH   2  19
TORSDOF 4
ENDMDL
MODEL 6
REMARK VINA RESULT:      -8.1      2.115     10.103
REMARK  4 active torsions:
REMARK  status: ('A' for Active; 'I' for Inactive)
REMARK    1  A    between atoms: C_2  and  C_3 
REMARK    2  A    between atoms: C_6  and  C_7 
REMARK    3  A    between atoms: C_11  and  C_12 
REMARK       I    between atoms: C_12  and  N_13 
REMARK    4  A    between atoms: N_13  and  N_14 
ROOT
HETATM    1  C   UNL     1     -42.659  55.465 -54.479  1.00  0.00     0.289 C 
HETATM    2  N   UNL     1     -41.393  55.263 -53.954  1.00  0.00    -0.241 N 
HETATM    3  O   UNL     1     -43.683  54.966 -54.019  1.00  0.00    -0.264 OA
HETATM    4  H   UNL     1     -40.575  55.682 -54.393  1.00  0.00     0.192 HD
ENDROOT
BRANCH   1   5
HETATM    5  C   UNL     1     -42.706  56.316 -55.641  1.00  0.00     0.121 A 
HETATM    6  N   UNL     1     -43.523  56.023 -56.695  1.00  0.00    -0.272 N 
HETATM    7  N   UNL     1     -43.450  56.895 -57.709  1.00  0.00    -0.174 NA
HETATM    8  H   UNL     1     -44.150  55.227 -56.771  1.00  0.00     0.189 HD
HETATM    9  C   UNL     1     -42.565  57.819 -57.302  1.00  0.00     0.089 A 
HETATM   10  C   UNL     1     -42.070  57.487 -56.007  1.00  0.00     0.071 A 
BRANCH   9  11
HETATM   11  C   UNL     1     -42.218  58.970 -58.144  1.00  0.00    -0.006 A 
HETATM   12  C   UNL     1     -42.440  58.954 -59.528  1.00  0.00     0.014 A 
HETATM   13  C   UNL     1     -42.097  60.058 -60.319  1.00  0.00     0.008 A 
HETATM   14  C   UNL     1     -41.523  61.197 -59.743  1.00  0.00    -0.059 A 
HETATM   15  C   UNL     1     -41.307  61.220 -58.361  1.00  0.00     0.008 A 
HETATM   16  C   UNL     1     -41.646  60.116 -57.573  1.00  0.00     0.014 A 
BRANCH  14  17
HETATM   17  C   UNL     1     -41.165  62.389 -60.592  1.00  0.00     0.034 C 
HETATM   18  C   UNL     1     -39.782  62.926 -60.260  1.00  0.00     0.010 C 
ENDBRANCH  14  17
ENDBRANCH   9  11
ENDBRANCH   1   5
BRANCH   2  19
HETATM   19  N   UNL     1     -41.219  54.467 -52.855  1.00  0.00    -0.165 NA
HETATM   20  C   UNL     1     -40.681  53.307 -53.057  1.00  0.00     0.157 A 
HETATM   21  C   UNL     1     -40.210  52.692 -54.379  1.00  0.00     0.277 A 
HETATM   22  C   UNL     1     -40.409  52.307 -52.033  1.00  0.00     0.027 A 
HETATM   23  O   UNL     1     -40.274  53.244 -55.457  1.00  0.00    -0.266 OA
HETATM   24  N   UNL     1     -39.728  51.443 -54.055  1.00  0.00    -0.321 N 
HETATM   25  C   UNL     1     -39.841  51.214 -52.685  1.00  0.00     0.048 A 
HETATM   26  H   UNL     1     -39.347  50.799 -54.732  1.00  0.00     0.169 HD
HETATM   27  C   UNL     1     -39.463  50.085 -51.990  1.00  0.00     0.030 A 
HETATM   28  C   UNL     1     -39.673  50.083 -50.605  1.00  0.00     0.002 A 
HETATM   29  C   UNL     1     -40.247  51.194 -49.952  1.00  0.00     0.001 A 
HETATM   30  C   UNL     1     -40.625  52.331 -50.670  1.00  0.00     0.016 A 
ENDBRANCH   2  19
TORSDOF 4
ENDMDL
MODEL 7
REMARK VINA RESULT:      -8.1     16.725     19.220
REMARK  4 active torsions:
REMARK  status: ('A' for Active; 'I' for Inactive)
REMARK    1  A    between atoms: C_2  and  C_3 
REMARK    2  A    between atoms: C_6  and  C_7 
REMARK    3  A    between atoms: C_11  and  C_12 
REMARK       I    between atoms: C_12  and  N_13 
REMARK    4  A    between atoms: N_13  and  N_14 
ROOT
HETATM    1  C   UNL     1     -34.885  41.258 -53.366  1.00  0.00     0.289 C 
HETATM    2  N   UNL     1     -34.302  41.316 -54.622  1.00  0.00    -0.241 N 
HETATM    3  O   UNL     1     -36.054  41.555 -53.135  1.00  0.00    -0.264 OA
HETATM    4  H   UNL     1     -33.318  41.083 -54.750  1.00  0.00     0.192 HD
ENDROOT
BRANCH   1   5
HETATM    5  C   UNL     1     -34.007  40.824 -52.309  1.00  0.00     0.121 A 
HETATM    6  N   UNL     1     -32.650  40.866 -52.461  1.00  0.00    -0.272 N 
HETATM    7  N   UNL     1     -31.962  40.417 -51.403  1.00  0.00    -0.174 NA
HETATM    8  H   UNL     1     -32.143  41.190 -53.279  1.00  0.00     0.189 HD
HETATM    9  C   UNL     1     -32.901  40.086 -50.501  1.00  0.00     0.089 A 
HETATM   10  C   UNL     1     -34.200  40.322 -51.037  1.00  0.00     0.071 A 
BRANCH   9  11
HETATM   11  C   UNL     1     -32.541  39.558 -49.180  1.00  0.00    -0.006 A 
HETATM   12  C   UNL     1     -31.426  40.042 -48.481  1.00  0.00     0.014 A 
HETATM   13  C   UNL     1     -31.092  39.525 -47.223  1.00  0.00     0.008 A 
HETATM   14  C   UNL     1     -31.862  38.511 -46.642  1.00  0.00    -0.059 A 
HETATM   15  C   UNL     1     -32.979  38.030 -47.332  1.00  0.00     0.008 A 
HETATM   16  C   UNL     1     -33.310  38.546 -48.590  1.00  0.00     0.014 A 
BRANCH  14  17
HETATM   17  C   UNL     1     -31.509  37.962 -45.283  1.00  0.00     0.034 C 
HETATM   18  C   UNL     1     -31.021  39.051 -44.342  1.00  0.00     0.010 C 
ENDBRANCH  14  17
ENDBRANCH   9  11
ENDBRANCH   1   5
BRANCH   2  19
HETATM   19  N   UNL     1     -35.032  41.722 -55.705  1.00  0.00    -0.165 NA
HETATM   20  C   UNL     1     -35.286  40.825 -56.604  1.00  0.00     0.157 A 
HETATM   21  C   UNL     1     -34.869  39.351 -56.622  1.00  0.00     0.277 A 
HETATM   22  C   UNL     1     -36.040  41.042 -57.831  1.00  0.00     0.027 A 
HETATM   23  O   UNL     1     -34.226  38.805 -55.751  1.00  0.00    -0.266 OA
HETATM   24  N   UNL     1     -35.375  38.838 -57.797  1.00  0.00    -0.321 N 
HETATM   25  C   UNL     1     -36.061  39.822 -58.506  1.00  0.00     0.048 A 
HETATM   26  H   UNL     1     -35.256  37.878 -58.084  1.00  0.00     0.169 HD
HETATM   27  C   UNL     1     -36.704  39.688 -59.718  1.00  0.00     0.030 A 
HETATM   28  C   UNL     1     -37.333  40.825 -60.242  1.00  0.00     0.002 A 
HETATM   29  C   UNL     1     -37.308  42.056 -59.551  1.00  0.00     0.001 A 
HETATM   30  C   UNL     1     -36.652  42.176 -58.324  1.00  0.00     0.016 A 
ENDBRANCH   2  19
TORSDOF 4
ENDMDL
MODEL 8
REMARK VINA RESULT:      -7.9      2.308      2.900
REMARK  4 active torsions:
REMARK  status: ('A' for Active; 'I' for Inactive)
REMARK    1  A    between atoms: C_2  and  C_3 
REMARK    2  A    between atoms: C_6  and  C_7 
REMARK    3  A    between atoms: C_11  and  C_12 
REMARK       I    between atoms: C_12  and  N_13 
REMARK    4  A    between atoms: N_13  and  N_14 
ROOT
HETATM    1  C   UNL     1     -43.658  56.739 -56.269  1.00  0.00     0.289 C 
HETATM    2  N   UNL     1     -43.744  56.538 -57.637  1.00  0.00    -0.241 N 
HETATM    3  O   UNL     1     -44.363  57.526 -55.642  1.00  0.00    -0.264 OA
HETATM    4  H   UNL     1     -43.115  55.889 -58.108  1.00  0.00     0.192 HD
ENDROOT
BRANCH   1   5
HETATM    5  C   UNL     1     -42.653  55.949 -55.602  1.00  0.00     0.121 A 
HETATM    6  N   UNL     1     -41.374  56.410 -55.465  1.00  0.00    -0.272 N 
HETATM    7  N   UNL     1     -40.547  55.563 -54.838  1.00  0.00    -0.174 NA
HETATM    8  H   UNL     1     -41.014  57.301 -55.794  1.00  0.00     0.189 HD
HETATM    9  C   UNL     1     -41.314  54.507 -54.523  1.00  0.00     0.089 A 
HETATM   10  C   UNL     1     -42.645  54.710 -54.992  1.00  0.00     0.071 A 
BRANCH   9  11
HETATM   11  C   UNL     1     -40.768  53.352 -53.802  1.00  0.00    -0.006 A 
HETATM   12  C   UNL     1     -40.430  52.167 -54.470  1.00  0.00     0.014 A 
HETATM   13  C   UNL     1     -39.915  51.071 -53.767  1.00  0.00     0.008 A 
HETATM   14  C   UNL     1     -39.731  51.137 -52.381  1.00  0.00    -0.059 A 
HETATM   15  C   UNL     1     -40.059  52.320 -51.711  1.00  0.00     0.008 A 
HETATM   16  C   UNL     1     -40.576  53.412 -52.414  1.00  0.00     0.014 A 
BRANCH  14  17
HETATM   17  C   UNL     1     -39.166  49.962 -51.625  1.00  0.00     0.034 C 
HETATM   18  C   UNL     1     -39.930  49.696 -50.338  1.00  0.00     0.010 C 
ENDBRANCH  14  17
ENDBRANCH   9  11
ENDBRANCH   1   5
BRANCH   2  19
HETATM   19  N   UNL     1     -44.656  57.235 -58.382  1.00  0.00    -0.165 NA
HETATM   20  C   UNL     1     -44.181  58.078 -59.241  1.00  0.00     0.157 A 
HETATM   21  C   UNL     1     -42.715  58.411 -59.539  1.00  0.00     0.277 A 
HETATM   22  C   UNL     1     -44.969  58.921 -60.130  1.00  0.00     0.027 A 
HETATM   23  O   UNL     1     -41.765  57.895 -58.988  1.00  0.00    -0.266 OA
HETATM   24  N   UNL     1     -42.747  59.376 -60.522  1.00  0.00    -0.321 N 
HETATM   25  C   UNL     1     -44.062  59.676 -60.871  1.00  0.00     0.048 A 
HETATM   26  H   UNL     1     -41.919  59.793 -60.922  1.00  0.00     0.169 HD
HETATM   27  C   UNL     1     -44.492  60.585 -61.815  1.00  0.00     0.030 A 
HETATM   28  C   UNL     1     -45.875  60.716 -61.997  1.00  0.00     0.002 A 
HETATM   29  C   UNL     1     -46.787  59.946 -61.244  1.00  0.00     0.001 A 
HETATM   30  C   UNL     1     -46.335  59.030 -60.291  1.00  0.00     0.016 A 
ENDBRANCH   2  19
TORSDOF 4
ENDMDL
MODEL 9
REMARK VINA RESULT:      -7.9      2.165      9.812
REMARK  4 active torsions:
REMARK  status: ('A' for Active; 'I' for Inactive)
REMARK    1  A    between atoms: C_2  and  C_3 
REMARK    2  A    between atoms: C_6  and  C_7 
REMARK    3  A    between atoms: C_11  and  C_12 
REMARK       I    between atoms: C_12  and  N_13 
REMARK    4  A    between atoms: N_13  and  N_14 
ROOT
HETATM    1  C   UNL     1     -42.571  55.135 -56.105  1.00  0.00     0.289 C 
HETATM    2  N   UNL     1     -41.276  54.884 -55.682  1.00  0.00    -0.241 N 
HETATM    3  O   UNL     1     -43.443  54.275 -56.204  1.00  0.00    -0.264 OA
HETATM    4  H   UNL     1     -40.587  55.633 -55.644  1.00  0.00     0.192 HD
ENDROOT
BRANCH   1   5
HETATM    5  C   UNL     1     -42.844  56.510 -56.441  1.00  0.00     0.121 A 
HETATM    6  N   UNL     1     -44.124  56.946 -56.630  1.00  0.00    -0.272 N 
HETATM    7  N   UNL     1     -44.223  58.243 -56.953  1.00  0.00    -0.174 NA
HETATM    8  H   UNL     1     -44.970  56.389 -56.557  1.00  0.00     0.189 HD
HETATM    9  C   UNL     1     -42.958  58.692 -56.953  1.00  0.00     0.089 A 
HETATM   10  C   UNL     1     -42.060  57.629 -56.641  1.00  0.00     0.071 A 
BRANCH   9  11
HETATM   11  C   UNL     1     -42.643  60.095 -57.249  1.00  0.00    -0.006 A 
HETATM   12  C   UNL     1     -41.483  60.449 -57.950  1.00  0.00     0.014 A 
HETATM   13  C   UNL     1     -41.193  61.792 -58.221  1.00  0.00     0.008 A 
HETATM   14  C   UNL     1     -42.056  62.807 -57.791  1.00  0.00    -0.059 A 
HETATM   15  C   UNL     1     -43.219  62.458 -57.098  1.00  0.00     0.008 A 
HETATM   16  C   UNL     1     -43.505  61.116 -56.826  1.00  0.00     0.014 A 
BRANCH  14  17
HETATM   17  C   UNL     1     -41.751  64.252 -58.092  1.00  0.00     0.034 C 
HETATM   18  C   UNL     1     -40.306  64.448 -58.521  1.00  0.00     0.010 C 
ENDBRANCH  14  17
ENDBRANCH   9  11
ENDBRANCH   1   5
BRANCH   2  19
HETATM   19  N   UNL     1     -40.893  53.615 -55.342  1.00  0.00    -0.165 NA
HETATM   20  C   UNL     1     -40.659  53.395 -54.088  1.00  0.00     0.157 A 
HETATM   21  C   UNL     1     -40.749  54.378 -52.916  1.00  0.00     0.277 A 
HETATM   22  C   UNL     1     -40.240  52.125 -53.512  1.00  0.00     0.027 A 
HETATM   23  O   UNL     1     -41.077  55.541 -53.015  1.00  0.00    -0.266 OA
HETATM   24  N   UNL     1     -40.390  53.655 -51.799  1.00  0.00    -0.321 N 
HETATM   25  C   UNL     1     -40.092  52.338 -52.142  1.00  0.00     0.048 A 
HETATM   26  H   UNL     1     -40.356  54.045 -50.869  1.00  0.00     0.169 HD
HETATM   27  C   UNL     1     -39.700  51.320 -51.299  1.00  0.00     0.030 A 
HETATM   28  C   UNL     1     -39.456  50.066 -51.876  1.00  0.00     0.002 A 
HETATM   29  C   UNL     1     -39.609  49.859 -53.263  1.00  0.00     0.001 A 
HETATM   30  C   UNL     1     -40.007  50.900 -54.104  1.00  0.00     0.016 A 
ENDBRANCH   2  19
TORSDOF 4
ENDMDL
MODEL 10
REMARK VINA RESULT:      -7.8     16.852     20.894
REMARK  4 active torsions:
REMARK  status: ('A' for Active; 'I' for Inactive)
REMARK    1  A    between atoms: C_2  and  C_3 
REMARK    2  A    between atoms: C_6  and  C_7 
REMARK    3  A    between atoms: C_11  and  C_12 
REMARK       I    between atoms: C_12  and  N_13 
REMARK    4  A    between atoms: N_13  and  N_14 
ROOT
HETATM    1  C   UNL     1     -35.796  40.142 -50.777  1.00  0.00     0.289 C 
HETATM    2  N   UNL     1     -34.751  39.238 -50.684  1.00  0.00    -0.241 N 
HETATM    3  O   UNL     1     -36.537  40.437 -49.842  1.00  0.00    -0.264 OA
HETATM    4  H   UNL     1     -34.184  39.013 -51.500  1.00  0.00     0.192 HD
ENDROOT
BRANCH   1   5
HETATM    5  C   UNL     1     -35.976  40.730 -52.080  1.00  0.00     0.121 A 
HETATM    6  N   UNL     1     -35.780  42.067 -52.282  1.00  0.00    -0.272 N 
HETATM    7  N   UNL     1     -35.998  42.474 -53.539  1.00  0.00    -0.174 NA
HETATM    8  H   UNL     1     -35.501  42.749 -51.582  1.00  0.00     0.189 HD
HETATM    9  C   UNL     1     -36.329  41.356 -54.206  1.00  0.00     0.089 A 
HETATM   10  C   UNL     1     -36.332  40.239 -53.322  1.00  0.00     0.071 A 
BRANCH   9  11
HETATM   11  C   UNL     1     -36.632  41.384 -55.642  1.00  0.00    -0.006 A 
HETATM   12  C   UNL     1     -37.795  40.792 -56.153  1.00  0.00     0.014 A 
HETATM   13  C   UNL     1     -38.068  40.821 -57.526  1.00  0.00     0.008 A 
HETATM   14  C   UNL     1     -37.182  41.439 -58.416  1.00  0.00    -0.059 A 
HETATM   15  C   UNL     1     -36.024  42.038 -57.910  1.00  0.00     0.008 A 
HETATM   16  C   UNL     1     -35.751  42.005 -56.539  1.00  0.00     0.014 A 
BRANCH  14  17
HETATM   17  C   UNL     1     -37.481  41.481 -59.892  1.00  0.00     0.034 C 
HETATM   18  C   UNL     1     -37.317  40.116 -60.542  1.00  0.00     0.010 C 
ENDBRANCH  14  17
ENDBRANCH   9  11
ENDBRANCH   1   5
BRANCH   2  19
HETATM   19  N   UNL     1     -34.485  38.608 -49.499  1.00  0.00    -0.165 NA
HETATM   20  C   UNL     1     -33.363  38.900 -48.924  1.00  0.00     0.157 A 
HETATM   21  C   UNL     1     -32.273  39.868 -49.398  1.00  0.00     0.277 A 
HETATM   22  C   UNL     1     -32.883  38.346 -47.666  1.00  0.00     0.027 A 
HETATM   23  O   UNL     1     -32.329  40.523 -50.418  1.00  0.00    -0.266 OA
HETATM   24  N   UNL     1     -31.285  39.810 -48.440  1.00  0.00    -0.321 N 
HETATM   25  C   UNL     1     -31.637  38.922 -47.426  1.00  0.00     0.048 A 
HETATM   26  H   UNL     1     -30.431  40.346 -48.486  1.00  0.00     0.169 HD
HETATM   27  C   UNL     1     -30.907  38.604 -46.300  1.00  0.00     0.030 A 
HETATM   28  C   UNL     1     -31.469  37.679 -45.410  1.00  0.00     0.002 A 
HETATM   29  C   UNL     1     -32.732  37.101 -45.660  1.00  0.00     0.001 A 
HETATM   30  C   UNL     1     -33.459  37.433 -46.805  1.00  0.00     0.016 A 
ENDBRANCH   2  19
TORSDOF 4
ENDMDL
