MODEL 1
REMARK VINA RESULT:      -7.8      0.000      0.000
REMARK  2 active torsions:
REMARK  status: ('A' for Active; 'I' for Inactive)
REMARK    1  A    between atoms: C_5  and  C_6 
REMARK    2  A    between atoms: C_15  and  C_16 
ROOT
HETATM    1  C   UNL     1     -43.377  58.727 -52.262  1.00  0.00     0.190 A 
HETATM    2  N   UNL     1     -44.340  59.327 -51.376  1.00  0.00    -0.308 N 
HETATM    3  C   UNL     1     -45.356  58.460 -51.056  1.00  0.00     0.320 A 
HETATM    4  O   UNL     1     -46.338  58.742 -50.395  1.00  0.00    -0.247 OA
HETATM    5  N   UNL     1     -45.094  57.222 -51.592  1.00  0.00    -0.308 N 
HETATM    6  N   UNL     1     -43.618  59.237 -53.587  1.00  0.00    -0.308 N 
HETATM    7  C   UNL     1     -44.149  58.285 -54.422  1.00  0.00     0.320 A 
HETATM    8  O   UNL     1     -44.479  58.471 -55.579  1.00  0.00    -0.247 OA
HETATM    9  N   UNL     1     -44.243  57.087 -53.755  1.00  0.00    -0.308 N 
HETATM   10  C   UNL     1     -43.879  57.212 -52.368  1.00  0.00     0.190 A 
HETATM   11  H   UNL     1     -44.402  60.310 -51.162  1.00  0.00     0.167 HD
HETATM   12  H   UNL     1     -45.752  56.463 -51.526  1.00  0.00     0.167 HD
HETATM   13  H   UNL     1     -43.530  60.202 -53.868  1.00  0.00     0.167 HD
HETATM   14  H   UNL     1     -44.707  56.292 -54.166  1.00  0.00     0.167 HD
ENDROOT
BRANCH   1  15
HETATM   15  C   UNL     1     -41.944  58.965 -51.806  1.00  0.00    -0.005 A 
HETATM   16  C   UNL     1     -41.655  59.305 -50.472  1.00  0.00     0.012 A 
HETATM   17  C   UNL     1     -40.336  59.471 -50.037  1.00  0.00     0.007 A 
HETATM   18  C   UNL     1     -39.269  59.307 -50.924  1.00  0.00    -0.062 A 
HETATM   19  C   UNL     1     -37.851  59.443 -50.458  1.00  0.00     0.048 C 
HETATM   20  C   UNL     1     -39.541  58.958 -52.250  1.00  0.00     0.007 A 
HETATM   21  C   UNL     1     -40.859  58.789 -52.684  1.00  0.00     0.012 A 
ENDBRANCH   1  15
BRANCH  10  22
HETATM   22  C   UNL     1     -42.921  56.118 -51.920  1.00  0.00    -0.005 A 
HETATM   23  C   UNL     1     -42.172  55.376 -52.851  1.00  0.00     0.012 A 
HETATM   24  C   UNL     1     -41.332  54.336 -52.443  1.00  0.00     0.007 A 
HETATM   25  C   UNL     1     -41.219  54.005 -51.090  1.00  0.00    -0.062 A 
HETATM   26  C   UNL     1     -40.340  52.877 -50.641  1.00  0.00     0.048 C 
HETATM   27  C   UNL     1     -41.961  54.731 -50.153  1.00  0.00     0.007 A 
HETATM   28  C   UNL     1     -42.800  55.771 -50.562  1.00  0.00     0.012 A 
ENDBRANCH  10  22
TORSDOF 2
ENDMDL
MODEL 2
REMARK VINA RESULT:      -7.8      2.430      4.549
REMARK  2 active torsions:
REMARK  status: ('A' for Active; 'I' for Inactive)
REMARK    1  A    between atoms: C_5  and  C_6 
REMARK    2  A    between atoms: C_15  and  C_16 
ROOT
HETATM    1  C   UNL     1     -42.659  56.678 -54.786  1.00  0.00     0.190 A 
HETATM    2  N   UNL     1     -41.896  57.682 -55.482  1.00  0.00    -0.308 N 
HETATM    3  C   UNL     1     -41.849  58.866 -54.787  1.00  0.00     0.320 A 
HETATM    4  O   UNL     1     -41.343  59.897 -55.190  1.00  0.00    -0.247 OA
HETATM    5  N   UNL     1     -42.456  58.709 -53.565  1.00  0.00    -0.308 N 
HETATM    6  N   UNL     1     -43.947  56.580 -55.426  1.00  0.00    -0.308 N 
HETATM    7  C   UNL     1     -44.955  57.090 -54.644  1.00  0.00     0.320 A 
HETATM    8  O   UNL     1     -46.126  57.162 -54.969  1.00  0.00    -0.247 OA
HETATM    9  N   UNL     1     -44.441  57.499 -53.438  1.00  0.00    -0.308 N 
HETATM   10  C   UNL     1     -43.007  57.387 -53.396  1.00  0.00     0.190 A 
HETATM   11  H   UNL     1     -41.597  57.624 -56.442  1.00  0.00     0.167 HD
HETATM   12  H   UNL     1     -42.584  59.481 -52.930  1.00  0.00     0.167 HD
HETATM   13  H   UNL     1     -44.107  56.287 -56.377  1.00  0.00     0.167 HD
HETATM   14  H   UNL     1     -45.006  57.999 -52.769  1.00  0.00     0.167 HD
ENDROOT
BRANCH   1  15
HETATM   15  C   UNL     1     -41.939  55.338 -54.734  1.00  0.00    -0.005 A 
HETATM   16  C   UNL     1     -40.536  55.264 -54.803  1.00  0.00     0.012 A 
HETATM   17  C   UNL     1     -39.870  54.040 -54.700  1.00  0.00     0.007 A 
HETATM   18  C   UNL     1     -40.586  52.852 -54.532  1.00  0.00    -0.062 A 
HETATM   19  C   UNL     1     -39.878  51.540 -54.381  1.00  0.00     0.048 C 
HETATM   20  C   UNL     1     -41.980  52.911 -54.451  1.00  0.00     0.007 A 
HETATM   21  C   UNL     1     -42.647  54.135 -54.550  1.00  0.00     0.012 A 
ENDBRANCH   1  15
BRANCH  10  22
HETATM   22  C   UNL     1     -42.514  56.719 -52.121  1.00  0.00    -0.005 A 
HETATM   23  C   UNL     1     -41.266  57.046 -51.559  1.00  0.00     0.012 A 
HETATM   24  C   UNL     1     -40.791  56.394 -50.418  1.00  0.00     0.007 A 
HETATM   25  C   UNL     1     -41.549  55.392 -49.805  1.00  0.00    -0.062 A 
HETATM   26  C   UNL     1     -41.040  54.670 -48.595  1.00  0.00     0.048 C 
HETATM   27  C   UNL     1     -42.789  55.053 -50.355  1.00  0.00     0.007 A 
HETATM   28  C   UNL     1     -43.264  55.705 -51.495  1.00  0.00     0.012 A 
ENDBRANCH  10  22
TORSDOF 2
ENDMDL
MODEL 3
REMARK VINA RESULT:      -7.8      0.047      4.417
REMARK  2 active torsions:
REMARK  status: ('A' for Active; 'I' for Inactive)
REMARK    1  A    between atoms: C_5  and  C_6 
REMARK    2  A    between atoms: C_15  and  C_16 
ROOT
HETATM    1  C   UNL     1     -43.918  57.220 -52.348  1.00  0.00     0.190 A 
HETATM    2  N   UNL     1     -44.293  57.083 -53.731  1.00  0.00    -0.308 N 
HETATM    3  C   UNL     1     -44.194  58.273 -54.411  1.00  0.00     0.320 A 
HETATM    4  O   UNL     1     -44.530  58.451 -55.567  1.00  0.00    -0.247 OA
HETATM    5  N   UNL     1     -43.653  59.232 -53.589  1.00  0.00    -0.308 N 
HETATM    6  N   UNL     1     -45.127  57.245 -51.564  1.00  0.00    -0.308 N 
HETATM    7  C   UNL     1     -45.380  58.490 -51.040  1.00  0.00     0.320 A 
HETATM    8  O   UNL     1     -46.356  58.786 -50.375  1.00  0.00    -0.247 OA
HETATM    9  N   UNL     1     -44.360  59.347 -51.373  1.00  0.00    -0.308 N 
HETATM   10  C   UNL     1     -43.406  58.732 -52.259  1.00  0.00     0.190 A 
HETATM   11  H   UNL     1     -44.762  56.287 -54.132  1.00  0.00     0.167 HD
HETATM   12  H   UNL     1     -43.559  60.192 -53.879  1.00  0.00     0.167 HD
HETATM   13  H   UNL     1     -45.791  56.490 -51.487  1.00  0.00     0.167 HD
HETATM   14  H   UNL     1     -44.414  60.333 -51.171  1.00  0.00     0.167 HD
ENDROOT
BRANCH   1  15
HETATM   15  C   UNL     1     -42.963  56.124 -51.896  1.00  0.00    -0.005 A 
HETATM   16  C   UNL     1     -42.832  55.791 -50.536  1.00  0.00     0.012 A 
HETATM   17  C   UNL     1     -41.996  54.748 -50.124  1.00  0.00     0.007 A 
HETATM   18  C   UNL     1     -41.263  54.013 -51.058  1.00  0.00    -0.062 A 
HETATM   19  C   UNL     1     -40.396  52.868 -50.629  1.00  0.00     0.048 C 
HETATM   20  C   UNL     1     -41.391  54.326 -52.414  1.00  0.00     0.007 A 
HETATM   21  C   UNL     1     -42.229  55.366 -52.827  1.00  0.00     0.012 A 
ENDBRANCH   1  15
BRANCH  10  22
HETATM   22  C   UNL     1     -41.969  58.966 -51.816  1.00  0.00    -0.005 A 
HETATM   23  C   UNL     1     -40.890  58.756 -52.695  1.00  0.00     0.012 A 
HETATM   24  C   UNL     1     -39.568  58.919 -52.272  1.00  0.00     0.007 A 
HETATM   25  C   UNL     1     -39.285  59.294 -50.956  1.00  0.00    -0.062 A 
HETATM   26  C   UNL     1     -37.871  59.450 -50.484  1.00  0.00     0.048 C 
HETATM   27  C   UNL     1     -40.346  59.501 -50.070  1.00  0.00     0.007 A 
HETATM   28  C   UNL     1     -41.668  59.338 -50.493  1.00  0.00     0.012 A 
ENDBRANCH  10  22
TORSDOF 2
ENDMDL
MODEL 4
REMARK VINA RESULT:      -7.5      2.157      4.944
REMARK  2 active torsions:
REMARK  status: ('A' for Active; 'I' for Inactive)
REMARK    1  A    between atoms: C_5  and  C_6 
REMARK    2  A    between atoms: C_15  and  C_16 
ROOT
HETATM    1  C   UNL     1     -43.014  57.641 -51.486  1.00  0.00     0.190 A 
HETATM    2  N   UNL     1     -44.221  57.440 -50.727  1.00  0.00    -0.308 N 
HETATM    3  C   UNL     1     -45.168  58.396 -51.003  1.00  0.00     0.320 A 
HETATM    4  O   UNL     1     -46.240  58.505 -50.439  1.00  0.00    -0.247 OA
HETATM    5  N   UNL     1     -44.722  59.208 -52.018  1.00  0.00    -0.308 N 
HETATM    6  N   UNL     1     -42.030  58.219 -50.607  1.00  0.00    -0.308 N 
HETATM    7  C   UNL     1     -41.775  59.535 -50.908  1.00  0.00     0.320 A 
HETATM    8  O   UNL     1     -41.015  60.261 -50.292  1.00  0.00    -0.247 OA
HETATM    9  N   UNL     1     -42.501  59.906 -52.013  1.00  0.00    -0.308 N 
HETATM   10  C   UNL     1     -43.391  58.861 -52.448  1.00  0.00     0.190 A 
HETATM   11  H   UNL     1     -44.317  56.816 -49.942  1.00  0.00     0.167 HD
HETATM   12  H   UNL     1     -45.245  60.014 -52.324  1.00  0.00     0.167 HD
HETATM   13  H   UNL     1     -41.644  57.776 -49.788  1.00  0.00     0.167 HD
HETATM   14  H   UNL     1     -42.530  60.863 -52.326  1.00  0.00     0.167 HD
ENDROOT
BRANCH   1  15
HETATM   15  C   UNL     1     -42.519  56.357 -52.137  1.00  0.00    -0.005 A 
HETATM   16  C   UNL     1     -43.321  55.201 -52.163  1.00  0.00     0.012 A 
HETATM   17  C   UNL     1     -42.892  54.037 -52.807  1.00  0.00     0.007 A 
HETATM   18  C   UNL     1     -41.647  53.992 -53.439  1.00  0.00    -0.062 A 
HETATM   19  C   UNL     1     -41.195  52.761 -54.166  1.00  0.00     0.048 C 
HETATM   20  C   UNL     1     -40.843  55.135 -53.430  1.00  0.00     0.007 A 
HETATM   21  C   UNL     1     -41.273  56.301 -52.789  1.00  0.00     0.012 A 
ENDBRANCH   1  15
BRANCH  10  22
HETATM   22  C   UNL     1     -43.317  58.625 -53.950  1.00  0.00    -0.005 A 
HETATM   23  C   UNL     1     -44.256  57.810 -54.609  1.00  0.00     0.012 A 
HETATM   24  C   UNL     1     -44.156  57.551 -55.979  1.00  0.00     0.007 A 
HETATM   25  C   UNL     1     -43.111  58.096 -56.730  1.00  0.00    -0.062 A 
HETATM   26  C   UNL     1     -42.980  57.807 -58.195  1.00  0.00     0.048 C 
HETATM   27  C   UNL     1     -42.168  58.903 -56.088  1.00  0.00     0.007 A 
HETATM   28  C   UNL     1     -42.268  59.163 -54.719  1.00  0.00     0.012 A 
ENDBRANCH  10  22
TORSDOF 2
ENDMDL
MODEL 5
REMARK VINA RESULT:      -7.5      2.169      4.140
REMARK  2 active torsions:
REMARK  status: ('A' for Active; 'I' for Inactive)
REMARK    1  A    between atoms: C_5  and  C_6 
REMARK    2  A    between atoms: C_15  and  C_16 
ROOT
HETATM    1  C   UNL     1     -43.407  58.904 -52.446  1.00  0.00     0.190 A 
HETATM    2  N   UNL     1     -42.509  59.946 -52.020  1.00  0.00    -0.308 N 
HETATM    3  C   UNL     1     -41.774  59.575 -50.920  1.00  0.00     0.320 A 
HETATM    4  O   UNL     1     -41.007  60.298 -50.312  1.00  0.00    -0.247 OA
HETATM    5  N   UNL     1     -42.034  58.261 -50.613  1.00  0.00    -0.308 N 
HETATM    6  N   UNL     1     -44.733  59.257 -52.007  1.00  0.00    -0.308 N 
HETATM    7  C   UNL     1     -45.173  58.450 -50.986  1.00  0.00     0.320 A 
HETATM    8  O   UNL     1     -46.241  58.564 -50.412  1.00  0.00    -0.247 OA
HETATM    9  N   UNL     1     -44.228  57.490 -50.716  1.00  0.00    -0.308 N 
HETATM   10  C   UNL     1     -43.027  57.685 -51.484  1.00  0.00     0.190 A 
HETATM   11  H   UNL     1     -42.535  60.903 -52.335  1.00  0.00     0.167 HD
HETATM   12  H   UNL     1     -41.643  57.817 -49.798  1.00  0.00     0.167 HD
HETATM   13  H   UNL     1     -45.254  60.066 -52.309  1.00  0.00     0.167 HD
HETATM   14  H   UNL     1     -44.321  56.869 -49.928  1.00  0.00     0.167 HD
ENDROOT
BRANCH   1  15
HETATM   15  C   UNL     1     -43.343  58.665 -53.948  1.00  0.00    -0.005 A 
HETATM   16  C   UNL     1     -42.295  59.193 -54.723  1.00  0.00     0.012 A 
HETATM   17  C   UNL     1     -42.204  58.930 -56.094  1.00  0.00     0.007 A 
HETATM   18  C   UNL     1     -43.162  58.136 -56.729  1.00  0.00    -0.062 A 
HETATM   19  C   UNL     1     -43.051  57.815 -58.189  1.00  0.00     0.048 C 
HETATM   20  C   UNL     1     -44.203  57.596 -55.970  1.00  0.00     0.007 A 
HETATM   21  C   UNL     1     -44.292  57.856 -54.600  1.00  0.00     0.012 A 
ENDBRANCH   1  15
BRANCH  10  22
HETATM   22  C   UNL     1     -42.541  56.398 -52.136  1.00  0.00    -0.005 A 
HETATM   23  C   UNL     1     -41.298  56.334 -52.791  1.00  0.00     0.012 A 
HETATM   24  C   UNL     1     -40.875  55.168 -53.434  1.00  0.00     0.007 A 
HETATM   25  C   UNL     1     -41.687  54.030 -53.445  1.00  0.00    -0.062 A 
HETATM   26  C   UNL     1     -41.256  52.780 -54.152  1.00  0.00     0.048 C 
HETATM   27  C   UNL     1     -42.928  54.079 -52.803  1.00  0.00     0.007 A 
HETATM   28  C   UNL     1     -43.349  55.245 -52.159  1.00  0.00     0.012 A 
ENDBRANCH  10  22
TORSDOF 2
ENDMDL
MODEL 6
REMARK VINA RESULT:      -7.1      2.234      5.268
REMARK  2 active torsions:
REMARK  status: ('A' for Active; 'I' for Inactive)
REMARK    1  A    between atoms: C_5  and  C_6 
REMARK    2  A    between atoms: C_15  and  C_16 
ROOT
HETATM    1  C   UNL     1     -42.909  56.839 -55.668  1.00  0.00     0.190 A 
HETATM    2  N   UNL     1     -42.252  56.967 -56.943  1.00  0.00    -0.308 N 
HETATM    3  C   UNL     1     -41.980  58.278 -57.252  1.00  0.00     0.320 A 
HETATM    4  O   UNL     1     -41.507  58.667 -58.304  1.00  0.00    -0.247 OA
HETATM    5  N   UNL     1     -42.317  59.083 -56.191  1.00  0.00    -0.308 N 
HETATM    6  N   UNL     1     -44.308  56.597 -55.915  1.00  0.00    -0.308 N 
HETATM    7  C   UNL     1     -45.089  57.677 -55.581  1.00  0.00     0.320 A 
HETATM    8  O   UNL     1     -46.295  57.743 -55.729  1.00  0.00    -0.247 OA
HETATM    9  N   UNL     1     -44.302  58.668 -55.046  1.00  0.00    -0.308 N 
HETATM   10  C   UNL     1     -42.903  58.336 -55.106  1.00  0.00     0.190 A 
HETATM   11  H   UNL     1     -42.171  56.237 -57.631  1.00  0.00     0.167 HD
HETATM   12  H   UNL     1     -42.256  60.087 -56.243  1.00  0.00     0.167 HD
HETATM   13  H   UNL     1     -44.688  55.790 -56.384  1.00  0.00     0.167 HD
HETATM   14  H   UNL     1     -44.675  59.580 -54.838  1.00  0.00     0.167 HD
ENDROOT
BRANCH   1  15
HETATM   15  C   UNL     1     -42.283  55.757 -54.800  1.00  0.00    -0.005 A 
HETATM   16  C   UNL     1     -40.985  55.279 -55.060  1.00  0.00     0.012 A 
HETATM   17  C   UNL     1     -40.386  54.324 -54.233  1.00  0.00     0.007 A 
HETATM   18  C   UNL     1     -41.068  53.815 -53.125  1.00  0.00    -0.062 A 
HETATM   19  C   UNL     1     -40.420  52.821 -52.210  1.00  0.00     0.048 C 
HETATM   20  C   UNL     1     -42.354  54.289 -52.848  1.00  0.00     0.007 A 
HETATM   21  C   UNL     1     -42.952  55.245 -53.673  1.00  0.00     0.012 A 
ENDBRANCH   1  15
BRANCH  10  22
HETATM   22  C   UNL     1     -42.190  58.591 -53.785  1.00  0.00    -0.005 A 
HETATM   23  C   UNL     1     -42.910  58.819 -52.598  1.00  0.00     0.012 A 
HETATM   24  C   UNL     1     -42.257  59.105 -51.396  1.00  0.00     0.007 A 
HETATM   25  C   UNL     1     -40.861  59.175 -51.347  1.00  0.00    -0.062 A 
HETATM   26  C   UNL     1     -40.149  59.503 -50.069  1.00  0.00     0.048 C 
HETATM   27  C   UNL     1     -40.133  58.955 -52.519  1.00  0.00     0.007 A 
HETATM   28  C   UNL     1     -40.786  58.668 -53.720  1.00  0.00     0.012 A 
ENDBRANCH  10  22
TORSDOF 2
ENDMDL
MODEL 7
REMARK VINA RESULT:      -7.0      2.413      3.349
REMARK  2 active torsions:
REMARK  status: ('A' for Active; 'I' for Inactive)
REMARK    1  A    between atoms: C_5  and  C_6 
REMARK    2  A    between atoms: C_15  and  C_16 
ROOT
HETATM    1  C   UNL     1     -42.982  58.441 -55.173  1.00  0.00     0.190 A 
HETATM    2  N   UNL     1     -44.395  58.717 -55.130  1.00  0.00    -0.308 N 
HETATM    3  C   UNL     1     -45.130  57.738 -55.752  1.00  0.00     0.320 A 
HETATM    4  O   UNL     1     -46.334  57.770 -55.930  1.00  0.00    -0.247 OA
HETATM    5  N   UNL     1     -44.301  56.713 -56.139  1.00  0.00    -0.308 N 
HETATM    6  N   UNL     1     -42.398  59.281 -56.187  1.00  0.00    -0.308 N 
HETATM    7  C   UNL     1     -42.005  58.565 -57.291  1.00  0.00     0.320 A 
HETATM    8  O   UNL     1     -41.520  59.042 -58.301  1.00  0.00    -0.247 OA
HETATM    9  N   UNL     1     -42.234  57.227 -57.079  1.00  0.00    -0.308 N 
HETATM   10  C   UNL     1     -42.919  56.987 -55.836  1.00  0.00     0.190 A 
HETATM   11  H   UNL     1     -44.808  59.598 -54.869  1.00  0.00     0.167 HD
HETATM   12  H   UNL     1     -44.638  55.927 -56.672  1.00  0.00     0.167 HD
HETATM   13  H   UNL     1     -42.374  60.289 -56.170  1.00  0.00     0.167 HD
HETATM   14  H   UNL     1     -42.110  56.549 -57.815  1.00  0.00     0.167 HD
ENDROOT
BRANCH   1  15
HETATM   15  C   UNL     1     -42.316  58.627 -53.817  1.00  0.00    -0.005 A 
HETATM   16  C   UNL     1     -40.934  58.870 -53.715  1.00  0.00     0.012 A 
HETATM   17  C   UNL     1     -40.328  59.096 -52.475  1.00  0.00     0.007 A 
HETATM   18  C   UNL     1     -41.084  59.080 -51.301  1.00  0.00    -0.062 A 
HETATM   19  C   UNL     1     -40.451  59.361 -49.972  1.00  0.00     0.048 C 
HETATM   20  C   UNL     1     -42.460  58.850 -51.388  1.00  0.00     0.007 A 
HETATM   21  C   UNL     1     -43.067  58.628 -52.627  1.00  0.00     0.012 A 
ENDBRANCH   1  15
BRANCH  10  22
HETATM   22  C   UNL     1     -42.276  55.870 -55.027  1.00  0.00    -0.005 A 
HETATM   23  C   UNL     1     -40.927  55.515 -55.213  1.00  0.00     0.012 A 
HETATM   24  C   UNL     1     -40.352  54.454 -54.508  1.00  0.00     0.007 A 
HETATM   25  C   UNL     1     -41.111  53.714 -53.597  1.00  0.00    -0.062 A 
HETATM   26  C   UNL     1     -40.512  52.559 -52.851  1.00  0.00     0.048 C 
HETATM   27  C   UNL     1     -42.454  54.052 -53.405  1.00  0.00     0.007 A 
HETATM   28  C   UNL     1     -43.028  55.112 -54.109  1.00  0.00     0.012 A 
ENDBRANCH  10  22
TORSDOF 2
ENDMDL
MODEL 8
REMARK VINA RESULT:      -6.6      3.031      5.453
REMARK  2 active torsions:
REMARK  status: ('A' for Active; 'I' for Inactive)
REMARK    1  A    between atoms: C_5  and  C_6 
REMARK    2  A    between atoms: C_15  and  C_16 
ROOT
HETATM    1  C   UNL     1     -41.757  55.055 -51.448  1.00  0.00     0.190 A 
HETATM    2  N   UNL     1     -42.680  54.508 -50.488  1.00  0.00    -0.308 N 
HETATM    3  C   UNL     1     -43.905  55.127 -50.542  1.00  0.00     0.320 A 
HETATM    4  O   UNL     1     -44.834  54.914 -49.784  1.00  0.00    -0.247 OA
HETATM    5  N   UNL     1     -43.926  56.021 -51.585  1.00  0.00    -0.308 N 
HETATM    6  N   UNL     1     -40.845  55.918 -50.742  1.00  0.00    -0.308 N 
HETATM    7  C   UNL     1     -41.059  57.244 -51.026  1.00  0.00     0.320 A 
HETATM    8  O   UNL     1     -40.450  58.175 -50.530  1.00  0.00    -0.247 OA
HETATM    9  N   UNL     1     -42.059  57.361 -51.960  1.00  0.00    -0.308 N 
HETATM   10  C   UNL     1     -42.659  56.089 -52.269  1.00  0.00     0.190 A 
HETATM   11  H   UNL     1     -42.434  53.896 -49.728  1.00  0.00     0.167 HD
HETATM   12  H   UNL     1     -44.715  56.626 -51.753  1.00  0.00     0.167 HD
HETATM   13  H   UNL     1     -40.195  55.624 -50.028  1.00  0.00     0.167 HD
HETATM   14  H   UNL     1     -42.434  58.260 -52.220  1.00  0.00     0.167 HD
ENDROOT
BRANCH   1  15
HETATM   15  C   UNL     1     -41.032  53.972 -52.235  1.00  0.00    -0.005 A 
HETATM   16  C   UNL     1     -40.816  52.696 -51.684  1.00  0.00     0.012 A 
HETATM   17  C   UNL     1     -40.199  51.683 -52.425  1.00  0.00     0.007 A 
HETATM   18  C   UNL     1     -39.775  51.918 -53.734  1.00  0.00    -0.062 A 
HETATM   19  C   UNL     1     -39.148  50.827 -54.549  1.00  0.00     0.048 C 
HETATM   20  C   UNL     1     -39.991  53.178 -54.299  1.00  0.00     0.007 A 
HETATM   21  C   UNL     1     -40.611  54.190 -53.560  1.00  0.00     0.012 A 
ENDBRANCH   1  15
BRANCH  10  22
HETATM   22  C   UNL     1     -42.804  55.865 -53.767  1.00  0.00    -0.005 A 
HETATM   23  C   UNL     1     -43.492  54.749 -54.276  1.00  0.00     0.012 A 
HETATM   24  C   UNL     1     -43.579  54.515 -55.651  1.00  0.00     0.007 A 
HETATM   25  C   UNL     1     -42.976  55.390 -56.560  1.00  0.00    -0.062 A 
HETATM   26  C   UNL     1     -43.042  55.138 -58.036  1.00  0.00     0.048 C 
HETATM   27  C   UNL     1     -42.284  56.501 -56.068  1.00  0.00     0.007 A 
HETATM   28  C   UNL     1     -42.198  56.735 -54.694  1.00  0.00     0.012 A 
ENDBRANCH  10  22
TORSDOF 2
ENDMDL
MODEL 9
REMARK VINA RESULT:      -6.5      5.524      8.670
REMARK  2 active torsions:
REMARK  status: ('A' for Active; 'I' for Inactive)
REMARK    1  A    between atoms: C_5  and  C_6 
REMARK    2  A    between atoms: C_15  and  C_16 
ROOT
HETATM    1  C   UNL     1     -44.248  57.307 -58.049  1.00  0.00     0.190 A 
HETATM    2  N   UNL     1     -44.202  56.860 -56.681  1.00  0.00    -0.308 N 
HETATM    3  C   UNL     1     -42.918  56.605 -56.265  1.00  0.00     0.320 A 
HETATM    4  O   UNL     1     -42.610  56.137 -55.185  1.00  0.00    -0.247 OA
HETATM    5  N   UNL     1     -42.033  56.962 -57.254  1.00  0.00    -0.308 N 
HETATM    6  N   UNL     1     -44.690  56.200 -58.860  1.00  0.00    -0.308 N 
HETATM    7  C   UNL     1     -43.681  55.696 -59.643  1.00  0.00     0.320 A 
HETATM    8  O   UNL     1     -43.783  54.737 -60.388  1.00  0.00    -0.247 OA
HETATM    9  N   UNL     1     -42.541  56.441 -59.465  1.00  0.00    -0.308 N 
HETATM   10  C   UNL     1     -42.703  57.436 -58.439  1.00  0.00     0.190 A 
HETATM   11  H   UNL     1     -44.998  56.568 -56.137  1.00  0.00     0.167 HD
HETATM   12  H   UNL     1     -41.043  56.791 -57.170  1.00  0.00     0.167 HD
HETATM   13  H   UNL     1     -45.591  55.752 -58.797  1.00  0.00     0.167 HD
HETATM   14  H   UNL     1     -41.662  56.163 -59.874  1.00  0.00     0.167 HD
ENDROOT
BRANCH   1  15
HETATM   15  C   UNL     1     -45.126  58.537 -58.227  1.00  0.00    -0.005 A 
HETATM   16  C   UNL     1     -45.811  58.771 -59.433  1.00  0.00     0.012 A 
HETATM   17  C   UNL     1     -46.662  59.872 -59.580  1.00  0.00     0.007 A 
HETATM   18  C   UNL     1     -46.847  60.772 -58.529  1.00  0.00    -0.062 A 
HETATM   19  C   UNL     1     -47.787  61.932 -58.664  1.00  0.00     0.048 C 
HETATM   20  C   UNL     1     -46.181  60.547 -57.321  1.00  0.00     0.007 A 
HETATM   21  C   UNL     1     -45.334  59.445 -57.172  1.00  0.00     0.012 A 
ENDBRANCH   1  15
BRANCH  10  22
HETATM   22  C   UNL     1     -42.197  58.805 -58.873  1.00  0.00    -0.005 A 
HETATM   23  C   UNL     1     -41.739  59.747 -57.934  1.00  0.00     0.012 A 
HETATM   24  C   UNL     1     -41.325  61.022 -58.329  1.00  0.00     0.007 A 
HETATM   25  C   UNL     1     -41.360  61.395 -59.675  1.00  0.00    -0.062 A 
HETATM   26  C   UNL     1     -40.941  62.767 -60.109  1.00  0.00     0.048 C 
HETATM   27  C   UNL     1     -41.819  60.471 -60.619  1.00  0.00     0.007 A 
HETATM   28  C   UNL     1     -42.232  59.196 -60.225  1.00  0.00     0.012 A 
ENDBRANCH  10  22
TORSDOF 2
ENDMDL
MODEL 10
REMARK VINA RESULT:      -6.3      2.356      4.622
REMARK  2 active torsions:
REMARK  status: ('A' for Active; 'I' for Inactive)
REMARK    1  A    between atoms: C_5  and  C_6 
REMARK    2  A    between atoms: C_15  and  C_16 
ROOT
HETATM    1  C   UNL     1     -43.460  56.420 -53.138  1.00  0.00     0.190 A 
HETATM    2  N   UNL     1     -43.970  55.237 -52.495  1.00  0.00    -0.308 N 
HETATM    3  C   UNL     1     -42.964  54.376 -52.130  1.00  0.00     0.320 A 
HETATM    4  O   UNL     1     -43.127  53.271 -51.647  1.00  0.00    -0.247 OA
HETATM    5  N   UNL     1     -41.745  54.954 -52.389  1.00  0.00    -0.308 N 
HETATM    6  N   UNL     1     -43.683  56.283 -54.555  1.00  0.00    -0.308 N 
HETATM    7  C   UNL     1     -42.514  56.079 -55.247  1.00  0.00     0.320 A 
HETATM    8  O   UNL     1     -42.432  55.894 -56.448  1.00  0.00    -0.247 OA
HETATM    9  N   UNL     1     -41.450  56.125 -54.379  1.00  0.00    -0.308 N 
HETATM   10  C   UNL     1     -41.876  56.248 -53.010  1.00  0.00     0.190 A 
HETATM   11  H   UNL     1     -44.936  54.953 -52.480  1.00  0.00     0.167 HD
HETATM   12  H   UNL     1     -40.879  54.455 -52.253  1.00  0.00     0.167 HD
HETATM   13  H   UNL     1     -44.585  56.220 -55.003  1.00  0.00     0.167 HD
HETATM   14  H   UNL     1     -40.517  55.893 -54.680  1.00  0.00     0.167 HD
ENDROOT
BRANCH   1  15
HETATM   15  C   UNL     1     -44.079  57.694 -52.580  1.00  0.00    -0.005 A 
HETATM   16  C   UNL     1     -44.087  58.885 -53.328  1.00  0.00     0.012 A 
HETATM   17  C   UNL     1     -44.702  60.043 -52.841  1.00  0.00     0.007 A 
HETATM   18  C   UNL     1     -45.322  60.044 -51.589  1.00  0.00    -0.062 A 
HETATM   19  C   UNL     1     -46.019  61.268 -51.076  1.00  0.00     0.048 C 
HETATM   20  C   UNL     1     -45.332  58.865 -50.839  1.00  0.00     0.007 A 
HETATM   21  C   UNL     1     -44.720  57.707 -51.327  1.00  0.00     0.012 A 
ENDBRANCH   1  15
BRANCH  10  22
HETATM   22  C   UNL     1     -41.108  57.325 -52.259  1.00  0.00    -0.005 A 
HETATM   23  C   UNL     1     -40.317  58.269 -52.940  1.00  0.00     0.012 A 
HETATM   24  C   UNL     1     -39.570  59.225 -52.247  1.00  0.00     0.007 A 
HETATM   25  C   UNL     1     -39.588  59.264 -50.849  1.00  0.00    -0.062 A 
HETATM   26  C   UNL     1     -38.773  60.269 -50.093  1.00  0.00     0.048 C 
HETATM   27  C   UNL     1     -40.365  58.329 -50.159  1.00  0.00     0.007 A 
HETATM   28  C   UNL     1     -41.112  57.374 -50.852  1.00  0.00     0.012 A 
ENDBRANCH  10  22
TORSDOF 2
ENDMDL
