MODEL 1
REMARK VINA RESULT:      -8.1      0.000      0.000
REMARK  6 active torsions:
REMARK  status: ('A' for Active; 'I' for Inactive)
REMARK    1  A    between atoms: C_8  and  N_9 
REMARK       I    between atoms: N_9  and  C_10 
REMARK    2  A    between atoms: C_10  and  C_11 
REMARK    3  A    between atoms: C_11  and  N_12 
REMARK    4  A    between atoms: N_12  and  C_13 
REMARK    5  A    between atoms: C_13  and  C_14 
REMARK    6  A    between atoms: C_15  and  C_16 
ROOT
HETATM    1  N   UNL     1     -41.977  53.672 -51.126  1.00  0.00     0.100 N 
HETATM    2  H   UNL     1     -42.359  53.902 -52.046  1.00  0.00     0.317 HD
ENDROOT
BRANCH   1   3
HETATM    3  C   UNL     1     -42.344  54.771 -50.200  1.00  0.00     0.372 C 
BRANCH   3   4
HETATM    4  C   UNL     1     -42.555  56.083 -50.971  1.00  0.00     0.250 C 
HETATM    5  N   UNL     1     -41.467  56.416 -51.749  1.00  0.00    -0.322 N 
HETATM    6  H   UNL     1     -40.713  55.734 -51.738  1.00  0.00     0.169 HD
HETATM    7  O   UNL     1     -43.613  56.696 -50.876  1.00  0.00    -0.271 OA
BRANCH   5   8
HETATM    8  C   UNL     1     -41.279  57.557 -52.508  1.00  0.00     0.085 A 
HETATM    9  C   UNL     1     -41.824  57.681 -53.772  1.00  0.00     0.052 A 
HETATM   10  C   UNL     1     -42.661  56.774 -54.593  1.00  0.00     0.072 C 
HETATM   11  N   UNL     1     -41.436  58.907 -54.229  1.00  0.00    -0.280 N 
HETATM   12  H   UNL     1     -41.650  59.340 -55.121  1.00  0.00     0.189 HD
HETATM   13  N   UNL     1     -40.676  59.589 -53.368  1.00  0.00    -0.177 NA
HETATM   14  C   UNL     1     -40.570  58.779 -52.303  1.00  0.00     0.079 A 
HETATM   15  C   UNL     1     -39.765  59.250 -51.150  1.00  0.00     0.075 C 
ENDBRANCH   5   8
ENDBRANCH   3   4
ENDBRANCH   1   3
BRANCH   1  16
HETATM   16  C   UNL     1     -40.521  53.488 -51.279  1.00  0.00     0.250 C 
HETATM   17  C   UNL     1     -39.790  53.702 -49.943  1.00  0.00     0.048 C 
BRANCH  16  18
HETATM   18  C   UNL     1     -40.166  52.215 -52.048  1.00  0.00    -0.011 A 
HETATM   19  C   UNL     1     -40.198  52.181 -53.468  1.00  0.00     0.056 A 
HETATM   20  C   UNL     1     -39.880  50.977 -54.133  1.00  0.00     0.017 A 
HETATM   21  C   UNL     1     -39.537  49.827 -53.426  1.00  0.00     0.001 A 
HETATM   22  C   UNL     1     -39.515  49.855 -52.038  1.00  0.00     0.001 A 
HETATM   23  C   UNL     1     -39.828  51.033 -51.359  1.00  0.00     0.010 A 
BRANCH  19  24
HETATM   24  C   UNL     1     -40.589  53.382 -54.311  1.00  0.00     0.418 C 
HETATM   25  F   UNL     1     -40.073  54.558 -53.855  1.00  0.00    -0.166 F 
HETATM   26  F   UNL     1     -40.151  53.288 -55.603  1.00  0.00    -0.166 F 
HETATM   27  F   UNL     1     -41.936  53.564 -54.407  1.00  0.00    -0.166 F 
ENDBRANCH  19  24
ENDBRANCH  16  18
ENDBRANCH   1  16
TORSDOF 6
ENDMDL
MODEL 2
REMARK VINA RESULT:      -8.0      3.727      5.354
REMARK  6 active torsions:
REMARK  status: ('A' for Active; 'I' for Inactive)
REMARK    1  A    between atoms: C_8  and  N_9 
REMARK       I    between atoms: N_9  and  C_10 
REMARK    2  A    between atoms: C_10  and  C_11 
REMARK    3  A    between atoms: C_11  and  N_12 
REMARK    4  A    between atoms: N_12  and  C_13 
REMARK    5  A    between atoms: C_13  and  C_14 
REMARK    6  A    between atoms: C_15  and  C_16 
ROOT
HETATM    1  N   UNL     1     -42.323  54.418 -54.606  1.00  0.00     0.100 N 
HETATM    2  H   UNL     1     -42.828  53.985 -55.382  1.00  0.00     0.317 HD
ENDROOT
BRANCH   1   3
HETATM    3  C   UNL     1     -42.096  55.841 -54.957  1.00  0.00     0.372 C 
BRANCH   3   4
HETATM    4  C   UNL     1     -42.983  56.257 -56.141  1.00  0.00     0.250 C 
HETATM    5  N   UNL     1     -42.493  55.805 -57.347  1.00  0.00    -0.322 N 
HETATM    6  H   UNL     1     -41.656  55.231 -57.278  1.00  0.00     0.169 HD
HETATM    7  O   UNL     1     -44.012  56.896 -55.951  1.00  0.00    -0.271 OA
BRANCH   5   8
HETATM    8  C   UNL     1     -42.987  56.056 -58.615  1.00  0.00     0.085 A 
HETATM    9  C   UNL     1     -42.717  57.241 -59.274  1.00  0.00     0.052 A 
HETATM   10  C   UNL     1     -41.928  58.437 -58.895  1.00  0.00     0.072 C 
HETATM   11  N   UNL     1     -43.360  57.157 -60.475  1.00  0.00    -0.280 N 
HETATM   12  H   UNL     1     -43.385  57.843 -61.221  1.00  0.00     0.189 HD
HETATM   13  N   UNL     1     -44.034  56.018 -60.648  1.00  0.00    -0.177 NA
HETATM   14  C   UNL     1     -43.816  55.326 -59.519  1.00  0.00     0.079 A 
HETATM   15  C   UNL     1     -44.447  53.989 -59.390  1.00  0.00     0.075 C 
ENDBRANCH   5   8
ENDBRANCH   3   4
ENDBRANCH   1   3
BRANCH   1  16
HETATM   16  C   UNL     1     -41.079  53.653 -54.399  1.00  0.00     0.250 C 
HETATM   17  C   UNL     1     -39.918  54.249 -55.214  1.00  0.00     0.048 C 
BRANCH  16  18
HETATM   18  C   UNL     1     -40.796  53.376 -52.923  1.00  0.00    -0.011 A 
HETATM   19  C   UNL     1     -40.226  52.143 -52.503  1.00  0.00     0.056 A 
HETATM   20  C   UNL     1     -40.000  51.925 -51.126  1.00  0.00     0.017 A 
HETATM   21  C   UNL     1     -40.324  52.891 -50.177  1.00  0.00     0.001 A 
HETATM   22  C   UNL     1     -40.889  54.092 -50.584  1.00  0.00     0.001 A 
HETATM   23  C   UNL     1     -41.124  54.329 -51.938  1.00  0.00     0.010 A 
BRANCH  19  24
HETATM   24  C   UNL     1     -39.873  51.028 -53.471  1.00  0.00     0.418 C 
HETATM   25  F   UNL     1     -38.743  51.272 -54.193  1.00  0.00    -0.166 F 
HETATM   26  F   UNL     1     -39.634  49.837 -52.844  1.00  0.00    -0.166 F 
HETATM   27  F   UNL     1     -40.857  50.761 -54.376  1.00  0.00    -0.166 F 
ENDBRANCH  19  24
ENDBRANCH  16  18
ENDBRANCH   1  16
TORSDOF 6
ENDMDL
MODEL 3
REMARK VINA RESULT:      -7.9      3.683      5.089
REMARK  6 active torsions:
REMARK  status: ('A' for Active; 'I' for Inactive)
REMARK    1  A    between atoms: C_8  and  N_9 
REMARK       I    between atoms: N_9  and  C_10 
REMARK    2  A    between atoms: C_10  and  C_11 
REMARK    3  A    between atoms: C_11  and  N_12 
REMARK    4  A    between atoms: N_12  and  C_13 
REMARK    5  A    between atoms: C_13  and  C_14 
REMARK    6  A    between atoms: C_15  and  C_16 
ROOT
HETATM    1  N   UNL     1     -42.735  55.023 -54.031  1.00  0.00     0.100 N 
HETATM    2  H   UNL     1     -43.132  54.306 -53.419  1.00  0.00     0.317 HD
ENDROOT
BRANCH   1   3
HETATM    3  C   UNL     1     -42.874  54.547 -55.428  1.00  0.00     0.372 C 
BRANCH   3   4
HETATM    4  C   UNL     1     -43.283  55.701 -56.357  1.00  0.00     0.250 C 
HETATM    5  N   UNL     1     -43.194  55.359 -57.689  1.00  0.00    -0.322 N 
HETATM    6  H   UNL     1     -42.921  54.394 -57.862  1.00  0.00     0.169 HD
HETATM    7  O   UNL     1     -43.663  56.769 -55.890  1.00  0.00    -0.271 OA
BRANCH   5   8
HETATM    8  C   UNL     1     -43.408  56.165 -58.792  1.00  0.00     0.085 A 
HETATM    9  C   UNL     1     -44.249  55.778 -59.818  1.00  0.00     0.052 A 
HETATM   10  C   UNL     1     -45.072  54.563 -60.031  1.00  0.00     0.072 C 
HETATM   11  N   UNL     1     -44.217  56.790 -60.733  1.00  0.00    -0.280 N 
HETATM   12  H   UNL     1     -44.712  56.854 -61.615  1.00  0.00     0.189 HD
HETATM   13  N   UNL     1     -43.416  57.802 -60.390  1.00  0.00    -0.177 NA
HETATM   14  C   UNL     1     -42.911  57.440 -59.200  1.00  0.00     0.079 A 
HETATM   15  C   UNL     1     -41.959  58.365 -58.538  1.00  0.00     0.075 C 
ENDBRANCH   5   8
ENDBRANCH   3   4
ENDBRANCH   1   3
BRANCH   1  16
HETATM   16  C   UNL     1     -41.336  55.240 -53.615  1.00  0.00     0.250 C 
HETATM   17  C   UNL     1     -41.001  56.740 -53.554  1.00  0.00     0.048 C 
BRANCH  16  18
HETATM   18  C   UNL     1     -40.949  54.411 -52.392  1.00  0.00    -0.011 A 
HETATM   19  C   UNL     1     -40.404  53.105 -52.531  1.00  0.00     0.056 A 
HETATM   20  C   UNL     1     -40.078  52.370 -51.370  1.00  0.00     0.017 A 
HETATM   21  C   UNL     1     -40.281  52.897 -50.098  1.00  0.00     0.001 A 
HETATM   22  C   UNL     1     -40.822  54.168 -49.959  1.00  0.00     0.001 A 
HETATM   23  C   UNL     1     -41.154  54.913 -51.091  1.00  0.00     0.010 A 
BRANCH  19  24
HETATM   24  C   UNL     1     -40.179  52.448 -53.881  1.00  0.00     0.418 C 
HETATM   25  F   UNL     1     -39.709  53.303 -54.832  1.00  0.00    -0.166 F 
HETATM   26  F   UNL     1     -39.255  51.441 -53.833  1.00  0.00    -0.166 F 
HETATM   27  F   UNL     1     -41.301  51.874 -54.400  1.00  0.00    -0.166 F 
ENDBRANCH  19  24
ENDBRANCH  16  18
ENDBRANCH   1  16
TORSDOF 6
ENDMDL
MODEL 4
REMARK VINA RESULT:      -7.9      1.339      1.730
REMARK  6 active torsions:
REMARK  status: ('A' for Active; 'I' for Inactive)
REMARK    1  A    between atoms: C_8  and  N_9 
REMARK       I    between atoms: N_9  and  C_10 
REMARK    2  A    between atoms: C_10  and  C_11 
REMARK    3  A    between atoms: C_11  and  N_12 
REMARK    4  A    between atoms: N_12  and  C_13 
REMARK    5  A    between atoms: C_13  and  C_14 
REMARK    6  A    between atoms: C_15  and  C_16 
ROOT
HETATM    1  N   UNL     1     -42.114  53.688 -50.938  1.00  0.00     0.100 N 
HETATM    2  H   UNL     1     -42.623  53.573 -51.817  1.00  0.00     0.317 HD
ENDROOT
BRANCH   1   3
HETATM    3  C   UNL     1     -42.570  54.956 -50.319  1.00  0.00     0.372 C 
BRANCH   3   4
HETATM    4  C   UNL     1     -42.733  56.052 -51.383  1.00  0.00     0.250 C 
HETATM    5  N   UNL     1     -42.242  57.270 -50.962  1.00  0.00    -0.322 N 
HETATM    6  H   UNL     1     -41.808  57.257 -50.042  1.00  0.00     0.169 HD
HETATM    7  O   UNL     1     -43.229  55.791 -52.474  1.00  0.00    -0.271 OA
BRANCH   5   8
HETATM    8  C   UNL     1     -42.293  58.484 -51.623  1.00  0.00     0.085 A 
HETATM    9  C   UNL     1     -43.424  59.277 -51.591  1.00  0.00     0.052 A 
HETATM   10  C   UNL     1     -44.742  59.111 -50.934  1.00  0.00     0.072 C 
HETATM   11  N   UNL     1     -43.134  60.376 -52.346  1.00  0.00    -0.280 N 
HETATM   12  H   UNL     1     -43.727  61.173 -52.547  1.00  0.00     0.189 HD
HETATM   13  N   UNL     1     -41.907  60.359 -52.875  1.00  0.00    -0.177 NA
HETATM   14  C   UNL     1     -41.373  59.207 -52.441  1.00  0.00     0.079 A 
HETATM   15  C   UNL     1     -39.990  58.878 -52.867  1.00  0.00     0.075 C 
ENDBRANCH   5   8
ENDBRANCH   3   4
ENDBRANCH   1   3
BRANCH   1  16
HETATM   16  C   UNL     1     -40.672  53.666 -51.250  1.00  0.00     0.250 C 
HETATM   17  C   UNL     1     -39.831  54.032 -50.015  1.00  0.00     0.048 C 
BRANCH  16  18
HETATM   18  C   UNL     1     -40.251  52.405 -52.004  1.00  0.00    -0.011 A 
HETATM   19  C   UNL     1     -40.239  52.368 -53.425  1.00  0.00     0.056 A 
HETATM   20  C   UNL     1     -39.861  51.174 -54.077  1.00  0.00     0.017 A 
HETATM   21  C   UNL     1     -39.502  50.037 -53.358  1.00  0.00     0.001 A 
HETATM   22  C   UNL     1     -39.522  50.068 -51.970  1.00  0.00     0.001 A 
HETATM   23  C   UNL     1     -39.894  51.235 -51.303  1.00  0.00     0.010 A 
BRANCH  19  24
HETATM   24  C   UNL     1     -40.644  53.554 -54.282  1.00  0.00     0.418 C 
HETATM   25  F   UNL     1     -41.993  53.685 -54.427  1.00  0.00    -0.166 F 
HETATM   26  F   UNL     1     -40.233  54.749 -53.761  1.00  0.00    -0.166 F 
HETATM   27  F   UNL     1     -40.124  53.519 -55.541  1.00  0.00    -0.166 F 
ENDBRANCH  19  24
ENDBRANCH  16  18
ENDBRANCH   1  16
TORSDOF 6
ENDMDL
MODEL 5
REMARK VINA RESULT:      -7.8      3.868      5.501
REMARK  6 active torsions:
REMARK  status: ('A' for Active; 'I' for Inactive)
REMARK    1  A    between atoms: C_8  and  N_9 
REMARK       I    between atoms: N_9  and  C_10 
REMARK    2  A    between atoms: C_10  and  C_11 
REMARK    3  A    between atoms: C_11  and  N_12 
REMARK    4  A    between atoms: N_12  and  C_13 
REMARK    5  A    between atoms: C_13  and  C_14 
REMARK    6  A    between atoms: C_15  and  C_16 
ROOT
HETATM    1  N   UNL     1     -41.271  55.150 -55.429  1.00  0.00     0.100 N 
HETATM    2  H   UNL     1     -40.293  55.128 -55.131  1.00  0.00     0.317 HD
ENDROOT
BRANCH   1   3
HETATM    3  C   UNL     1     -41.727  56.560 -55.365  1.00  0.00     0.372 C 
BRANCH   3   4
HETATM    4  C   UNL     1     -42.752  56.850 -56.472  1.00  0.00     0.250 C 
HETATM    5  N   UNL     1     -42.390  56.297 -57.681  1.00  0.00    -0.322 N 
HETATM    6  H   UNL     1     -41.535  55.745 -57.656  1.00  0.00     0.169 HD
HETATM    7  O   UNL     1     -43.770  57.487 -56.224  1.00  0.00    -0.271 OA
BRANCH   5   8
HETATM    8  C   UNL     1     -43.029  56.421 -58.901  1.00  0.00     0.085 A 
HETATM    9  C   UNL     1     -42.940  57.580 -59.649  1.00  0.00     0.052 A 
HETATM   10  C   UNL     1     -42.233  58.863 -59.421  1.00  0.00     0.072 C 
HETATM   11  N   UNL     1     -43.689  57.364 -60.769  1.00  0.00    -0.280 N 
HETATM   12  H   UNL     1     -43.853  57.995 -61.544  1.00  0.00     0.189 HD
HETATM   13  N   UNL     1     -44.266  56.160 -60.807  1.00  0.00    -0.177 NA
HETATM   14  C   UNL     1     -43.872  55.564 -59.671  1.00  0.00     0.079 A 
HETATM   15  C   UNL     1     -44.358  54.188 -59.404  1.00  0.00     0.075 C 
ENDBRANCH   5   8
ENDBRANCH   3   4
ENDBRANCH   1   3
BRANCH   1  16
HETATM   16  C   UNL     1     -42.028  54.242 -54.547  1.00  0.00     0.250 C 
HETATM   17  C   UNL     1     -43.224  53.618 -55.287  1.00  0.00     0.048 C 
BRANCH  16  18
HETATM   18  C   UNL     1     -41.126  53.274 -53.783  1.00  0.00    -0.011 A 
HETATM   19  C   UNL     1     -40.816  53.484 -52.412  1.00  0.00     0.056 A 
HETATM   20  C   UNL     1     -39.962  52.572 -51.754  1.00  0.00     0.017 A 
HETATM   21  C   UNL     1     -39.421  51.476 -52.419  1.00  0.00     0.001 A 
HETATM   22  C   UNL     1     -39.715  51.273 -53.761  1.00  0.00     0.001 A 
HETATM   23  C   UNL     1     -40.554  52.162 -54.433  1.00  0.00     0.010 A 
BRANCH  19  24
HETATM   24  C   UNL     1     -41.341  54.670 -51.623  1.00  0.00     0.418 C 
HETATM   25  F   UNL     1     -40.994  55.876 -52.155  1.00  0.00    -0.166 F 
HETATM   26  F   UNL     1     -42.706  54.700 -51.557  1.00  0.00    -0.166 F 
HETATM   27  F   UNL     1     -40.923  54.688 -50.325  1.00  0.00    -0.166 F 
ENDBRANCH  19  24
ENDBRANCH  16  18
ENDBRANCH   1  16
TORSDOF 6
ENDMDL
MODEL 6
REMARK VINA RESULT:      -7.6      4.050      5.594
REMARK  6 active torsions:
REMARK  status: ('A' for Active; 'I' for Inactive)
REMARK    1  A    between atoms: C_8  and  N_9 
REMARK       I    between atoms: N_9  and  C_10 
REMARK    2  A    between atoms: C_10  and  C_11 
REMARK    3  A    between atoms: C_11  and  N_12 
REMARK    4  A    between atoms: N_12  and  C_13 
REMARK    5  A    between atoms: C_13  and  C_14 
REMARK    6  A    between atoms: C_15  and  C_16 
ROOT
HETATM    1  N   UNL     1     -41.629  55.122 -55.302  1.00  0.00     0.100 N 
HETATM    2  H   UNL     1     -41.366  56.110 -55.309  1.00  0.00     0.317 HD
ENDROOT
BRANCH   1   3
HETATM    3  C   UNL     1     -42.775  54.956 -56.228  1.00  0.00     0.372 C 
BRANCH   3   4
HETATM    4  C   UNL     1     -43.069  56.269 -56.969  1.00  0.00     0.250 C 
HETATM    5  N   UNL     1     -43.887  56.082 -58.063  1.00  0.00    -0.322 N 
HETATM    6  H   UNL     1     -44.211  55.127 -58.192  1.00  0.00     0.169 HD
HETATM    7  O   UNL     1     -42.614  57.331 -56.557  1.00  0.00    -0.271 OA
BRANCH   5   8
HETATM    8  C   UNL     1     -44.290  57.021 -58.996  1.00  0.00     0.085 A 
HETATM    9  C   UNL     1     -43.416  57.518 -59.944  1.00  0.00     0.052 A 
HETATM   10  C   UNL     1     -41.987  57.243 -60.227  1.00  0.00     0.072 C 
HETATM   11  N   UNL     1     -44.132  58.416 -60.681  1.00  0.00    -0.280 N 
HETATM   12  H   UNL     1     -43.817  58.977 -61.465  1.00  0.00     0.189 HD
HETATM   13  N   UNL     1     -45.400  58.551 -60.283  1.00  0.00    -0.177 NA
HETATM   14  C   UNL     1     -45.518  57.701 -59.251  1.00  0.00     0.079 A 
HETATM   15  C   UNL     1     -46.833  57.616 -58.569  1.00  0.00     0.075 C 
ENDBRANCH   5   8
ENDBRANCH   3   4
ENDBRANCH   1   3
BRANCH   1  16
HETATM   16  C   UNL     1     -41.935  54.751 -53.907  1.00  0.00     0.250 C 
HETATM   17  C   UNL     1     -43.452  54.614 -53.690  1.00  0.00     0.048 C 
BRANCH  16  18
HETATM   18  C   UNL     1     -41.073  53.596 -53.401  1.00  0.00    -0.011 A 
HETATM   19  C   UNL     1     -40.612  53.557 -52.057  1.00  0.00     0.056 A 
HETATM   20  C   UNL     1     -39.802  52.478 -51.640  1.00  0.00     0.017 A 
HETATM   21  C   UNL     1     -39.447  51.457 -52.518  1.00  0.00     0.001 A 
HETATM   22  C   UNL     1     -39.888  51.497 -53.833  1.00  0.00     0.001 A 
HETATM   23  C   UNL     1     -40.687  52.554 -54.269  1.00  0.00     0.010 A 
BRANCH  19  24
HETATM   24  C   UNL     1     -40.930  54.644 -51.047  1.00  0.00     0.418 C 
HETATM   25  F   UNL     1     -40.847  55.905 -51.559  1.00  0.00    -0.166 F 
HETATM   26  F   UNL     1     -42.201  54.553 -50.552  1.00  0.00    -0.166 F 
HETATM   27  F   UNL     1     -40.121  54.621 -49.950  1.00  0.00    -0.166 F 
ENDBRANCH  19  24
ENDBRANCH  16  18
ENDBRANCH   1  16
TORSDOF 6
ENDMDL
MODEL 7
REMARK VINA RESULT:      -7.6      2.497      3.550
REMARK  6 active torsions:
REMARK  status: ('A' for Active; 'I' for Inactive)
REMARK    1  A    between atoms: C_8  and  N_9 
REMARK       I    between atoms: N_9  and  C_10 
REMARK    2  A    between atoms: C_10  and  C_11 
REMARK    3  A    between atoms: C_11  and  N_12 
REMARK    4  A    between atoms: N_12  and  C_13 
REMARK    5  A    between atoms: C_13  and  C_14 
REMARK    6  A    between atoms: C_15  and  C_16 
ROOT
HETATM    1  N   UNL     1     -41.054  55.698 -54.429  1.00  0.00     0.100 N 
HETATM    2  H   UNL     1     -40.452  56.076 -53.694  1.00  0.00     0.317 HD
ENDROOT
BRANCH   1   3
HETATM    3  C   UNL     1     -41.852  56.820 -54.978  1.00  0.00     0.372 C 
BRANCH   3   4
HETATM    4  C   UNL     1     -41.702  58.074 -54.102  1.00  0.00     0.250 C 
HETATM    5  N   UNL     1     -42.036  57.837 -52.786  1.00  0.00    -0.322 N 
HETATM    6  H   UNL     1     -42.284  56.872 -52.578  1.00  0.00     0.169 HD
HETATM    7  O   UNL     1     -41.297  59.125 -54.586  1.00  0.00    -0.271 OA
BRANCH   5   8
HETATM    8  C   UNL     1     -42.092  58.745 -51.744  1.00  0.00     0.085 A 
HETATM    9  C   UNL     1     -43.296  59.258 -51.297  1.00  0.00     0.052 A 
HETATM   10  C   UNL     1     -44.698  59.029 -51.721  1.00  0.00     0.072 C 
HETATM   11  N   UNL     1     -42.985  60.118 -50.285  1.00  0.00    -0.280 N 
HETATM   12  H   UNL     1     -43.616  60.677 -49.721  1.00  0.00     0.189 HD
HETATM   13  N   UNL     1     -41.675  60.215 -50.042  1.00  0.00    -0.177 NA
HETATM   14  C   UNL     1     -41.109  59.378 -50.925  1.00  0.00     0.079 A 
HETATM   15  C   UNL     1     -39.630  59.258 -50.920  1.00  0.00     0.075 C 
ENDBRANCH   5   8
ENDBRANCH   3   4
ENDBRANCH   1   3
BRANCH   1  16
HETATM   16  C   UNL     1     -41.872  54.626 -53.830  1.00  0.00     0.250 C 
HETATM   17  C   UNL     1     -43.077  54.283 -54.722  1.00  0.00     0.048 C 
BRANCH  16  18
HETATM   18  C   UNL     1     -41.033  53.445 -53.344  1.00  0.00    -0.011 A 
HETATM   19  C   UNL     1     -40.783  53.241 -51.959  1.00  0.00     0.056 A 
HETATM   20  C   UNL     1     -39.986  52.146 -51.560  1.00  0.00     0.017 A 
HETATM   21  C   UNL     1     -39.442  51.267 -52.493  1.00  0.00     0.001 A 
HETATM   22  C   UNL     1     -39.677  51.469 -53.846  1.00  0.00     0.001 A 
HETATM   23  C   UNL     1     -40.459  52.545 -54.265  1.00  0.00     0.010 A 
BRANCH  19  24
HETATM   24  C   UNL     1     -41.314  54.170 -50.883  1.00  0.00     0.418 C 
HETATM   25  F   UNL     1     -40.871  53.863 -49.631  1.00  0.00    -0.166 F 
HETATM   26  F   UNL     1     -40.941  55.471 -51.074  1.00  0.00    -0.166 F 
HETATM   27  F   UNL     1     -42.675  54.199 -50.812  1.00  0.00    -0.166 F 
ENDBRANCH  19  24
ENDBRANCH  16  18
ENDBRANCH   1  16
TORSDOF 6
ENDMDL
MODEL 8
REMARK VINA RESULT:      -7.5      2.312      3.439
REMARK  6 active torsions:
REMARK  status: ('A' for Active; 'I' for Inactive)
REMARK    1  A    between atoms: C_8  and  N_9 
REMARK       I    between atoms: N_9  and  C_10 
REMARK    2  A    between atoms: C_10  and  C_11 
REMARK    3  A    between atoms: C_11  and  N_12 
REMARK    4  A    between atoms: N_12  and  C_13 
REMARK    5  A    between atoms: C_13  and  C_14 
REMARK    6  A    between atoms: C_15  and  C_16 
ROOT
HETATM    1  N   UNL     1     -43.678  54.851 -53.505  1.00  0.00     0.100 N 
HETATM    2  H   UNL     1     -44.305  54.279 -54.075  1.00  0.00     0.317 HD
ENDROOT
BRANCH   1   3
HETATM    3  C   UNL     1     -43.986  56.273 -53.790  1.00  0.00     0.372 C 
BRANCH   3   4
HETATM    4  C   UNL     1     -43.944  57.108 -52.501  1.00  0.00     0.250 C 
HETATM    5  N   UNL     1     -43.150  58.228 -52.627  1.00  0.00    -0.322 N 
HETATM    6  H   UNL     1     -42.752  58.364 -53.553  1.00  0.00     0.169 HD
HETATM    7  O   UNL     1     -44.593  56.767 -51.518  1.00  0.00    -0.271 OA
BRANCH   5   8
HETATM    8  C   UNL     1     -42.823  59.155 -51.654  1.00  0.00     0.085 A 
HETATM    9  C   UNL     1     -41.709  58.997 -50.851  1.00  0.00     0.052 A 
HETATM   10  C   UNL     1     -40.663  57.948 -50.790  1.00  0.00     0.072 C 
HETATM   11  N   UNL     1     -41.697  60.070 -50.009  1.00  0.00    -0.280 N 
HETATM   12  H   UNL     1     -41.025  60.290 -49.282  1.00  0.00     0.189 HD
HETATM   13  N   UNL     1     -42.718  60.911 -50.192  1.00  0.00    -0.177 NA
HETATM   14  C   UNL     1     -43.421  60.369 -51.199  1.00  0.00     0.079 A 
HETATM   15  C   UNL     1     -44.647  61.072 -51.649  1.00  0.00     0.075 C 
ENDBRANCH   5   8
ENDBRANCH   3   4
ENDBRANCH   1   3
BRANCH   1  16
HETATM   16  C   UNL     1     -42.294  54.466 -53.838  1.00  0.00     0.250 C 
HETATM   17  C   UNL     1     -41.607  55.547 -54.691  1.00  0.00     0.048 C 
BRANCH  16  18
HETATM   18  C   UNL     1     -41.512  53.966 -52.623  1.00  0.00    -0.011 A 
HETATM   19  C   UNL     1     -40.582  52.897 -52.737  1.00  0.00     0.056 A 
HETATM   20  C   UNL     1     -39.898  52.457 -51.583  1.00  0.00     0.017 A 
HETATM   21  C   UNL     1     -40.116  53.048 -50.342  1.00  0.00     0.001 A 
HETATM   22  C   UNL     1     -41.030  54.086 -50.226  1.00  0.00     0.001 A 
HETATM   23  C   UNL     1     -41.721  54.537 -51.352  1.00  0.00     0.010 A 
BRANCH  19  24
HETATM   24  C   UNL     1     -40.309  52.181 -54.047  1.00  0.00     0.418 C 
HETATM   25  F   UNL     1     -39.865  53.006 -55.037  1.00  0.00    -0.166 F 
HETATM   26  F   UNL     1     -39.342  51.221 -53.935  1.00  0.00    -0.166 F 
HETATM   27  F   UNL     1     -41.397  51.530 -54.549  1.00  0.00    -0.166 F 
ENDBRANCH  19  24
ENDBRANCH  16  18
ENDBRANCH   1  16
TORSDOF 6
ENDMDL
MODEL 9
REMARK VINA RESULT:      -7.4      2.688      3.887
REMARK  6 active torsions:
REMARK  status: ('A' for Active; 'I' for Inactive)
REMARK    1  A    between atoms: C_8  and  N_9 
REMARK       I    between atoms: N_9  and  C_10 
REMARK    2  A    between atoms: C_10  and  C_11 
REMARK    3  A    between atoms: C_11  and  N_12 
REMARK    4  A    between atoms: N_12  and  C_13 
REMARK    5  A    between atoms: C_13  and  C_14 
REMARK    6  A    between atoms: C_15  and  C_16 
ROOT
HETATM    1  N   UNL     1     -40.990  55.842 -54.028  1.00  0.00     0.100 N 
HETATM    2  H   UNL     1     -40.432  56.274 -53.288  1.00  0.00     0.317 HD
ENDROOT
BRANCH   1   3
HETATM    3  C   UNL     1     -41.798  56.912 -54.663  1.00  0.00     0.372 C 
BRANCH   3   4
HETATM    4  C   UNL     1     -41.765  58.193 -53.816  1.00  0.00     0.250 C 
HETATM    5  N   UNL     1     -42.521  58.084 -52.669  1.00  0.00    -0.322 N 
HETATM    6  H   UNL     1     -42.947  57.171 -52.527  1.00  0.00     0.169 HD
HETATM    7  O   UNL     1     -41.094  59.156 -54.172  1.00  0.00    -0.271 OA
BRANCH   5   8
HETATM    8  C   UNL     1     -42.780  59.059 -51.722  1.00  0.00     0.085 A 
HETATM    9  C   UNL     1     -41.838  59.414 -50.775  1.00  0.00     0.052 A 
HETATM   10  C   UNL     1     -40.458  58.940 -50.512  1.00  0.00     0.072 C 
HETATM   11  N   UNL     1     -42.422  60.380 -50.008  1.00  0.00    -0.280 N 
HETATM   12  H   UNL     1     -42.028  60.875 -49.216  1.00  0.00     0.189 HD
HETATM   13  N   UNL     1     -43.671  60.678 -50.375  1.00  0.00    -0.177 NA
HETATM   14  C   UNL     1     -43.910  59.880 -51.427  1.00  0.00     0.079 A 
HETATM   15  C   UNL     1     -45.242  59.963 -52.075  1.00  0.00     0.075 C 
ENDBRANCH   5   8
ENDBRANCH   3   4
ENDBRANCH   1   3
BRANCH   1  16
HETATM   16  C   UNL     1     -41.800  54.775 -53.412  1.00  0.00     0.250 C 
HETATM   17  C   UNL     1     -43.161  54.633 -54.115  1.00  0.00     0.048 C 
BRANCH  16  18
HETATM   18  C   UNL     1     -41.011  53.483 -53.201  1.00  0.00    -0.011 A 
HETATM   19  C   UNL     1     -40.586  53.084 -51.904  1.00  0.00     0.056 A 
HETATM   20  C   UNL     1     -39.843  51.892 -51.762  1.00  0.00     0.017 A 
HETATM   21  C   UNL     1     -39.520  51.104 -52.863  1.00  0.00     0.001 A 
HETATM   22  C   UNL     1     -39.926  51.495 -54.131  1.00  0.00     0.001 A 
HETATM   23  C   UNL     1     -40.659  52.670 -54.297  1.00  0.00     0.010 A 
BRANCH  19  24
HETATM   24  C   UNL     1     -40.872  53.903 -50.658  1.00  0.00     0.418 C 
HETATM   25  F   UNL     1     -40.449  55.195 -50.746  1.00  0.00    -0.166 F 
HETATM   26  F   UNL     1     -42.207  53.992 -50.377  1.00  0.00    -0.166 F 
HETATM   27  F   UNL     1     -40.306  53.389 -49.529  1.00  0.00    -0.166 F 
ENDBRANCH  19  24
ENDBRANCH  16  18
ENDBRANCH   1  16
TORSDOF 6
ENDMDL
MODEL 10
REMARK VINA RESULT:      -7.4      3.145      5.026
REMARK  6 active torsions:
REMARK  status: ('A' for Active; 'I' for Inactive)
REMARK    1  A    between atoms: C_8  and  N_9 
REMARK       I    between atoms: N_9  and  C_10 
REMARK    2  A    between atoms: C_10  and  C_11 
REMARK    3  A    between atoms: C_11  and  N_12 
REMARK    4  A    between atoms: N_12  and  C_13 
REMARK    5  A    between atoms: C_13  and  C_14 
REMARK    6  A    between atoms: C_15  and  C_16 
ROOT
HETATM    1  N   UNL     1     -43.091  55.938 -53.347  1.00  0.00     0.100 N 
HETATM    2  H   UNL     1     -43.507  55.695 -52.445  1.00  0.00     0.317 HD
ENDROOT
BRANCH   1   3
HETATM    3  C   UNL     1     -43.653  55.015 -54.362  1.00  0.00     0.372 C 
BRANCH   3   4
HETATM    4  C   UNL     1     -43.011  55.262 -55.736  1.00  0.00     0.250 C 
HETATM    5  N   UNL     1     -43.597  56.313 -56.408  1.00  0.00    -0.322 N 
HETATM    6  H   UNL     1     -44.325  56.796 -55.887  1.00  0.00     0.169 HD
HETATM    7  O   UNL     1     -42.067  54.576 -56.113  1.00  0.00    -0.271 OA
BRANCH   5   8
HETATM    8  C   UNL     1     -43.328  56.762 -57.688  1.00  0.00     0.085 A 
HETATM    9  C   UNL     1     -42.754  57.999 -57.914  1.00  0.00     0.052 A 
HETATM   10  C   UNL     1     -42.304  59.074 -56.999  1.00  0.00     0.072 C 
HETATM   11  N   UNL     1     -42.644  58.120 -59.269  1.00  0.00    -0.280 N 
HETATM   12  H   UNL     1     -42.267  58.896 -59.801  1.00  0.00     0.189 HD
HETATM   13  N   UNL     1     -43.108  57.065 -59.945  1.00  0.00    -0.177 NA
HETATM   14  C   UNL     1     -43.531  56.219 -58.993  1.00  0.00     0.079 A 
HETATM   15  C   UNL     1     -44.121  54.927 -59.423  1.00  0.00     0.075 C 
ENDBRANCH   5   8
ENDBRANCH   3   4
ENDBRANCH   1   3
BRANCH   1  16
HETATM   16  C   UNL     1     -41.626  55.841 -53.204  1.00  0.00     0.250 C 
HETATM   17  C   UNL     1     -40.949  57.193 -53.489  1.00  0.00     0.048 C 
BRANCH  16  18
HETATM   18  C   UNL     1     -41.204  55.131 -51.918  1.00  0.00    -0.011 A 
HETATM   19  C   UNL     1     -40.636  53.829 -51.949  1.00  0.00     0.056 A 
HETATM   20  C   UNL     1     -40.279  53.207 -50.733  1.00  0.00     0.017 A 
HETATM   21  C   UNL     1     -40.474  53.842 -49.509  1.00  0.00     0.001 A 
HETATM   22  C   UNL     1     -41.038  55.110 -49.476  1.00  0.00     0.001 A 
HETATM   23  C   UNL     1     -41.400  55.744 -50.664  1.00  0.00     0.010 A 
BRANCH  19  24
HETATM   24  C   UNL     1     -40.418  53.058 -53.238  1.00  0.00     0.418 C 
HETATM   25  F   UNL     1     -41.571  52.595 -53.798  1.00  0.00    -0.166 F 
HETATM   26  F   UNL     1     -39.836  53.815 -54.217  1.00  0.00    -0.166 F 
HETATM   27  F   UNL     1     -39.600  51.977 -53.094  1.00  0.00    -0.166 F 
ENDBRANCH  19  24
ENDBRANCH  16  18
ENDBRANCH   1  16
TORSDOF 6
ENDMDL
