MODEL 1
REMARK VINA RESULT:      -7.1      0.000      0.000
REMARK  3 active torsions:
REMARK  status: ('A' for Active; 'I' for Inactive)
REMARK       I    between atoms: C_2  and  N_3 
REMARK    1  A    between atoms: N_3  and  C_4 
REMARK    2  A    between atoms: C_7  and  N_8 
REMARK       I    between atoms: N_8  and  C_9 
REMARK    3  A    between atoms: C_9  and  C_10 
ROOT
HETATM    1  C   UNL     1     -35.476  41.928 -56.974  1.00  0.00     0.034 A 
HETATM    2  C   UNL     1     -36.122  42.287 -55.786  1.00  0.00     0.032 A 
HETATM    3  C   UNL     1     -35.593  41.926 -54.541  1.00  0.00     0.032 A 
HETATM    4  C   UNL     1     -34.410  41.192 -54.461  1.00  0.00     0.035 A 
HETATM    5  C   UNL     1     -33.774  40.818 -55.649  1.00  0.00     0.032 A 
HETATM    6  C   UNL     1     -34.302  41.182 -56.894  1.00  0.00     0.032 A 
ENDROOT
BRANCH   4   7
HETATM    7  N   UNL     1     -33.785  40.825 -53.251  1.00  0.00    -0.323 N 
HETATM    8  C   UNL     1     -33.930  39.634 -52.562  1.00  0.00     0.257 C 
HETATM    9  O   UNL     1     -34.525  38.633 -52.944  1.00  0.00    -0.267 OA
HETATM   10  H   UNL     1     -33.137  41.506 -52.878  1.00  0.00     0.169 HD
BRANCH   8  11
HETATM   11  C   UNL     1     -33.265  39.582 -51.237  1.00  0.00     0.050 A 
HETATM   12  C   UNL     1     -31.927  39.954 -51.142  1.00  0.00     0.135 A 
HETATM   13  N   UNL     1     -31.215  39.933 -49.988  1.00  0.00    -0.248 NA
HETATM   14  C   UNL     1     -31.865  39.501 -48.889  1.00  0.00     0.125 A 
HETATM   15 CL   UNL     1     -30.926  39.479 -47.457  1.00  0.00    -0.063 Cl
HETATM   16  C   UNL     1     -33.189  39.089 -48.878  1.00  0.00     0.045 A 
HETATM   17  C   UNL     1     -33.901  39.127 -50.077  1.00  0.00     0.022 A 
ENDBRANCH   8  11
ENDBRANCH   4   7
BRANCH   1  18
HETATM   18  N   UNL     1     -36.059  42.360 -58.182  1.00  0.00    -0.328 N 
HETATM   19  C   UNL     1     -37.032  41.714 -58.926  1.00  0.00     0.218 C 
HETATM   20  C   UNL     1     -37.372  42.474 -60.184  1.00  0.00     0.117 C 
HETATM   21  O   UNL     1     -37.590  40.657 -58.656  1.00  0.00    -0.274 OA
HETATM   22  H   UNL     1     -35.710  43.234 -58.555  1.00  0.00     0.169 HD
ENDBRANCH   1  18
TORSDOF 3
ENDMDL
MODEL 2
REMARK VINA RESULT:      -7.0      3.714      8.673
REMARK  3 active torsions:
REMARK  status: ('A' for Active; 'I' for Inactive)
REMARK       I    between atoms: C_2  and  N_3 
REMARK    1  A    between atoms: N_3  and  C_4 
REMARK    2  A    between atoms: C_7  and  N_8 
REMARK       I    between atoms: N_8  and  C_9 
REMARK    3  A    between atoms: C_9  and  C_10 
ROOT
HETATM    1  C   UNL     1     -32.523  39.447 -49.674  1.00  0.00     0.034 A 
HETATM    2  C   UNL     1     -33.912  39.475 -49.830  1.00  0.00     0.032 A 
HETATM    3  C   UNL     1     -34.495  39.940 -51.016  1.00  0.00     0.032 A 
HETATM    4  C   UNL     1     -33.697  40.392 -52.066  1.00  0.00     0.035 A 
HETATM    5  C   UNL     1     -32.308  40.380 -51.902  1.00  0.00     0.032 A 
HETATM    6  C   UNL     1     -31.726  39.913 -50.718  1.00  0.00     0.032 A 
ENDROOT
BRANCH   4   7
HETATM    7  N   UNL     1     -34.197  40.834 -53.309  1.00  0.00    -0.323 N 
HETATM    8  C   UNL     1     -35.201  41.762 -53.524  1.00  0.00     0.257 C 
HETATM    9  O   UNL     1     -35.747  42.462 -52.680  1.00  0.00    -0.267 OA
HETATM   10  H   UNL     1     -33.737  40.445 -54.121  1.00  0.00     0.169 HD
BRANCH   8  11
HETATM   11  C   UNL     1     -35.624  41.923 -54.938  1.00  0.00     0.050 A 
HETATM   12  C   UNL     1     -36.978  41.835 -55.247  1.00  0.00     0.135 A 
HETATM   13  N   UNL     1     -37.477  41.953 -56.502  1.00  0.00    -0.248 NA
HETATM   14  C   UNL     1     -36.580  42.144 -57.489  1.00  0.00     0.125 A 
HETATM   15 CL   UNL     1     -37.251  42.274 -59.060  1.00  0.00    -0.063 Cl
HETATM   16  C   UNL     1     -35.210  42.226 -57.293  1.00  0.00     0.045 A 
HETATM   17  C   UNL     1     -34.723  42.109 -55.991  1.00  0.00     0.022 A 
ENDBRANCH   8  11
ENDBRANCH   4   7
BRANCH   1  18
HETATM   18  N   UNL     1     -32.019  38.934 -48.462  1.00  0.00    -0.328 N 
HETATM   19  C   UNL     1     -31.276  39.606 -47.507  1.00  0.00     0.218 C 
HETATM   20  C   UNL     1     -30.886  38.704 -46.363  1.00  0.00     0.117 C 
HETATM   21  O   UNL     1     -30.940  40.784 -47.525  1.00  0.00    -0.274 OA
HETATM   22  H   UNL     1     -32.210  37.956 -48.282  1.00  0.00     0.169 HD
ENDBRANCH   1  18
TORSDOF 3
ENDMDL
MODEL 3
REMARK VINA RESULT:      -6.9     16.779     18.369
REMARK  3 active torsions:
REMARK  status: ('A' for Active; 'I' for Inactive)
REMARK       I    between atoms: C_2  and  N_3 
REMARK    1  A    between atoms: N_3  and  C_4 
REMARK    2  A    between atoms: C_7  and  N_8 
REMARK       I    between atoms: N_8  and  C_9 
REMARK    3  A    between atoms: C_9  and  C_10 
ROOT
HETATM    1  C   UNL     1     -42.329  59.732 -50.735  1.00  0.00     0.034 A 
HETATM    2  C   UNL     1     -41.027  59.246 -50.579  1.00  0.00     0.032 A 
HETATM    3  C   UNL     1     -40.679  57.962 -51.018  1.00  0.00     0.032 A 
HETATM    4  C   UNL     1     -41.631  57.138 -51.617  1.00  0.00     0.035 A 
HETATM    5  C   UNL     1     -42.938  57.617 -51.755  1.00  0.00     0.032 A 
HETATM    6  C   UNL     1     -43.284  58.902 -51.319  1.00  0.00     0.032 A 
ENDROOT
BRANCH   4   7
HETATM    7  N   UNL     1     -41.357  55.852 -52.127  1.00  0.00    -0.323 N 
HETATM    8  C   UNL     1     -41.027  54.719 -51.405  1.00  0.00     0.257 C 
HETATM    9  O   UNL     1     -41.039  54.595 -50.186  1.00  0.00    -0.267 OA
HETATM   10  H   UNL     1     -41.450  55.758 -53.129  1.00  0.00     0.169 HD
BRANCH   8  11
HETATM   11  C   UNL     1     -40.645  53.537 -52.218  1.00  0.00     0.050 A 
HETATM   12  C   UNL     1     -39.942  52.502 -51.609  1.00  0.00     0.135 A 
HETATM   13  N   UNL     1     -39.531  51.383 -52.255  1.00  0.00    -0.248 NA
HETATM   14  C   UNL     1     -39.818  51.309 -53.570  1.00  0.00     0.125 A 
HETATM   15 CL   UNL     1     -39.269  49.886 -54.350  1.00  0.00    -0.063 Cl
HETATM   16  C   UNL     1     -40.494  52.291 -54.276  1.00  0.00     0.045 A 
HETATM   17  C   UNL     1     -40.913  53.429 -53.586  1.00  0.00     0.022 A 
ENDBRANCH   8  11
ENDBRANCH   4   7
BRANCH   1  18
HETATM   18  N   UNL     1     -42.586  61.046 -50.295  1.00  0.00    -0.328 N 
HETATM   19  C   UNL     1     -42.944  62.138 -51.067  1.00  0.00     0.218 C 
HETATM   20  C   UNL     1     -43.092  63.388 -50.236  1.00  0.00     0.117 C 
HETATM   21  O   UNL     1     -43.133  62.158 -52.277  1.00  0.00    -0.274 OA
HETATM   22  H   UNL     1     -42.476  61.210 -49.302  1.00  0.00     0.169 HD
ENDBRANCH   1  18
TORSDOF 3
ENDMDL
MODEL 4
REMARK VINA RESULT:      -6.9     14.564     17.756
REMARK  3 active torsions:
REMARK  status: ('A' for Active; 'I' for Inactive)
REMARK       I    between atoms: C_2  and  N_3 
REMARK    1  A    between atoms: N_3  and  C_4 
REMARK    2  A    between atoms: C_7  and  N_8 
REMARK       I    between atoms: N_8  and  C_9 
REMARK    3  A    between atoms: C_9  and  C_10 
ROOT
HETATM    1  C   UNL     1     -40.244  52.601 -52.845  1.00  0.00     0.034 A 
HETATM    2  C   UNL     1     -41.161  53.597 -52.496  1.00  0.00     0.032 A 
HETATM    3  C   UNL     1     -41.610  54.527 -53.442  1.00  0.00     0.032 A 
HETATM    4  C   UNL     1     -41.145  54.481 -54.755  1.00  0.00     0.035 A 
HETATM    5  C   UNL     1     -40.214  53.495 -55.100  1.00  0.00     0.032 A 
HETATM    6  C   UNL     1     -39.767  52.564 -54.154  1.00  0.00     0.032 A 
ENDROOT
BRANCH   4   7
HETATM    7  N   UNL     1     -41.578  55.348 -55.780  1.00  0.00    -0.323 N 
HETATM    8  C   UNL     1     -42.666  55.177 -56.616  1.00  0.00     0.257 C 
HETATM    9  O   UNL     1     -43.526  54.308 -56.534  1.00  0.00    -0.267 OA
HETATM   10  H   UNL     1     -41.042  56.200 -55.877  1.00  0.00     0.169 HD
BRANCH   8  11
HETATM   11  C   UNL     1     -42.795  56.179 -57.704  1.00  0.00     0.050 A 
HETATM   12  C   UNL     1     -42.542  57.517 -57.417  1.00  0.00     0.135 A 
HETATM   13  N   UNL     1     -42.641  58.518 -58.326  1.00  0.00    -0.248 NA
HETATM   14  C   UNL     1     -43.031  58.165 -59.567  1.00  0.00     0.125 A 
HETATM   15 CL   UNL     1     -43.155  59.462 -60.681  1.00  0.00    -0.063 Cl
HETATM   16  C   UNL     1     -43.326  56.867 -59.952  1.00  0.00     0.045 A 
HETATM   17  C   UNL     1     -43.209  55.854 -59.000  1.00  0.00     0.022 A 
ENDBRANCH   8  11
ENDBRANCH   4   7
BRANCH   1  18
HETATM   18  N   UNL     1     -39.869  51.686 -51.841  1.00  0.00    -0.328 N 
HETATM   19  C   UNL     1     -39.690  50.319 -51.971  1.00  0.00     0.218 C 
HETATM   20  C   UNL     1     -39.327  49.674 -50.657  1.00  0.00     0.117 C 
HETATM   21  O   UNL     1     -39.795  49.653 -52.994  1.00  0.00    -0.274 OA
HETATM   22  H   UNL     1     -39.736  52.074 -50.916  1.00  0.00     0.169 HD
ENDBRANCH   1  18
TORSDOF 3
ENDMDL
MODEL 5
REMARK VINA RESULT:      -6.8     16.739     18.367
REMARK  3 active torsions:
REMARK  status: ('A' for Active; 'I' for Inactive)
REMARK       I    between atoms: C_2  and  N_3 
REMARK    1  A    between atoms: N_3  and  C_4 
REMARK    2  A    between atoms: C_7  and  N_8 
REMARK       I    between atoms: N_8  and  C_9 
REMARK    3  A    between atoms: C_9  and  C_10 
ROOT
HETATM    1  C   UNL     1     -43.942  59.152 -51.157  1.00  0.00     0.034 A 
HETATM    2  C   UNL     1     -42.560  59.067 -51.356  1.00  0.00     0.032 A 
HETATM    3  C   UNL     1     -41.956  57.854 -51.712  1.00  0.00     0.032 A 
HETATM    4  C   UNL     1     -42.725  56.702 -51.871  1.00  0.00     0.035 A 
HETATM    5  C   UNL     1     -44.104  56.784 -51.655  1.00  0.00     0.032 A 
HETATM    6  C   UNL     1     -44.708  57.997 -51.301  1.00  0.00     0.032 A 
ENDROOT
BRANCH   4   7
HETATM    7  N   UNL     1     -42.206  55.453 -52.271  1.00  0.00    -0.323 N 
HETATM    8  C   UNL     1     -41.234  54.706 -51.629  1.00  0.00     0.257 C 
HETATM    9  O   UNL     1     -40.741  54.933 -50.531  1.00  0.00    -0.267 OA
HETATM   10  H   UNL     1     -42.627  55.058 -53.101  1.00  0.00     0.169 HD
BRANCH   8  11
HETATM   11  C   UNL     1     -40.777  53.497 -52.359  1.00  0.00     0.050 A 
HETATM   12  C   UNL     1     -39.964  52.582 -51.698  1.00  0.00     0.135 A 
HETATM   13  N   UNL     1     -39.477  51.452 -52.268  1.00  0.00    -0.248 NA
HETATM   14  C   UNL     1     -39.801  51.243 -53.559  1.00  0.00     0.125 A 
HETATM   15 CL   UNL     1     -39.155  49.811 -54.244  1.00  0.00    -0.063 Cl
HETATM   16  C   UNL     1     -40.586  52.100 -54.314  1.00  0.00     0.045 A 
HETATM   17  C   UNL     1     -41.081  53.252 -53.702  1.00  0.00     0.022 A 
ENDBRANCH   8  11
ENDBRANCH   4   7
BRANCH   1  18
HETATM   18  N   UNL     1     -44.471  60.417 -50.833  1.00  0.00    -0.328 N 
HETATM   19  C   UNL     1     -45.384  60.717 -49.836  1.00  0.00     0.218 C 
HETATM   20  C   UNL     1     -45.740  62.183 -49.824  1.00  0.00     0.117 C 
HETATM   21  O   UNL     1     -45.881  59.941 -49.029  1.00  0.00    -0.274 OA
HETATM   22  H   UNL     1     -44.160  61.189 -51.409  1.00  0.00     0.169 HD
ENDBRANCH   1  18
TORSDOF 3
ENDMDL
MODEL 6
REMARK VINA RESULT:      -6.7     14.911     16.796
REMARK  3 active torsions:
REMARK  status: ('A' for Active; 'I' for Inactive)
REMARK       I    between atoms: C_2  and  N_3 
REMARK    1  A    between atoms: N_3  and  C_4 
REMARK    2  A    between atoms: C_7  and  N_8 
REMARK       I    between atoms: N_8  and  C_9 
REMARK    3  A    between atoms: C_9  and  C_10 
ROOT
HETATM    1  C   UNL     1     -44.162  57.434 -57.413  1.00  0.00     0.034 A 
HETATM    2  C   UNL     1     -43.516  56.348 -58.011  1.00  0.00     0.032 A 
HETATM    3  C   UNL     1     -42.859  55.384 -57.235  1.00  0.00     0.032 A 
HETATM    4  C   UNL     1     -42.833  55.492 -55.846  1.00  0.00     0.035 A 
HETATM    5  C   UNL     1     -43.464  56.588 -55.249  1.00  0.00     0.032 A 
HETATM    6  C   UNL     1     -44.123  57.550 -56.024  1.00  0.00     0.032 A 
ENDROOT
BRANCH   4   7
HETATM    7  N   UNL     1     -42.235  54.545 -54.988  1.00  0.00    -0.323 N 
HETATM    8  C   UNL     1     -40.916  54.512 -54.569  1.00  0.00     0.257 C 
HETATM    9  O   UNL     1     -40.063  55.368 -54.763  1.00  0.00    -0.267 OA
HETATM   10  H   UNL     1     -42.861  53.841 -54.621  1.00  0.00     0.169 HD
BRANCH   8  11
HETATM   11  C   UNL     1     -40.530  53.312 -53.785  1.00  0.00     0.050 A 
HETATM   12  C   UNL     1     -40.393  53.428 -52.405  1.00  0.00     0.135 A 
HETATM   13  N   UNL     1     -40.032  52.405 -51.592  1.00  0.00    -0.248 NA
HETATM   14  C   UNL     1     -39.778  51.224 -52.189  1.00  0.00     0.125 A 
HETATM   15 CL   UNL     1     -39.313  49.962 -51.126  1.00  0.00    -0.063 Cl
HETATM   16  C   UNL     1     -39.865  51.006 -53.555  1.00  0.00     0.045 A 
HETATM   17  C   UNL     1     -40.245  52.073 -54.369  1.00  0.00     0.022 A 
ENDBRANCH   8  11
ENDBRANCH   4   7
BRANCH   1  18
HETATM   18  N   UNL     1     -44.826  58.340 -58.264  1.00  0.00    -0.328 N 
HETATM   19  C   UNL     1     -46.071  58.187 -58.850  1.00  0.00     0.218 C 
HETATM   20  C   UNL     1     -46.424  59.359 -59.731  1.00  0.00     0.117 C 
HETATM   21  O   UNL     1     -46.843  57.246 -58.713  1.00  0.00    -0.274 OA
HETATM   22  H   UNL     1     -44.323  59.190 -58.485  1.00  0.00     0.169 HD
ENDBRANCH   1  18
TORSDOF 3
ENDMDL
MODEL 7
REMARK VINA RESULT:      -6.6     16.891     18.822
REMARK  3 active torsions:
REMARK  status: ('A' for Active; 'I' for Inactive)
REMARK       I    between atoms: C_2  and  N_3 
REMARK    1  A    between atoms: N_3  and  C_4 
REMARK    2  A    between atoms: C_7  and  N_8 
REMARK       I    between atoms: N_8  and  C_9 
REMARK    3  A    between atoms: C_9  and  C_10 
ROOT
HETATM    1  C   UNL     1     -40.787  53.423 -54.047  1.00  0.00     0.034 A 
HETATM    2  C   UNL     1     -41.611  53.670 -52.945  1.00  0.00     0.032 A 
HETATM    3  C   UNL     1     -41.954  54.978 -52.579  1.00  0.00     0.032 A 
HETATM    4  C   UNL     1     -41.474  56.064 -53.308  1.00  0.00     0.035 A 
HETATM    5  C   UNL     1     -40.635  55.818 -54.400  1.00  0.00     0.032 A 
HETATM    6  C   UNL     1     -40.294  54.511 -54.767  1.00  0.00     0.032 A 
ENDROOT
BRANCH   4   7
HETATM    7  N   UNL     1     -41.805  57.409 -53.037  1.00  0.00    -0.323 N 
HETATM    8  C   UNL     1     -41.378  58.176 -51.968  1.00  0.00     0.257 C 
HETATM    9  O   UNL     1     -40.535  57.869 -51.134  1.00  0.00    -0.267 OA
HETATM   10  H   UNL     1     -42.391  57.855 -53.729  1.00  0.00     0.169 HD
BRANCH   8  11
HETATM   11  C   UNL     1     -42.006  59.516 -51.858  1.00  0.00     0.050 A 
HETATM   12  C   UNL     1     -42.345  60.197 -53.023  1.00  0.00     0.135 A 
HETATM   13  N   UNL     1     -42.910  61.429 -53.044  1.00  0.00    -0.248 NA
HETATM   14  C   UNL     1     -43.123  62.011 -51.847  1.00  0.00     0.125 A 
HETATM   15 CL   UNL     1     -43.826  63.572 -51.919  1.00  0.00    -0.063 Cl
HETATM   16  C   UNL     1     -42.805  61.431 -50.630  1.00  0.00     0.045 A 
HETATM   17  C   UNL     1     -42.232  60.159 -50.636  1.00  0.00     0.022 A 
ENDBRANCH   8  11
ENDBRANCH   4   7
BRANCH   1  18
HETATM   18  N   UNL     1     -40.518  52.077 -54.365  1.00  0.00    -0.328 N 
HETATM   19  C   UNL     1     -39.728  51.187 -53.659  1.00  0.00     0.218 C 
HETATM   20  C   UNL     1     -39.650  49.843 -54.339  1.00  0.00     0.117 C 
HETATM   21  O   UNL     1     -39.136  51.397 -52.606  1.00  0.00    -0.274 OA
HETATM   22  H   UNL     1     -40.938  51.731 -55.219  1.00  0.00     0.169 HD
ENDBRANCH   1  18
TORSDOF 3
ENDMDL
MODEL 8
REMARK VINA RESULT:      -6.3     15.253     18.287
REMARK  3 active torsions:
REMARK  status: ('A' for Active; 'I' for Inactive)
REMARK       I    between atoms: C_2  and  N_3 
REMARK    1  A    between atoms: N_3  and  C_4 
REMARK    2  A    between atoms: C_7  and  N_8 
REMARK       I    between atoms: N_8  and  C_9 
REMARK    3  A    between atoms: C_9  and  C_10 
ROOT
HETATM    1  C   UNL     1     -40.414  52.770 -53.067  1.00  0.00     0.034 A 
HETATM    2  C   UNL     1     -41.568  53.502 -52.772  1.00  0.00     0.032 A 
HETATM    3  C   UNL     1     -42.092  54.423 -53.689  1.00  0.00     0.032 A 
HETATM    4  C   UNL     1     -41.465  54.631 -54.917  1.00  0.00     0.035 A 
HETATM    5  C   UNL     1     -40.300  53.911 -55.204  1.00  0.00     0.032 A 
HETATM    6  C   UNL     1     -39.779  52.989 -54.287  1.00  0.00     0.032 A 
ENDROOT
BRANCH   4   7
HETATM    7  N   UNL     1     -41.948  55.503 -55.915  1.00  0.00    -0.323 N 
HETATM    8  C   UNL     1     -42.165  56.865 -55.801  1.00  0.00     0.257 C 
HETATM    9  O   UNL     1     -41.857  57.582 -54.857  1.00  0.00    -0.267 OA
HETATM   10  H   UNL     1     -42.115  55.076 -56.816  1.00  0.00     0.169 HD
BRANCH   8  11
HETATM   11  C   UNL     1     -42.820  57.503 -56.971  1.00  0.00     0.050 A 
HETATM   12  C   UNL     1     -43.059  56.736 -58.107  1.00  0.00     0.135 A 
HETATM   13  N   UNL     1     -43.637  57.215 -59.236  1.00  0.00    -0.248 NA
HETATM   14  C   UNL     1     -43.969  58.521 -59.233  1.00  0.00     0.125 A 
HETATM   15 CL   UNL     1     -44.685  59.088 -60.683  1.00  0.00    -0.063 Cl
HETATM   16  C   UNL     1     -43.757  59.377 -58.164  1.00  0.00     0.045 A 
HETATM   17  C   UNL     1     -43.167  58.857 -57.011  1.00  0.00     0.022 A 
ENDBRANCH   8  11
ENDBRANCH   4   7
BRANCH   1  18
HETATM   18  N   UNL     1     -39.974  51.841 -52.101  1.00  0.00    -0.328 N 
HETATM   19  C   UNL     1     -39.742  50.488 -52.279  1.00  0.00     0.218 C 
HETATM   20  C   UNL     1     -39.316  49.819 -50.996  1.00  0.00     0.117 C 
HETATM   21  O   UNL     1     -39.848  49.849 -53.319  1.00  0.00    -0.274 OA
HETATM   22  H   UNL     1     -39.831  52.206 -51.168  1.00  0.00     0.169 HD
ENDBRANCH   1  18
TORSDOF 3
ENDMDL
MODEL 9
REMARK VINA RESULT:      -6.2      3.796      8.546
REMARK  3 active torsions:
REMARK  status: ('A' for Active; 'I' for Inactive)
REMARK       I    between atoms: C_2  and  N_3 
REMARK    1  A    between atoms: N_3  and  C_4 
REMARK    2  A    between atoms: C_7  and  N_8 
REMARK       I    between atoms: N_8  and  C_9 
REMARK    3  A    between atoms: C_9  and  C_10 
ROOT
HETATM    1  C   UNL     1     -33.743  39.730 -50.282  1.00  0.00     0.034 A 
HETATM    2  C   UNL     1     -33.839  38.746 -51.271  1.00  0.00     0.032 A 
HETATM    3  C   UNL     1     -34.379  39.040 -52.530  1.00  0.00     0.032 A 
HETATM    4  C   UNL     1     -34.838  40.324 -52.820  1.00  0.00     0.035 A 
HETATM    5  C   UNL     1     -34.758  41.303 -51.824  1.00  0.00     0.032 A 
HETATM    6  C   UNL     1     -34.217  41.010 -50.567  1.00  0.00     0.032 A 
ENDROOT
BRANCH   4   7
HETATM    7  N   UNL     1     -35.353  40.717 -54.073  1.00  0.00    -0.323 N 
HETATM    8  C   UNL     1     -36.677  40.699 -54.475  1.00  0.00     0.257 C 
HETATM    9  O   UNL     1     -37.654  40.462 -53.776  1.00  0.00    -0.267 OA
HETATM   10  H   UNL     1     -34.671  41.081 -54.724  1.00  0.00     0.169 HD
BRANCH   8  11
HETATM   11  C   UNL     1     -36.910  41.029 -55.904  1.00  0.00     0.050 A 
HETATM   12  C   UNL     1     -35.939  41.748 -56.594  1.00  0.00     0.135 A 
HETATM   13  N   UNL     1     -36.051  42.116 -57.894  1.00  0.00    -0.248 NA
HETATM   14  C   UNL     1     -37.192  41.768 -58.521  1.00  0.00     0.125 A 
HETATM   15 CL   UNL     1     -37.297  42.263 -60.158  1.00  0.00    -0.063 Cl
HETATM   16  C   UNL     1     -38.229  41.070 -57.921  1.00  0.00     0.045 A 
HETATM   17  C   UNL     1     -38.086  40.697 -56.585  1.00  0.00     0.022 A 
ENDBRANCH   8  11
ENDBRANCH   4   7
BRANCH   1  18
HETATM   18  N   UNL     1     -33.158  39.359 -49.055  1.00  0.00    -0.328 N 
HETATM   19  C   UNL     1     -31.822  39.436 -48.701  1.00  0.00     0.218 C 
HETATM   20  C   UNL     1     -31.578  38.904 -47.311  1.00  0.00     0.117 C 
HETATM   21  O   UNL     1     -30.900  39.872 -49.381  1.00  0.00    -0.274 OA
HETATM   22  H   UNL     1     -33.788  38.973 -48.362  1.00  0.00     0.169 HD
ENDBRANCH   1  18
TORSDOF 3
ENDMDL
MODEL 10
REMARK VINA RESULT:      -6.2     15.368     17.002
REMARK  3 active torsions:
REMARK  status: ('A' for Active; 'I' for Inactive)
REMARK       I    between atoms: C_2  and  N_3 
REMARK    1  A    between atoms: N_3  and  C_4 
REMARK    2  A    between atoms: C_7  and  N_8 
REMARK       I    between atoms: N_8  and  C_9 
REMARK    3  A    between atoms: C_9  and  C_10 
ROOT
HETATM    1  C   UNL     1     -43.092  58.469 -55.533  1.00  0.00     0.034 A 
HETATM    2  C   UNL     1     -43.564  57.218 -55.941  1.00  0.00     0.032 A 
HETATM    3  C   UNL     1     -43.030  56.037 -55.409  1.00  0.00     0.032 A 
HETATM    4  C   UNL     1     -42.007  56.087 -54.464  1.00  0.00     0.035 A 
HETATM    5  C   UNL     1     -41.522  57.338 -54.069  1.00  0.00     0.032 A 
HETATM    6  C   UNL     1     -42.059  58.518 -54.599  1.00  0.00     0.032 A 
ENDROOT
BRANCH   4   7
HETATM    7  N   UNL     1     -41.443  54.952 -53.845  1.00  0.00    -0.323 N 
HETATM    8  C   UNL     1     -40.593  54.022 -54.419  1.00  0.00     0.257 C 
HETATM    9  O   UNL     1     -40.074  54.087 -55.526  1.00  0.00    -0.267 OA
HETATM   10  H   UNL     1     -41.668  54.839 -52.866  1.00  0.00     0.169 HD
BRANCH   8  11
HETATM   11  C   UNL     1     -40.275  52.846 -53.571  1.00  0.00     0.050 A 
HETATM   12  C   UNL     1     -40.143  53.024 -52.198  1.00  0.00     0.135 A 
HETATM   13  N   UNL     1     -39.842  52.026 -51.330  1.00  0.00    -0.248 NA
HETATM   14  C   UNL     1     -39.643  50.805 -51.865  1.00  0.00     0.125 A 
HETATM   15 CL   UNL     1     -39.252  49.577 -50.736  1.00  0.00    -0.063 Cl
HETATM   16  C   UNL     1     -39.729  50.524 -53.220  1.00  0.00     0.045 A 
HETATM   17  C   UNL     1     -40.048  51.567 -54.090  1.00  0.00     0.022 A 
ENDBRANCH   8  11
ENDBRANCH   4   7
BRANCH   1  18
HETATM   18  N   UNL     1     -43.707  59.606 -56.094  1.00  0.00    -0.328 N 
HETATM   19  C   UNL     1     -44.757  60.339 -55.569  1.00  0.00     0.218 C 
HETATM   20  C   UNL     1     -45.166  61.467 -56.484  1.00  0.00     0.117 C 
HETATM   21  O   UNL     1     -45.331  60.153 -54.503  1.00  0.00    -0.274 OA
HETATM   22  H   UNL     1     -43.349  59.906 -56.992  1.00  0.00     0.169 HD
ENDBRANCH   1  18
TORSDOF 3
ENDMDL
