MODEL 1
REMARK VINA RESULT:      -8.2      0.000      0.000
REMARK  9 active torsions:
REMARK  status: ('A' for Active; 'I' for Inactive)
REMARK    1  A    between atoms: C_2  and  N_3 
REMARK    2  A    between atoms: N_3  and  C_4 
REMARK    3  A    between atoms: N_3  and  C_32 
REMARK    4  A    between atoms: C_7  and  C_8 
REMARK       I    between atoms: C_8  and  N_9 
REMARK    5  A    between atoms: N_9  and  C_10 
REMARK    6  A    between atoms: C_10  and  N_11 
REMARK    7  A    between atoms: N_11  and  C_12 
REMARK    8  A    between atoms: C_14  and  C_15 
REMARK    9  A    between atoms: C_24  and  O_25 
ROOT
HETATM    1  N   UNL     1     -42.806  59.815 -53.408  1.00  0.00    -0.337 N 
HETATM    2  H   UNL     1     -42.729  60.130 -52.444  1.00  0.00     0.168 HD
ENDROOT
BRANCH   1   3
HETATM    3  C   UNL     1     -42.488  60.781 -54.336  1.00  0.00     0.157 C 
HETATM    4  S   UNL     1     -43.011  62.342 -54.051  1.00  0.00    -0.047 SA
BRANCH   3   5
HETATM    5  N   UNL     1     -41.671  60.355 -55.368  1.00  0.00    -0.201 NA
HETATM    6  C   UNL     1     -41.999  60.393 -56.711  1.00  0.00     0.237 C 
HETATM    7  O   UNL     1     -41.465  61.219 -57.448  1.00  0.00    -0.274 OA
HETATM    8  H   UNL     1     -40.785  60.837 -55.260  1.00  0.00     0.139 HD
BRANCH   6   9
HETATM    9  C   UNL     1     -42.897  59.342 -57.267  1.00  0.00     0.026 A 
HETATM   10  C   UNL     1     -44.145  59.734 -57.753  1.00  0.00     0.019 A 
HETATM   11  C   UNL     1     -44.976  58.816 -58.410  1.00  0.00     0.030 A 
HETATM   12  C   UNL     1     -44.587  57.485 -58.628  1.00  0.00     0.030 A 
HETATM   13  C   UNL     1     -43.349  57.104 -58.073  1.00  0.00     0.030 A 
HETATM   14  C   UNL     1     -42.506  58.012 -57.412  1.00  0.00     0.019 A 
BRANCH  12  15
HETATM   15  N   UNL     1     -45.370  56.570 -59.335  1.00  0.00    -0.382 N 
BRANCH  15  16
HETATM   16  C   UNL     1     -44.697  55.713 -60.326  1.00  0.00     0.118 C 
HETATM   17  C   UNL     1     -44.568  54.294 -59.792  1.00  0.00     0.026 C 
ENDBRANCH  15  16
BRANCH  15  18
HETATM   18  C   UNL     1     -46.795  56.830 -59.600  1.00  0.00     0.118 C 
HETATM   19  C   UNL     1     -47.171  56.432 -61.019  1.00  0.00     0.026 C 
ENDBRANCH  15  18
ENDBRANCH  12  15
ENDBRANCH   6   9
ENDBRANCH   3   5
ENDBRANCH   1   3
BRANCH   1  20
HETATM   20  C   UNL     1     -43.266  58.494 -53.597  1.00  0.00     0.035 A 
HETATM   21  C   UNL     1     -42.525  57.371 -53.204  1.00  0.00     0.046 A 
HETATM   22  C   UNL     1     -42.969  56.060 -53.471  1.00  0.00     0.035 A 
HETATM   23  C   UNL     1     -44.211  55.921 -54.118  1.00  0.00     0.078 A 
HETATM   24  C   UNL     1     -44.954  57.031 -54.518  1.00  0.00     0.040 A 
HETATM   25  C   UNL     1     -44.469  58.317 -54.280  1.00  0.00     0.032 A 
BRANCH  22  26
HETATM   26  C   UNL     1     -42.154  54.865 -53.155  1.00  0.00     0.112 A 
HETATM   27  S   UNL     1     -41.517  54.562 -51.584  1.00  0.00    -0.067 SA
HETATM   28  C   UNL     1     -40.675  53.184 -52.169  1.00  0.00     0.035 A 
HETATM   29  C   UNL     1     -40.970  53.015 -53.521  1.00  0.00     0.075 A 
HETATM   30  C   UNL     1     -39.810  52.317 -51.482  1.00  0.00     0.021 A 
HETATM   31  N   UNL     1     -41.825  53.961 -54.063  1.00  0.00    -0.239 NA
HETATM   32  C   UNL     1     -40.381  51.937 -54.213  1.00  0.00     0.033 A 
HETATM   33  C   UNL     1     -39.511  51.071 -53.541  1.00  0.00     0.002 A 
HETATM   34  C   UNL     1     -39.230  51.262 -52.192  1.00  0.00     0.002 A 
ENDBRANCH  22  26
BRANCH  23  35
HETATM   35  O   UNL     1     -44.763  54.702 -54.421  1.00  0.00    -0.360 OA
HETATM   36  H   UNL     1     -44.458  54.448 -55.320  1.00  0.00     0.217 HD
ENDBRANCH  23  35
ENDBRANCH   1  20
TORSDOF 9
ENDMDL
MODEL 2
REMARK VINA RESULT:      -7.5      2.545      7.402
REMARK  9 active torsions:
REMARK  status: ('A' for Active; 'I' for Inactive)
REMARK    1  A    between atoms: C_2  and  N_3 
REMARK    2  A    between atoms: N_3  and  C_4 
REMARK    3  A    between atoms: N_3  and  C_32 
REMARK    4  A    between atoms: C_7  and  C_8 
REMARK       I    between atoms: C_8  and  N_9 
REMARK    5  A    between atoms: N_9  and  C_10 
REMARK    6  A    between atoms: C_10  and  N_11 
REMARK    7  A    between atoms: N_11  and  C_12 
REMARK    8  A    between atoms: C_14  and  C_15 
REMARK    9  A    between atoms: C_24  and  O_25 
ROOT
HETATM    1  N   UNL     1     -41.936  59.006 -52.703  1.00  0.00    -0.337 N 
HETATM    2  H   UNL     1     -41.195  59.697 -52.610  1.00  0.00     0.168 HD
ENDROOT
BRANCH   1   3
HETATM    3  C   UNL     1     -42.968  59.174 -51.808  1.00  0.00     0.157 C 
HETATM    4  S   UNL     1     -42.922  60.506 -50.801  1.00  0.00    -0.047 SA
BRANCH   3   5
HETATM    5  N   UNL     1     -43.994  58.252 -51.916  1.00  0.00    -0.201 NA
HETATM    6  C   UNL     1     -44.207  57.192 -51.054  1.00  0.00     0.237 C 
HETATM    7  O   UNL     1     -45.147  57.227 -50.263  1.00  0.00    -0.274 OA
HETATM    8  H   UNL     1     -44.859  58.779 -51.967  1.00  0.00     0.139 HD
BRANCH   6   9
HETATM    9  C   UNL     1     -43.372  55.967 -51.193  1.00  0.00     0.026 A 
HETATM   10  C   UNL     1     -43.662  55.088 -52.239  1.00  0.00     0.019 A 
HETATM   11  C   UNL     1     -42.829  53.993 -52.503  1.00  0.00     0.030 A 
HETATM   12  C   UNL     1     -41.668  53.745 -51.755  1.00  0.00     0.030 A 
HETATM   13  C   UNL     1     -41.434  54.612 -50.670  1.00  0.00     0.030 A 
HETATM   14  C   UNL     1     -42.260  55.714 -50.392  1.00  0.00     0.019 A 
BRANCH  12  15
HETATM   15  N   UNL     1     -40.789  52.697 -52.039  1.00  0.00    -0.382 N 
BRANCH  15  16
HETATM   16  C   UNL     1     -39.826  52.307 -50.994  1.00  0.00     0.118 C 
HETATM   17  C   UNL     1     -40.386  51.162 -50.164  1.00  0.00     0.026 C 
ENDBRANCH  15  16
BRANCH  15  18
HETATM   18  C   UNL     1     -40.361  52.414 -53.419  1.00  0.00     0.118 C 
HETATM   19  C   UNL     1     -39.798  51.006 -53.542  1.00  0.00     0.026 C 
ENDBRANCH  15  18
ENDBRANCH  12  15
ENDBRANCH   6   9
ENDBRANCH   3   5
ENDBRANCH   1   3
BRANCH   1  20
HETATM   20  C   UNL     1     -41.734  58.004 -53.675  1.00  0.00     0.035 A 
HETATM   21  C   UNL     1     -42.477  57.941 -54.862  1.00  0.00     0.046 A 
HETATM   22  C   UNL     1     -42.311  56.888 -55.784  1.00  0.00     0.035 A 
HETATM   23  C   UNL     1     -41.339  55.917 -55.484  1.00  0.00     0.078 A 
HETATM   24  C   UNL     1     -40.597  55.967 -54.304  1.00  0.00     0.040 A 
HETATM   25  C   UNL     1     -40.813  56.996 -53.388  1.00  0.00     0.032 A 
BRANCH  22  26
HETATM   26  C   UNL     1     -43.157  56.748 -56.993  1.00  0.00     0.112 A 
HETATM   27  S   UNL     1     -44.522  57.753 -57.293  1.00  0.00    -0.067 SA
HETATM   28  C   UNL     1     -44.914  56.837 -58.692  1.00  0.00     0.035 A 
HETATM   29  C   UNL     1     -43.949  55.847 -58.868  1.00  0.00     0.075 A 
HETATM   30  C   UNL     1     -46.001  56.981 -59.569  1.00  0.00     0.021 A 
HETATM   31  N   UNL     1     -42.947  55.819 -57.910  1.00  0.00    -0.239 NA
HETATM   32  C   UNL     1     -44.071  54.968 -59.964  1.00  0.00     0.033 A 
HETATM   33  C   UNL     1     -45.155  55.096 -60.840  1.00  0.00     0.002 A 
HETATM   34  C   UNL     1     -46.107  56.091 -60.642  1.00  0.00     0.002 A 
ENDBRANCH  22  26
BRANCH  23  35
HETATM   35  O   UNL     1     -41.068  54.850 -56.304  1.00  0.00    -0.360 OA
HETATM   36  H   UNL     1     -41.221  54.027 -55.790  1.00  0.00     0.217 HD
ENDBRANCH  23  35
ENDBRANCH   1  20
TORSDOF 9
ENDMDL
MODEL 3
REMARK VINA RESULT:      -7.4      2.533      5.036
REMARK  9 active torsions:
REMARK  status: ('A' for Active; 'I' for Inactive)
REMARK    1  A    between atoms: C_2  and  N_3 
REMARK    2  A    between atoms: N_3  and  C_4 
REMARK    3  A    between atoms: N_3  and  C_32 
REMARK    4  A    between atoms: C_7  and  C_8 
REMARK       I    between atoms: C_8  and  N_9 
REMARK    5  A    between atoms: N_9  and  C_10 
REMARK    6  A    between atoms: C_10  and  N_11 
REMARK    7  A    between atoms: N_11  and  C_12 
REMARK    8  A    between atoms: C_14  and  C_15 
REMARK    9  A    between atoms: C_24  and  O_25 
ROOT
HETATM    1  N   UNL     1     -43.958  57.948 -57.683  1.00  0.00    -0.337 N 
HETATM    2  H   UNL     1     -44.806  57.782 -58.219  1.00  0.00     0.168 HD
ENDROOT
BRANCH   1   3
HETATM    3  C   UNL     1     -42.955  58.556 -58.405  1.00  0.00     0.157 C 
HETATM    4  S   UNL     1     -42.128  57.633 -59.525  1.00  0.00    -0.047 SA
BRANCH   3   5
HETATM    5  N   UNL     1     -42.812  59.914 -58.181  1.00  0.00    -0.201 NA
HETATM    6  C   UNL     1     -41.930  60.484 -57.282  1.00  0.00     0.237 C 
HETATM    7  O   UNL     1     -40.930  61.070 -57.693  1.00  0.00    -0.274 OA
HETATM    8  H   UNL     1     -42.643  60.344 -59.084  1.00  0.00     0.139 HD
BRANCH   6   9
HETATM    9  C   UNL     1     -42.278  60.495 -55.833  1.00  0.00     0.026 A 
HETATM   10  C   UNL     1     -43.402  61.219 -55.433  1.00  0.00     0.019 A 
HETATM   11  C   UNL     1     -43.859  61.155 -54.110  1.00  0.00     0.030 A 
HETATM   12  C   UNL     1     -43.231  60.353 -53.144  1.00  0.00     0.030 A 
HETATM   13  C   UNL     1     -42.065  59.682 -53.562  1.00  0.00     0.030 A 
HETATM   14  C   UNL     1     -41.595  59.736 -54.885  1.00  0.00     0.019 A 
BRANCH  12  15
HETATM   15  N   UNL     1     -43.704  60.225 -51.836  1.00  0.00    -0.382 N 
BRANCH  15  16
HETATM   16  C   UNL     1     -45.161  60.277 -51.626  1.00  0.00     0.118 C 
HETATM   17  C   UNL     1     -45.628  59.036 -50.879  1.00  0.00     0.026 C 
ENDBRANCH  15  16
BRANCH  15  18
HETATM   18  C   UNL     1     -42.891  60.655 -50.687  1.00  0.00     0.118 C 
HETATM   19  C   UNL     1     -43.213  62.090 -50.293  1.00  0.00     0.026 C 
ENDBRANCH  15  18
ENDBRANCH  12  15
ENDBRANCH   6   9
ENDBRANCH   3   5
ENDBRANCH   1   3
BRANCH   1  20
HETATM   20  C   UNL     1     -43.960  57.484 -56.350  1.00  0.00     0.035 A 
HETATM   21  C   UNL     1     -43.010  56.576 -55.863  1.00  0.00     0.046 A 
HETATM   22  C   UNL     1     -43.076  56.068 -54.550  1.00  0.00     0.035 A 
HETATM   23  C   UNL     1     -44.118  56.539 -53.730  1.00  0.00     0.078 A 
HETATM   24  C   UNL     1     -45.072  57.439 -54.206  1.00  0.00     0.040 A 
HETATM   25  C   UNL     1     -45.007  57.891 -55.523  1.00  0.00     0.032 A 
BRANCH  22  26
HETATM   26  C   UNL     1     -42.143  55.033 -54.050  1.00  0.00     0.112 A 
HETATM   27  S   UNL     1     -41.328  53.933 -55.095  1.00  0.00    -0.067 SA
HETATM   28  C   UNL     1     -40.668  53.105 -53.742  1.00  0.00     0.035 A 
HETATM   29  C   UNL     1     -41.077  53.750 -52.575  1.00  0.00     0.075 A 
HETATM   30  C   UNL     1     -39.852  51.963 -53.714  1.00  0.00     0.021 A 
HETATM   31  N   UNL     1     -41.895  54.853 -52.763  1.00  0.00    -0.239 NA
HETATM   32  C   UNL     1     -40.651  53.237 -51.333  1.00  0.00     0.033 A 
HETATM   33  C   UNL     1     -39.844  52.095 -51.292  1.00  0.00     0.002 A 
HETATM   34  C   UNL     1     -39.452  51.467 -52.470  1.00  0.00     0.002 A 
ENDBRANCH  22  26
BRANCH  23  35
HETATM   35  O   UNL     1     -44.287  56.137 -52.429  1.00  0.00    -0.360 OA
HETATM   36  H   UNL     1     -44.188  56.927 -51.853  1.00  0.00     0.217 HD
ENDBRANCH  23  35
ENDBRANCH   1  20
TORSDOF 9
ENDMDL
MODEL 4
REMARK VINA RESULT:      -7.3      1.962      2.716
REMARK  9 active torsions:
REMARK  status: ('A' for Active; 'I' for Inactive)
REMARK    1  A    between atoms: C_2  and  N_3 
REMARK    2  A    between atoms: N_3  and  C_4 
REMARK    3  A    between atoms: N_3  and  C_32 
REMARK    4  A    between atoms: C_7  and  C_8 
REMARK       I    between atoms: C_8  and  N_9 
REMARK    5  A    between atoms: N_9  and  C_10 
REMARK    6  A    between atoms: C_10  and  N_11 
REMARK    7  A    between atoms: N_11  and  C_12 
REMARK    8  A    between atoms: C_14  and  C_15 
REMARK    9  A    between atoms: C_24  and  O_25 
ROOT
HETATM    1  N   UNL     1     -43.513  57.883 -52.977  1.00  0.00    -0.337 N 
HETATM    2  H   UNL     1     -44.458  57.511 -53.027  1.00  0.00     0.168 HD
ENDROOT
BRANCH   1   3
HETATM    3  C   UNL     1     -43.337  59.050 -53.687  1.00  0.00     0.157 C 
HETATM    4  S   UNL     1     -44.368  60.324 -53.365  1.00  0.00    -0.047 SA
BRANCH   3   5
HETATM    5  N   UNL     1     -42.242  59.062 -54.533  1.00  0.00    -0.201 NA
HETATM    6  C   UNL     1     -42.247  59.526 -55.836  1.00  0.00     0.237 C 
HETATM    7  O   UNL     1     -41.696  60.591 -56.107  1.00  0.00    -0.274 OA
HETATM    8  H   UNL     1     -41.497  59.545 -54.043  1.00  0.00     0.139 HD
BRANCH   6   9
HETATM    9  C   UNL     1     -42.805  58.659 -56.911  1.00  0.00     0.026 A 
HETATM   10  C   UNL     1     -42.628  57.279 -56.800  1.00  0.00     0.019 A 
HETATM   11  C   UNL     1     -43.246  56.405 -57.705  1.00  0.00     0.030 A 
HETATM   12  C   UNL     1     -44.078  56.868 -58.735  1.00  0.00     0.030 A 
HETATM   13  C   UNL     1     -44.188  58.267 -58.859  1.00  0.00     0.030 A 
HETATM   14  C   UNL     1     -43.576  59.156 -57.960  1.00  0.00     0.019 A 
BRANCH  12  15
HETATM   15  N   UNL     1     -44.754  56.015 -59.610  1.00  0.00    -0.382 N 
BRANCH  15  16
HETATM   16  C   UNL     1     -44.064  54.786 -60.039  1.00  0.00     0.118 C 
HETATM   17  C   UNL     1     -44.760  53.563 -59.462  1.00  0.00     0.026 C 
ENDBRANCH  15  16
BRANCH  15  18
HETATM   18  C   UNL     1     -45.756  56.532 -60.557  1.00  0.00     0.118 C 
HETATM   19  C   UNL     1     -47.159  56.450 -59.972  1.00  0.00     0.026 C 
ENDBRANCH  15  18
ENDBRANCH  12  15
ENDBRANCH   6   9
ENDBRANCH   3   5
ENDBRANCH   1   3
BRANCH   1  20
HETATM   20  C   UNL     1     -42.578  57.116 -52.249  1.00  0.00     0.035 A 
HETATM   21  C   UNL     1     -42.047  55.913 -52.734  1.00  0.00     0.046 A 
HETATM   22  C   UNL     1     -41.172  55.125 -51.958  1.00  0.00     0.035 A 
HETATM   23  C   UNL     1     -40.821  55.615 -50.687  1.00  0.00     0.078 A 
HETATM   24  C   UNL     1     -41.347  56.808 -50.194  1.00  0.00     0.040 A 
HETATM   25  C   UNL     1     -42.246  57.545 -50.965  1.00  0.00     0.032 A 
BRANCH  22  26
HETATM   26  C   UNL     1     -40.681  53.803 -52.410  1.00  0.00     0.112 A 
HETATM   27  S   UNL     1     -40.586  53.365 -54.073  1.00  0.00    -0.067 SA
HETATM   28  C   UNL     1     -40.108  51.771 -53.646  1.00  0.00     0.035 A 
HETATM   29  C   UNL     1     -40.006  51.686 -52.259  1.00  0.00     0.075 A 
HETATM   30  C   UNL     1     -39.847  50.672 -54.480  1.00  0.00     0.021 A 
HETATM   31  N   UNL     1     -40.313  52.849 -51.570  1.00  0.00    -0.239 NA
HETATM   32  C   UNL     1     -39.625  50.458 -51.681  1.00  0.00     0.033 A 
HETATM   33  C   UNL     1     -39.371  49.353 -52.501  1.00  0.00     0.002 A 
HETATM   34  C   UNL     1     -39.482  49.462 -53.883  1.00  0.00     0.002 A 
ENDBRANCH  22  26
BRANCH  23  35
HETATM   35  O   UNL     1     -39.968  54.953 -49.839  1.00  0.00    -0.360 OA
HETATM   36  H   UNL     1     -39.053  55.073 -50.178  1.00  0.00     0.217 HD
ENDBRANCH  23  35
ENDBRANCH   1  20
TORSDOF 9
ENDMDL
MODEL 5
REMARK VINA RESULT:      -7.3      2.275      7.896
REMARK  9 active torsions:
REMARK  status: ('A' for Active; 'I' for Inactive)
REMARK    1  A    between atoms: C_2  and  N_3 
REMARK    2  A    between atoms: N_3  and  C_4 
REMARK    3  A    between atoms: N_3  and  C_32 
REMARK    4  A    between atoms: C_7  and  C_8 
REMARK       I    between atoms: C_8  and  N_9 
REMARK    5  A    between atoms: N_9  and  C_10 
REMARK    6  A    between atoms: C_10  and  N_11 
REMARK    7  A    between atoms: N_11  and  C_12 
REMARK    8  A    between atoms: C_14  and  C_15 
REMARK    9  A    between atoms: C_24  and  O_25 
ROOT
HETATM    1  N   UNL     1     -43.017  59.558 -53.825  1.00  0.00    -0.337 N 
HETATM    2  H   UNL     1     -42.527  60.441 -53.944  1.00  0.00     0.168 HD
ENDROOT
BRANCH   1   3
HETATM    3  C   UNL     1     -43.608  59.412 -52.590  1.00  0.00     0.157 C 
HETATM    4  S   UNL     1     -43.311  60.584 -51.437  1.00  0.00    -0.047 SA
BRANCH   3   5
HETATM    5  N   UNL     1     -44.474  58.339 -52.477  1.00  0.00    -0.201 NA
HETATM    6  C   UNL     1     -44.403  57.355 -51.508  1.00  0.00     0.237 C 
HETATM    7  O   UNL     1     -45.231  57.331 -50.600  1.00  0.00    -0.274 OA
HETATM    8  H   UNL     1     -45.414  58.721 -52.452  1.00  0.00     0.139 HD
BRANCH   6   9
HETATM    9  C   UNL     1     -43.401  56.263 -51.657  1.00  0.00     0.026 A 
HETATM   10  C   UNL     1     -43.705  55.206 -52.517  1.00  0.00     0.019 A 
HETATM   11  C   UNL     1     -42.750  54.222 -52.804  1.00  0.00     0.030 A 
HETATM   12  C   UNL     1     -41.454  54.265 -52.267  1.00  0.00     0.030 A 
HETATM   13  C   UNL     1     -41.196  55.308 -51.356  1.00  0.00     0.030 A 
HETATM   14  C   UNL     1     -42.143  56.302 -51.059  1.00  0.00     0.019 A 
BRANCH  12  15
HETATM   15  N   UNL     1     -40.465  53.331 -52.587  1.00  0.00    -0.382 N 
BRANCH  15  16
HETATM   16  C   UNL     1     -40.516  52.709 -53.921  1.00  0.00     0.118 C 
HETATM   17  C   UNL     1     -40.069  53.705 -54.981  1.00  0.00     0.026 C 
ENDBRANCH  15  16
BRANCH  15  18
HETATM   18  C   UNL     1     -39.819  52.518 -51.543  1.00  0.00     0.118 C 
HETATM   19  C   UNL     1     -39.481  51.127 -52.061  1.00  0.00     0.026 C 
ENDBRANCH  15  18
ENDBRANCH  12  15
ENDBRANCH   6   9
ENDBRANCH   3   5
ENDBRANCH   1   3
BRANCH   1  20
HETATM   20  C   UNL     1     -42.949  58.656 -54.909  1.00  0.00     0.035 A 
HETATM   21  C   UNL     1     -43.780  58.761 -56.033  1.00  0.00     0.046 A 
HETATM   22  C   UNL     1     -43.747  57.806 -57.069  1.00  0.00     0.035 A 
HETATM   23  C   UNL     1     -42.817  56.758 -56.948  1.00  0.00     0.078 A 
HETATM   24  C   UNL     1     -41.989  56.641 -55.832  1.00  0.00     0.040 A 
HETATM   25  C   UNL     1     -42.074  57.576 -54.801  1.00  0.00     0.032 A 
BRANCH  22  26
HETATM   26  C   UNL     1     -44.686  57.842 -58.214  1.00  0.00     0.112 A 
HETATM   27  S   UNL     1     -45.316  59.312 -58.853  1.00  0.00    -0.067 SA
HETATM   28  C   UNL     1     -46.323  58.434 -59.933  1.00  0.00     0.035 A 
HETATM   29  C   UNL     1     -46.081  57.071 -59.768  1.00  0.00     0.075 A 
HETATM   30  C   UNL     1     -47.265  58.916 -60.856  1.00  0.00     0.021 A 
HETATM   31  N   UNL     1     -45.136  56.749 -58.806  1.00  0.00    -0.239 NA
HETATM   32  C   UNL     1     -46.804  56.154 -60.558  1.00  0.00     0.033 A 
HETATM   33  C   UNL     1     -47.751  56.622 -61.475  1.00  0.00     0.002 A 
HETATM   34  C   UNL     1     -47.977  57.987 -61.619  1.00  0.00     0.002 A 
ENDBRANCH  22  26
BRANCH  23  35
HETATM   35  O   UNL     1     -42.673  55.772 -57.893  1.00  0.00    -0.360 OA
HETATM   36  H   UNL     1     -43.559  55.589 -58.275  1.00  0.00     0.217 HD
ENDBRANCH  23  35
ENDBRANCH   1  20
TORSDOF 9
ENDMDL
MODEL 6
REMARK VINA RESULT:      -7.2      1.801      2.505
REMARK  9 active torsions:
REMARK  status: ('A' for Active; 'I' for Inactive)
REMARK    1  A    between atoms: C_2  and  N_3 
REMARK    2  A    between atoms: N_3  and  C_4 
REMARK    3  A    between atoms: N_3  and  C_32 
REMARK    4  A    between atoms: C_7  and  C_8 
REMARK       I    between atoms: C_8  and  N_9 
REMARK    5  A    between atoms: N_9  and  C_10 
REMARK    6  A    between atoms: C_10  and  N_11 
REMARK    7  A    between atoms: N_11  and  C_12 
REMARK    8  A    between atoms: C_14  and  C_15 
REMARK    9  A    between atoms: C_24  and  O_25 
ROOT
HETATM    1  N   UNL     1     -41.908  59.494 -53.053  1.00  0.00    -0.337 N 
HETATM    2  H   UNL     1     -40.892  59.521 -53.005  1.00  0.00     0.168 HD
ENDROOT
BRANCH   1   3
HETATM    3  C   UNL     1     -42.509  60.705 -52.795  1.00  0.00     0.157 C 
HETATM    4  S   UNL     1     -43.224  60.922 -51.300  1.00  0.00    -0.047 SA
BRANCH   3   5
HETATM    5  N   UNL     1     -42.363  61.656 -53.790  1.00  0.00    -0.201 NA
HETATM    6  C   UNL     1     -43.267  61.885 -54.811  1.00  0.00     0.237 C 
HETATM    7  O   UNL     1     -43.963  62.898 -54.795  1.00  0.00    -0.274 OA
HETATM    8  H   UNL     1     -42.199  62.543 -53.326  1.00  0.00     0.139 HD
BRANCH   6   9
HETATM    9  C   UNL     1     -43.284  60.965 -55.982  1.00  0.00     0.026 A 
HETATM   10  C   UNL     1     -42.064  60.470 -56.447  1.00  0.00     0.019 A 
HETATM   11  C   UNL     1     -42.026  59.497 -57.454  1.00  0.00     0.030 A 
HETATM   12  C   UNL     1     -43.196  58.965 -58.019  1.00  0.00     0.030 A 
HETATM   13  C   UNL     1     -44.408  59.527 -57.573  1.00  0.00     0.030 A 
HETATM   14  C   UNL     1     -44.462  60.503 -56.565  1.00  0.00     0.019 A 
BRANCH  12  15
HETATM   15  N   UNL     1     -43.185  57.950 -58.979  1.00  0.00    -0.382 N 
BRANCH  15  16
HETATM   16  C   UNL     1     -43.820  56.668 -58.628  1.00  0.00     0.118 C 
HETATM   17  C   UNL     1     -43.003  55.950 -57.564  1.00  0.00     0.026 C 
ENDBRANCH  15  16
BRANCH  15  18
HETATM   18  C   UNL     1     -42.109  57.861 -59.981  1.00  0.00     0.118 C 
HETATM   19  C   UNL     1     -42.135  59.057 -60.921  1.00  0.00     0.026 C 
ENDBRANCH  15  18
ENDBRANCH  12  15
ENDBRANCH   6   9
ENDBRANCH   3   5
ENDBRANCH   1   3
BRANCH   1  20
HETATM   20  C   UNL     1     -42.486  58.234 -53.316  1.00  0.00     0.035 A 
HETATM   21  C   UNL     1     -41.783  57.031 -53.157  1.00  0.00     0.046 A 
HETATM   22  C   UNL     1     -42.356  55.789 -53.497  1.00  0.00     0.035 A 
HETATM   23  C   UNL     1     -43.681  55.799 -53.970  1.00  0.00     0.078 A 
HETATM   24  C   UNL     1     -44.387  56.990 -54.137  1.00  0.00     0.040 A 
HETATM   25  C   UNL     1     -43.781  58.208 -53.834  1.00  0.00     0.032 A 
BRANCH  22  26
HETATM   26  C   UNL     1     -41.596  54.519 -53.433  1.00  0.00     0.112 A 
HETATM   27  S   UNL     1     -41.344  53.515 -54.809  1.00  0.00    -0.067 SA
HETATM   28  C   UNL     1     -40.583  52.328 -53.829  1.00  0.00     0.035 A 
HETATM   29  C   UNL     1     -40.528  52.794 -52.516  1.00  0.00     0.075 A 
HETATM   30  C   UNL     1     -40.075  51.071 -54.195  1.00  0.00     0.021 A 
HETATM   31  N   UNL     1     -41.087  54.045 -52.308  1.00  0.00    -0.239 NA
HETATM   32  C   UNL     1     -39.940  51.975 -51.531  1.00  0.00     0.033 A 
HETATM   33  C   UNL     1     -39.437  50.717 -51.881  1.00  0.00     0.002 A 
HETATM   34  C   UNL     1     -39.506  50.273 -53.198  1.00  0.00     0.002 A 
ENDBRANCH  22  26
BRANCH  23  35
HETATM   35  O   UNL     1     -44.359  54.659 -54.322  1.00  0.00    -0.360 OA
HETATM   36  H   UNL     1     -43.700  53.997 -54.627  1.00  0.00     0.217 HD
ENDBRANCH  23  35
ENDBRANCH   1  20
TORSDOF 9
ENDMDL
MODEL 7
REMARK VINA RESULT:      -7.2      3.614      8.396
REMARK  9 active torsions:
REMARK  status: ('A' for Active; 'I' for Inactive)
REMARK    1  A    between atoms: C_2  and  N_3 
REMARK    2  A    between atoms: N_3  and  C_4 
REMARK    3  A    between atoms: N_3  and  C_32 
REMARK    4  A    between atoms: C_7  and  C_8 
REMARK       I    between atoms: C_8  and  N_9 
REMARK    5  A    between atoms: N_9  and  C_10 
REMARK    6  A    between atoms: C_10  and  N_11 
REMARK    7  A    between atoms: N_11  and  C_12 
REMARK    8  A    between atoms: C_14  and  C_15 
REMARK    9  A    between atoms: C_24  and  O_25 
ROOT
HETATM    1  N   UNL     1     -42.971  57.670 -55.064  1.00  0.00    -0.337 N 
HETATM    2  H   UNL     1     -43.816  57.117 -54.943  1.00  0.00     0.168 HD
ENDROOT
BRANCH   1   3
HETATM    3  C   UNL     1     -42.504  57.695 -56.359  1.00  0.00     0.157 C 
HETATM    4  S   UNL     1     -42.244  59.184 -57.068  1.00  0.00    -0.047 SA
BRANCH   3   5
HETATM    5  N   UNL     1     -42.207  56.456 -56.899  1.00  0.00    -0.201 NA
HETATM    6  C   UNL     1     -42.613  55.241 -56.377  1.00  0.00     0.237 C 
HETATM    7  O   UNL     1     -43.492  54.595 -56.943  1.00  0.00    -0.274 OA
HETATM    8  H   UNL     1     -42.501  56.480 -57.870  1.00  0.00     0.139 HD
BRANCH   6   9
HETATM    9  C   UNL     1     -41.882  54.675 -55.209  1.00  0.00     0.026 A 
HETATM   10  C   UNL     1     -42.596  54.455 -54.030  1.00  0.00     0.019 A 
HETATM   11  C   UNL     1     -41.998  53.800 -52.945  1.00  0.00     0.030 A 
HETATM   12  C   UNL     1     -40.680  53.320 -53.001  1.00  0.00     0.030 A 
HETATM   13  C   UNL     1     -39.966  53.610 -54.180  1.00  0.00     0.030 A 
HETATM   14  C   UNL     1     -40.551  54.265 -55.275  1.00  0.00     0.019 A 
BRANCH  12  15
HETATM   15  N   UNL     1     -40.084  52.609 -51.956  1.00  0.00    -0.382 N 
BRANCH  15  16
HETATM   16  C   UNL     1     -39.469  51.310 -52.275  1.00  0.00     0.118 C 
HETATM   17  C   UNL     1     -39.642  50.347 -51.110  1.00  0.00     0.026 C 
ENDBRANCH  15  16
BRANCH  15  18
HETATM   18  C   UNL     1     -40.558  52.753 -50.570  1.00  0.00     0.118 C 
HETATM   19  C   UNL     1     -39.872  53.918 -49.872  1.00  0.00     0.026 C 
ENDBRANCH  15  18
ENDBRANCH  12  15
ENDBRANCH   6   9
ENDBRANCH   3   5
ENDBRANCH   1   3
BRANCH   1  20
HETATM   20  C   UNL     1     -42.429  58.244 -53.894  1.00  0.00     0.035 A 
HETATM   21  C   UNL     1     -43.132  59.168 -53.110  1.00  0.00     0.046 A 
HETATM   22  C   UNL     1     -42.544  59.785 -51.987  1.00  0.00     0.035 A 
HETATM   23  C   UNL     1     -41.228  59.408 -51.662  1.00  0.00     0.078 A 
HETATM   24  C   UNL     1     -40.518  58.493 -52.438  1.00  0.00     0.040 A 
HETATM   25  C   UNL     1     -41.110  57.931 -53.569  1.00  0.00     0.032 A 
BRANCH  22  26
HETATM   26  C   UNL     1     -43.233  60.839 -51.206  1.00  0.00     0.112 A 
HETATM   27  S   UNL     1     -43.472  62.435 -51.806  1.00  0.00    -0.067 SA
HETATM   28  C   UNL     1     -44.140  62.922 -50.301  1.00  0.00     0.035 A 
HETATM   29  C   UNL     1     -44.181  61.820 -49.448  1.00  0.00     0.075 A 
HETATM   30  C   UNL     1     -44.592  64.190 -49.902  1.00  0.00     0.021 A 
HETATM   31  N   UNL     1     -43.683  60.641 -49.978  1.00  0.00    -0.239 NA
HETATM   32  C   UNL     1     -44.696  61.990 -48.146  1.00  0.00     0.033 A 
HETATM   33  C   UNL     1     -45.141  63.251 -47.734  1.00  0.00     0.002 A 
HETATM   34  C   UNL     1     -45.087  64.336 -48.603  1.00  0.00     0.002 A 
ENDBRANCH  22  26
BRANCH  23  35
HETATM   35  O   UNL     1     -40.546  59.922 -50.587  1.00  0.00    -0.360 OA
HETATM   36  H   UNL     1     -41.194  60.387 -50.013  1.00  0.00     0.217 HD
ENDBRANCH  23  35
ENDBRANCH   1  20
TORSDOF 9
ENDMDL
MODEL 8
REMARK VINA RESULT:      -7.2      2.237      7.484
REMARK  9 active torsions:
REMARK  status: ('A' for Active; 'I' for Inactive)
REMARK    1  A    between atoms: C_2  and  N_3 
REMARK    2  A    between atoms: N_3  and  C_4 
REMARK    3  A    between atoms: N_3  and  C_32 
REMARK    4  A    between atoms: C_7  and  C_8 
REMARK       I    between atoms: C_8  and  N_9 
REMARK    5  A    between atoms: N_9  and  C_10 
REMARK    6  A    between atoms: C_10  and  N_11 
REMARK    7  A    between atoms: N_11  and  C_12 
REMARK    8  A    between atoms: C_14  and  C_15 
REMARK    9  A    between atoms: C_24  and  O_25 
ROOT
HETATM    1  N   UNL     1     -43.944  59.446 -52.601  1.00  0.00    -0.337 N 
HETATM    2  H   UNL     1     -44.434  60.151 -52.056  1.00  0.00     0.168 HD
ENDROOT
BRANCH   1   3
HETATM    3  C   UNL     1     -43.446  58.408 -51.846  1.00  0.00     0.157 C 
HETATM    4  S   UNL     1     -44.533  57.300 -51.226  1.00  0.00    -0.047 SA
BRANCH   3   5
HETATM    5  N   UNL     1     -42.066  58.348 -51.769  1.00  0.00    -0.201 NA
HETATM    6  C   UNL     1     -41.246  57.684 -52.661  1.00  0.00     0.237 C 
HETATM    7  O   UNL     1     -40.562  58.324 -53.457  1.00  0.00    -0.274 OA
HETATM    8  H   UNL     1     -41.734  59.305 -51.708  1.00  0.00     0.139 HD
BRANCH   6   9
HETATM    9  C   UNL     1     -41.106  56.205 -52.552  1.00  0.00     0.026 A 
HETATM   10  C   UNL     1     -40.842  55.482 -53.717  1.00  0.00     0.019 A 
HETATM   11  C   UNL     1     -40.566  54.109 -53.657  1.00  0.00     0.030 A 
HETATM   12  C   UNL     1     -40.518  53.412 -52.440  1.00  0.00     0.030 A 
HETATM   13  C   UNL     1     -40.849  54.155 -51.290  1.00  0.00     0.030 A 
HETATM   14  C   UNL     1     -41.128  55.530 -51.333  1.00  0.00     0.019 A 
BRANCH  12  15
HETATM   15  N   UNL     1     -40.184  52.059 -52.350  1.00  0.00    -0.382 N 
BRANCH  15  16
HETATM   16  C   UNL     1     -40.012  51.483 -51.006  1.00  0.00     0.118 C 
HETATM   17  C   UNL     1     -39.437  50.078 -51.105  1.00  0.00     0.026 C 
ENDBRANCH  15  16
BRANCH  15  18
HETATM   18  C   UNL     1     -39.421  51.390 -53.418  1.00  0.00     0.118 C 
HETATM   19  C   UNL     1     -40.345  50.636 -54.363  1.00  0.00     0.026 C 
ENDBRANCH  15  18
ENDBRANCH  12  15
ENDBRANCH   6   9
ENDBRANCH   3   5
ENDBRANCH   1   3
BRANCH   1  20
HETATM   20  C   UNL     1     -43.829  59.696 -53.985  1.00  0.00     0.035 A 
HETATM   21  C   UNL     1     -44.189  58.753 -54.957  1.00  0.00     0.046 A 
HETATM   22  C   UNL     1     -43.996  58.995 -56.332  1.00  0.00     0.035 A 
HETATM   23  C   UNL     1     -43.457  60.243 -56.695  1.00  0.00     0.078 A 
HETATM   24  C   UNL     1     -43.091  61.187 -55.736  1.00  0.00     0.040 A 
HETATM   25  C   UNL     1     -43.252  60.903 -54.381  1.00  0.00     0.032 A 
BRANCH  22  26
HETATM   26  C   UNL     1     -44.275  57.973 -57.367  1.00  0.00     0.112 A 
HETATM   27  S   UNL     1     -43.233  56.634 -57.656  1.00  0.00    -0.067 SA
HETATM   28  C   UNL     1     -44.195  56.148 -58.993  1.00  0.00     0.035 A 
HETATM   29  C   UNL     1     -45.280  57.016 -59.107  1.00  0.00     0.075 A 
HETATM   30  C   UNL     1     -44.000  55.079 -59.882  1.00  0.00     0.021 A 
HETATM   31  N   UNL     1     -45.326  58.034 -58.168  1.00  0.00    -0.239 NA
HETATM   32  C   UNL     1     -46.209  56.806 -60.147  1.00  0.00     0.033 A 
HETATM   33  C   UNL     1     -46.021  55.748 -61.044  1.00  0.00     0.002 A 
HETATM   34  C   UNL     1     -44.929  54.898 -60.911  1.00  0.00     0.002 A 
ENDBRANCH  22  26
BRANCH  23  35
HETATM   35  O   UNL     1     -43.233  60.611 -57.999  1.00  0.00    -0.360 OA
HETATM   36  H   UNL     1     -42.280  60.469 -58.192  1.00  0.00     0.217 HD
ENDBRANCH  23  35
ENDBRANCH   1  20
TORSDOF 9
ENDMDL
MODEL 9
REMARK VINA RESULT:      -7.0     16.549     19.420
REMARK  9 active torsions:
REMARK  status: ('A' for Active; 'I' for Inactive)
REMARK    1  A    between atoms: C_2  and  N_3 
REMARK    2  A    between atoms: N_3  and  C_4 
REMARK    3  A    between atoms: N_3  and  C_32 
REMARK    4  A    between atoms: C_7  and  C_8 
REMARK       I    between atoms: C_8  and  N_9 
REMARK    5  A    between atoms: N_9  and  C_10 
REMARK    6  A    between atoms: C_10  and  N_11 
REMARK    7  A    between atoms: N_11  and  C_12 
REMARK    8  A    between atoms: C_14  and  C_15 
REMARK    9  A    between atoms: C_24  and  O_25 
ROOT
HETATM    1  N   UNL     1     -37.610  41.918 -52.930  1.00  0.00    -0.337 N 
HETATM    2  H   UNL     1     -37.308  42.636 -52.276  1.00  0.00     0.168 HD
ENDROOT
BRANCH   1   3
HETATM    3  C   UNL     1     -38.577  41.077 -52.426  1.00  0.00     0.157 C 
HETATM    4  S   UNL     1     -40.166  41.373 -52.844  1.00  0.00    -0.047 SA
BRANCH   3   5
HETATM    5  N   UNL     1     -38.097  40.006 -51.694  1.00  0.00    -0.201 NA
HETATM    6  C   UNL     1     -36.879  39.968 -51.040  1.00  0.00     0.237 C 
HETATM    7  O   UNL     1     -36.841  40.035 -49.813  1.00  0.00    -0.274 OA
HETATM    8  H   UNL     1     -38.812  39.771 -51.013  1.00  0.00     0.139 HD
BRANCH   6   9
HETATM    9  C   UNL     1     -35.641  39.714 -51.829  1.00  0.00     0.026 A 
HETATM   10  C   UNL     1     -35.702  38.780 -52.864  1.00  0.00     0.019 A 
HETATM   11  C   UNL     1     -34.613  38.598 -53.727  1.00  0.00     0.030 A 
HETATM   12  C   UNL     1     -33.436  39.352 -53.607  1.00  0.00     0.030 A 
HETATM   13  C   UNL     1     -33.381  40.243 -52.518  1.00  0.00     0.030 A 
HETATM   14  C   UNL     1     -34.464  40.437 -51.645  1.00  0.00     0.019 A 
BRANCH  12  15
HETATM   15  N   UNL     1     -32.362  39.233 -54.493  1.00  0.00    -0.382 N 
BRANCH  15  16
HETATM   16  C   UNL     1     -32.185  40.292 -55.501  1.00  0.00     0.118 C 
HETATM   17  C   UNL     1     -31.225  39.828 -56.587  1.00  0.00     0.026 C 
ENDBRANCH  15  16
BRANCH  15  18
HETATM   18  C   UNL     1     -31.831  37.913 -54.873  1.00  0.00     0.118 C 
HETATM   19  C   UNL     1     -31.058  37.281 -53.725  1.00  0.00     0.026 C 
ENDBRANCH  15  18
ENDBRANCH  12  15
ENDBRANCH   6   9
ENDBRANCH   3   5
ENDBRANCH   1   3
BRANCH   1  20
HETATM   20  C   UNL     1     -36.952  41.897 -54.178  1.00  0.00     0.035 A 
HETATM   21  C   UNL     1     -37.430  41.162 -55.272  1.00  0.00     0.046 A 
HETATM   22  C   UNL     1     -36.717  41.095 -56.487  1.00  0.00     0.035 A 
HETATM   23  C   UNL     1     -35.518  41.827 -56.570  1.00  0.00     0.078 A 
HETATM   24  C   UNL     1     -35.031  42.556 -55.486  1.00  0.00     0.040 A 
HETATM   25  C   UNL     1     -35.735  42.570 -54.283  1.00  0.00     0.032 A 
BRANCH  22  26
HETATM   26  C   UNL     1     -37.153  40.244 -57.618  1.00  0.00     0.112 A 
HETATM   27  S   UNL     1     -37.609  38.596 -57.420  1.00  0.00    -0.067 SA
HETATM   28  C   UNL     1     -37.782  38.419 -59.120  1.00  0.00     0.035 A 
HETATM   29  C   UNL     1     -37.525  39.646 -59.730  1.00  0.00     0.075 A 
HETATM   30  C   UNL     1     -38.118  37.275 -59.862  1.00  0.00     0.021 A 
HETATM   31  N   UNL     1     -37.189  40.677 -58.868  1.00  0.00    -0.239 NA
HETATM   32  C   UNL     1     -37.609  39.735 -61.135  1.00  0.00     0.033 A 
HETATM   33  C   UNL     1     -37.934  38.600 -61.885  1.00  0.00     0.002 A 
HETATM   34  C   UNL     1     -38.184  37.386 -61.254  1.00  0.00     0.002 A 
ENDBRANCH  22  26
BRANCH  23  35
HETATM   35  O   UNL     1     -34.738  41.858 -57.699  1.00  0.00    -0.360 OA
HETATM   36  H   UNL     1     -34.602  40.932 -57.998  1.00  0.00     0.217 HD
ENDBRANCH  23  35
ENDBRANCH   1  20
TORSDOF 9
ENDMDL
MODEL 10
REMARK VINA RESULT:      -7.0     16.751     19.514
REMARK  9 active torsions:
REMARK  status: ('A' for Active; 'I' for Inactive)
REMARK    1  A    between atoms: C_2  and  N_3 
REMARK    2  A    between atoms: N_3  and  C_4 
REMARK    3  A    between atoms: N_3  and  C_32 
REMARK    4  A    between atoms: C_7  and  C_8 
REMARK       I    between atoms: C_8  and  N_9 
REMARK    5  A    between atoms: N_9  and  C_10 
REMARK    6  A    between atoms: C_10  and  N_11 
REMARK    7  A    between atoms: N_11  and  C_12 
REMARK    8  A    between atoms: C_14  and  C_15 
REMARK    9  A    between atoms: C_24  and  O_25 
ROOT
HETATM    1  N   UNL     1     -36.272  39.075 -59.638  1.00  0.00    -0.337 N 
HETATM    2  H   UNL     1     -36.018  39.566 -60.492  1.00  0.00     0.168 HD
ENDROOT
BRANCH   1   3
HETATM    3  C   UNL     1     -37.611  39.152 -59.330  1.00  0.00     0.157 C 
HETATM    4  S   UNL     1     -38.433  37.725 -59.049  1.00  0.00    -0.047 SA
BRANCH   3   5
HETATM    5  N   UNL     1     -38.107  40.436 -59.191  1.00  0.00    -0.201 NA
HETATM    6  C   UNL     1     -37.389  41.522 -58.726  1.00  0.00     0.237 C 
HETATM    7  O   UNL     1     -37.035  42.402 -59.508  1.00  0.00    -0.274 OA
HETATM    8  H   UNL     1     -38.503  40.697 -60.088  1.00  0.00     0.139 HD
BRANCH   6   9
HETATM    9  C   UNL     1     -37.172  41.672 -57.260  1.00  0.00     0.026 A 
HETATM   10  C   UNL     1     -38.163  41.201 -56.397  1.00  0.00     0.019 A 
HETATM   11  C   UNL     1     -37.956  41.190 -55.011  1.00  0.00     0.030 A 
HETATM   12  C   UNL     1     -36.752  41.623 -54.435  1.00  0.00     0.030 A 
HETATM   13  C   UNL     1     -35.795  42.149 -55.326  1.00  0.00     0.030 A 
HETATM   14  C   UNL     1     -35.987  42.167 -56.717  1.00  0.00     0.019 A 
BRANCH  12  15
HETATM   15  N   UNL     1     -36.499  41.562 -53.063  1.00  0.00    -0.382 N 
BRANCH  15  16
HETATM   16  C   UNL     1     -35.354  42.328 -52.542  1.00  0.00     0.118 C 
HETATM   17  C   UNL     1     -34.948  41.801 -51.174  1.00  0.00     0.026 C 
ENDBRANCH  15  16
BRANCH  15  18
HETATM   18  C   UNL     1     -36.869  40.377 -52.272  1.00  0.00     0.118 C 
HETATM   19  C   UNL     1     -36.348  39.101 -52.917  1.00  0.00     0.026 C 
ENDBRANCH  15  18
ENDBRANCH  12  15
ENDBRANCH   6   9
ENDBRANCH   3   5
ENDBRANCH   1   3
BRANCH   1  20
HETATM   20  C   UNL     1     -35.212  38.471 -58.928  1.00  0.00     0.035 A 
HETATM   21  C   UNL     1     -34.904  38.803 -57.602  1.00  0.00     0.046 A 
HETATM   22  C   UNL     1     -33.795  38.242 -56.937  1.00  0.00     0.035 A 
HETATM   23  C   UNL     1     -33.026  37.302 -57.648  1.00  0.00     0.078 A 
HETATM   24  C   UNL     1     -33.321  36.968 -58.970  1.00  0.00     0.040 A 
HETATM   25  C   UNL     1     -34.398  37.572 -59.617  1.00  0.00     0.032 A 
BRANCH  22  26
HETATM   26  C   UNL     1     -33.393  38.655 -55.572  1.00  0.00     0.112 A 
HETATM   27  S   UNL     1     -32.820  40.238 -55.211  1.00  0.00    -0.067 SA
HETATM   28  C   UNL     1     -32.490  39.771 -53.592  1.00  0.00     0.035 A 
HETATM   29  C   UNL     1     -32.882  38.445 -53.416  1.00  0.00     0.075 A 
HETATM   30  C   UNL     1     -31.920  40.523 -52.552  1.00  0.00     0.021 A 
HETATM   31  N   UNL     1     -33.411  37.829 -54.539  1.00  0.00    -0.239 NA
HETATM   32  C   UNL     1     -32.701  37.847 -52.152  1.00  0.00     0.033 A 
HETATM   33  C   UNL     1     -32.126  38.584 -51.110  1.00  0.00     0.002 A 
HETATM   34  C   UNL     1     -31.741  39.905 -51.311  1.00  0.00     0.002 A 
ENDBRANCH  22  26
BRANCH  23  35
HETATM   35  O   UNL     1     -31.931  36.671 -57.112  1.00  0.00    -0.360 OA
HETATM   36  H   UNL     1     -32.085  35.703 -57.165  1.00  0.00     0.217 HD
ENDBRANCH  23  35
ENDBRANCH   1  20
TORSDOF 9
ENDMDL
