MODEL 1
REMARK VINA RESULT:      -8.6      0.000      0.000
REMARK  7 active torsions:
REMARK  status: ('A' for Active; 'I' for Inactive)
REMARK       I    between atoms: C_2  and  N_3 
REMARK    1  A    between atoms: C_2  and  C_11 
REMARK    2  A    between atoms: N_3  and  C_4 
REMARK    3  A    between atoms: C_4  and  C_5 
REMARK    4  A    between atoms: C_15  and  N_16 
REMARK    5  A    between atoms: N_16  and  C_17 
REMARK    6  A    between atoms: C_17  and  C_18 
REMARK    7  A    between atoms: C_20  and  C_24 
ROOT
HETATM    1  C   UNL     1     -42.254  56.010 -51.489  1.00  0.00     0.033 A 
HETATM    2  C   UNL     1     -43.490  56.497 -51.052  1.00  0.00     0.017 A 
HETATM    3  C   UNL     1     -44.090  57.553 -51.731  1.00  0.00     0.003 A 
HETATM    4  C   UNL     1     -43.450  58.127 -52.832  1.00  0.00     0.023 A 
HETATM    5  C   UNL     1     -42.192  57.679 -53.267  1.00  0.00     0.009 A 
HETATM    6  C   UNL     1     -41.627  56.581 -52.607  1.00  0.00     0.040 A 
ENDROOT
BRANCH   5   7
HETATM    7  N   UNL     1     -41.644  58.257 -54.419  1.00  0.00    -0.286 NA
HETATM    8  H   UNL     1     -40.948  57.641 -54.842  1.00  0.00     0.128 HD
BRANCH   7   9
HETATM    9  C   UNL     1     -42.548  58.759 -55.454  1.00  0.00     0.171 C 
BRANCH   9  10
HETATM   10  C   UNL     1     -42.842  57.718 -56.490  1.00  0.00     0.117 A 
HETATM   11  N   UNL     1     -43.739  57.791 -57.452  1.00  0.00    -0.232 NA
HETATM   12  C   UNL     1     -43.698  56.580 -58.107  1.00  0.00     0.084 A 
HETATM   13  C   UNL     1     -42.757  55.760 -57.524  1.00  0.00     0.122 A 
HETATM   14  N   UNL     1     -42.230  56.490 -56.492  1.00  0.00    -0.351 N 
HETATM   15  H   UNL     1     -41.537  56.178 -55.825  1.00  0.00     0.166 HD
BRANCH  12  16
HETATM   16  C   UNL     1     -44.564  56.263 -59.232  1.00  0.00    -0.003 A 
HETATM   17  C   UNL     1     -45.791  56.920 -59.356  1.00  0.00     0.033 A 
HETATM   18  C   UNL     1     -46.614  56.605 -60.424  1.00  0.00     0.117 A 
HETATM   19  N   UNL     1     -46.303  55.691 -61.365  1.00  0.00    -0.273 NA
HETATM   20  C   UNL     1     -45.114  55.068 -61.231  1.00  0.00     0.117 A 
HETATM   21  C   UNL     1     -44.222  55.315 -60.198  1.00  0.00     0.033 A 
ENDBRANCH  12  16
ENDBRANCH   9  10
ENDBRANCH   7   9
ENDBRANCH   5   7
BRANCH   1  22
HETATM   22  C   UNL     1     -41.598  54.853 -50.821  1.00  0.00     0.251 C 
HETATM   23  O   UNL     1     -41.992  54.472 -49.725  1.00  0.00    -0.268 OA
HETATM   24  N   UNL     1     -40.572  54.257 -51.523  1.00  0.00    -0.353 N 
HETATM   25  H   UNL     1     -40.470  54.464 -52.505  1.00  0.00     0.163 HD
BRANCH  24  26
HETATM   26  C   UNL     1     -39.898  53.080 -51.024  1.00  0.00     0.161 C 
BRANCH  26  27
HETATM   27  C   UNL     1     -39.893  51.975 -52.049  1.00  0.00    -0.041 A 
HETATM   28  C   UNL     1     -39.573  50.659 -51.688  1.00  0.00     0.009 A 
HETATM   29  C   UNL     1     -39.567  49.644 -52.648  1.00  0.00     0.001 A 
HETATM   30  C   UNL     1     -39.872  49.937 -53.976  1.00  0.00     0.000 A 
HETATM   31  C   UNL     1     -40.179  51.244 -54.348  1.00  0.00     0.001 A 
HETATM   32  C   UNL     1     -40.184  52.259 -53.391  1.00  0.00     0.009 A 
ENDBRANCH  26  27
ENDBRANCH  24  26
ENDBRANCH   1  22
TORSDOF 7
ENDMDL
MODEL 2
REMARK VINA RESULT:      -8.5      1.766      2.391
REMARK  7 active torsions:
REMARK  status: ('A' for Active; 'I' for Inactive)
REMARK       I    between atoms: C_2  and  N_3 
REMARK    1  A    between atoms: C_2  and  C_11 
REMARK    2  A    between atoms: N_3  and  C_4 
REMARK    3  A    between atoms: C_4  and  C_5 
REMARK    4  A    between atoms: C_15  and  N_16 
REMARK    5  A    between atoms: N_16  and  C_17 
REMARK    6  A    between atoms: C_17  and  C_18 
REMARK    7  A    between atoms: C_20  and  C_24 
ROOT
HETATM    1  C   UNL     1     -41.640  56.162 -50.796  1.00  0.00     0.033 A 
HETATM    2  C   UNL     1     -41.083  57.413 -50.510  1.00  0.00     0.017 A 
HETATM    3  C   UNL     1     -41.691  58.563 -51.007  1.00  0.00     0.003 A 
HETATM    4  C   UNL     1     -42.840  58.459 -51.795  1.00  0.00     0.023 A 
HETATM    5  C   UNL     1     -43.395  57.212 -52.124  1.00  0.00     0.009 A 
HETATM    6  C   UNL     1     -42.804  56.069 -51.574  1.00  0.00     0.040 A 
ENDROOT
BRANCH   5   7
HETATM    7  N   UNL     1     -44.586  57.191 -52.861  1.00  0.00    -0.286 NA
HETATM    8  H   UNL     1     -45.350  56.794 -52.311  1.00  0.00     0.128 HD
BRANCH   7   9
HETATM    9  C   UNL     1     -45.038  58.423 -53.508  1.00  0.00     0.171 C 
BRANCH   9  10
HETATM   10  C   UNL     1     -45.004  58.311 -55.002  1.00  0.00     0.117 A 
HETATM   11  N   UNL     1     -44.070  57.734 -55.731  1.00  0.00    -0.232 NA
HETATM   12  C   UNL     1     -44.429  57.939 -57.045  1.00  0.00     0.084 A 
HETATM   13  C   UNL     1     -45.604  58.656 -57.107  1.00  0.00     0.122 A 
HETATM   14  N   UNL     1     -45.951  58.896 -55.804  1.00  0.00    -0.351 N 
HETATM   15  H   UNL     1     -46.744  59.433 -55.481  1.00  0.00     0.166 HD
BRANCH  12  16
HETATM   16  C   UNL     1     -43.630  57.462 -58.163  1.00  0.00    -0.003 A 
HETATM   17  C   UNL     1     -42.874  58.376 -58.902  1.00  0.00     0.033 A 
HETATM   18  C   UNL     1     -42.125  57.914 -59.971  1.00  0.00     0.117 A 
HETATM   19  N   UNL     1     -42.078  56.621 -60.350  1.00  0.00    -0.273 NA
HETATM   20  C   UNL     1     -42.812  55.753 -59.625  1.00  0.00     0.117 A 
HETATM   21  C   UNL     1     -43.594  56.117 -58.538  1.00  0.00     0.033 A 
ENDBRANCH  12  16
ENDBRANCH   9  10
ENDBRANCH   7   9
ENDBRANCH   5   7
BRANCH   1  22
HETATM   22  C   UNL     1     -41.050  54.911 -50.249  1.00  0.00     0.251 C 
HETATM   23  O   UNL     1     -41.158  54.651 -49.055  1.00  0.00    -0.268 OA
HETATM   24  N   UNL     1     -40.423  54.091 -51.163  1.00  0.00    -0.353 N 
HETATM   25  H   UNL     1     -40.586  54.246 -52.147  1.00  0.00     0.163 HD
BRANCH  24  26
HETATM   26  C   UNL     1     -39.873  52.811 -50.781  1.00  0.00     0.161 C 
BRANCH  26  27
HETATM   27  C   UNL     1     -39.885  51.842 -51.934  1.00  0.00    -0.041 A 
HETATM   28  C   UNL     1     -39.576  50.488 -51.740  1.00  0.00     0.009 A 
HETATM   29  C   UNL     1     -39.587  49.600 -52.818  1.00  0.00     0.001 A 
HETATM   30  C   UNL     1     -39.900  50.057 -54.097  1.00  0.00     0.000 A 
HETATM   31  C   UNL     1     -40.196  51.402 -54.303  1.00  0.00     0.001 A 
HETATM   32  C   UNL     1     -40.185  52.291 -53.228  1.00  0.00     0.009 A 
ENDBRANCH  26  27
ENDBRANCH  24  26
ENDBRANCH   1  22
TORSDOF 7
ENDMDL
MODEL 3
REMARK VINA RESULT:      -8.5      1.718      2.431
REMARK  7 active torsions:
REMARK  status: ('A' for Active; 'I' for Inactive)
REMARK       I    between atoms: C_2  and  N_3 
REMARK    1  A    between atoms: C_2  and  C_11 
REMARK    2  A    between atoms: N_3  and  C_4 
REMARK    3  A    between atoms: C_4  and  C_5 
REMARK    4  A    between atoms: C_15  and  N_16 
REMARK    5  A    between atoms: N_16  and  C_17 
REMARK    6  A    between atoms: C_17  and  C_18 
REMARK    7  A    between atoms: C_20  and  C_24 
ROOT
HETATM    1  C   UNL     1     -42.320  56.014 -50.723  1.00  0.00     0.033 A 
HETATM    2  C   UNL     1     -43.686  55.721 -50.668  1.00  0.00     0.017 A 
HETATM    3  C   UNL     1     -44.607  56.661 -51.122  1.00  0.00     0.003 A 
HETATM    4  C   UNL     1     -44.162  57.890 -51.616  1.00  0.00     0.023 A 
HETATM    5  C   UNL     1     -42.798  58.220 -51.646  1.00  0.00     0.009 A 
HETATM    6  C   UNL     1     -41.882  57.245 -51.236  1.00  0.00     0.040 A 
ENDROOT
BRANCH   5   7
HETATM    7  N   UNL     1     -42.424  59.443 -52.217  1.00  0.00    -0.286 NA
HETATM    8  H   UNL     1     -42.280  60.154 -51.499  1.00  0.00     0.128 HD
BRANCH   7   9
HETATM    9  C   UNL     1     -41.308  59.468 -53.163  1.00  0.00     0.171 C 
BRANCH   9  10
HETATM   10  C   UNL     1     -41.780  59.420 -54.583  1.00  0.00     0.117 A 
HETATM   11  N   UNL     1     -41.837  58.359 -55.362  1.00  0.00    -0.232 NA
HETATM   12  C   UNL     1     -42.265  58.808 -56.592  1.00  0.00     0.084 A 
HETATM   13  C   UNL     1     -42.469  60.170 -56.551  1.00  0.00     0.122 A 
HETATM   14  N   UNL     1     -42.145  60.547 -55.275  1.00  0.00    -0.351 N 
HETATM   15  H   UNL     1     -42.143  61.489 -54.907  1.00  0.00     0.166 HD
BRANCH  12  16
HETATM   16  C   UNL     1     -42.437  57.927 -57.737  1.00  0.00    -0.003 A 
HETATM   17  C   UNL     1     -43.052  56.685 -57.556  1.00  0.00     0.033 A 
HETATM   18  C   UNL     1     -43.203  55.848 -58.649  1.00  0.00     0.117 A 
HETATM   19  N   UNL     1     -42.787  56.159 -59.894  1.00  0.00    -0.273 NA
HETATM   20  C   UNL     1     -42.197  57.363 -60.050  1.00  0.00     0.117 A 
HETATM   21  C   UNL     1     -42.001  58.269 -59.018  1.00  0.00     0.033 A 
ENDBRANCH  12  16
ENDBRANCH   9  10
ENDBRANCH   7   9
ENDBRANCH   5   7
BRANCH   1  22
HETATM   22  C   UNL     1     -41.298  55.022 -50.291  1.00  0.00     0.251 C 
HETATM   23  O   UNL     1     -40.969  54.953 -49.112  1.00  0.00    -0.268 OA
HETATM   24  N   UNL     1     -40.797  54.205 -51.281  1.00  0.00    -0.353 N 
HETATM   25  H   UNL     1     -41.286  54.152 -52.163  1.00  0.00     0.163 HD
BRANCH  24  26
HETATM   26  C   UNL     1     -39.854  53.149 -50.988  1.00  0.00     0.161 C 
BRANCH  26  27
HETATM   27  C   UNL     1     -39.889  52.073 -52.042  1.00  0.00    -0.041 A 
HETATM   28  C   UNL     1     -39.526  50.754 -51.738  1.00  0.00     0.009 A 
HETATM   29  C   UNL     1     -39.558  49.766 -52.725  1.00  0.00     0.001 A 
HETATM   30  C   UNL     1     -39.946  50.089 -54.024  1.00  0.00     0.000 A 
HETATM   31  C   UNL     1     -40.297  51.400 -54.341  1.00  0.00     0.001 A 
HETATM   32  C   UNL     1     -40.264  52.388 -53.357  1.00  0.00     0.009 A 
ENDBRANCH  26  27
ENDBRANCH  24  26
ENDBRANCH   1  22
TORSDOF 7
ENDMDL
MODEL 4
REMARK VINA RESULT:      -8.4      2.151      2.988
REMARK  7 active torsions:
REMARK  status: ('A' for Active; 'I' for Inactive)
REMARK       I    between atoms: C_2  and  N_3 
REMARK    1  A    between atoms: C_2  and  C_11 
REMARK    2  A    between atoms: N_3  and  C_4 
REMARK    3  A    between atoms: C_4  and  C_5 
REMARK    4  A    between atoms: C_15  and  N_16 
REMARK    5  A    between atoms: N_16  and  C_17 
REMARK    6  A    between atoms: C_17  and  C_18 
REMARK    7  A    between atoms: C_20  and  C_24 
ROOT
HETATM    1  C   UNL     1     -41.358  56.294 -52.542  1.00  0.00     0.033 A 
HETATM    2  C   UNL     1     -41.176  56.189 -51.159  1.00  0.00     0.017 A 
HETATM    3  C   UNL     1     -41.083  57.345 -50.390  1.00  0.00     0.003 A 
HETATM    4  C   UNL     1     -41.160  58.598 -51.004  1.00  0.00     0.023 A 
HETATM    5  C   UNL     1     -41.306  58.728 -52.395  1.00  0.00     0.009 A 
HETATM    6  C   UNL     1     -41.451  57.556 -53.147  1.00  0.00     0.040 A 
ENDROOT
BRANCH   5   7
HETATM    7  N   UNL     1     -41.444  60.015 -52.929  1.00  0.00    -0.286 NA
HETATM    8  H   UNL     1     -40.637  60.261 -53.503  1.00  0.00     0.128 HD
BRANCH   7   9
HETATM    9  C   UNL     1     -42.675  60.353 -53.645  1.00  0.00     0.171 C 
BRANCH   9  10
HETATM   10  C   UNL     1     -42.526  60.175 -55.125  1.00  0.00     0.117 A 
HETATM   11  N   UNL     1     -42.685  59.059 -55.807  1.00  0.00    -0.232 NA
HETATM   12  C   UNL     1     -42.377  59.362 -57.115  1.00  0.00     0.084 A 
HETATM   13  C   UNL     1     -42.023  60.689 -57.221  1.00  0.00     0.122 A 
HETATM   14  N   UNL     1     -42.109  61.190 -55.949  1.00  0.00    -0.351 N 
HETATM   15  H   UNL     1     -41.880  62.130 -55.654  1.00  0.00     0.166 HD
BRANCH  12  16
HETATM   16  C   UNL     1     -42.417  58.375 -58.183  1.00  0.00    -0.003 A 
HETATM   17  C   UNL     1     -42.834  57.072 -57.894  1.00  0.00     0.033 A 
HETATM   18  C   UNL     1     -42.859  56.136 -58.914  1.00  0.00     0.117 A 
HETATM   19  N   UNL     1     -42.502  56.405 -60.186  1.00  0.00    -0.273 NA
HETATM   20  C   UNL     1     -42.105  57.668 -60.447  1.00  0.00     0.117 A 
HETATM   21  C   UNL     1     -42.046  58.674 -59.495  1.00  0.00     0.033 A 
ENDBRANCH  12  16
ENDBRANCH   9  10
ENDBRANCH   7   9
ENDBRANCH   5   7
BRANCH   1  22
HETATM   22  C   UNL     1     -41.508  55.085 -53.396  1.00  0.00     0.251 C 
HETATM   23  O   UNL     1     -42.589  54.828 -53.914  1.00  0.00    -0.268 OA
HETATM   24  N   UNL     1     -40.370  54.326 -53.569  1.00  0.00    -0.353 N 
HETATM   25  H   UNL     1     -39.476  54.725 -53.320  1.00  0.00     0.163 HD
BRANCH  24  26
HETATM   26  C   UNL     1     -40.356  53.168 -54.433  1.00  0.00     0.161 C 
BRANCH  26  27
HETATM   27  C   UNL     1     -40.067  51.909 -53.658  1.00  0.00    -0.041 A 
HETATM   28  C   UNL     1     -39.791  51.955 -52.284  1.00  0.00     0.009 A 
HETATM   29  C   UNL     1     -39.520  50.781 -51.577  1.00  0.00     0.001 A 
HETATM   30  C   UNL     1     -39.516  49.554 -52.237  1.00  0.00     0.000 A 
HETATM   31  C   UNL     1     -39.775  49.497 -53.605  1.00  0.00     0.001 A 
HETATM   32  C   UNL     1     -40.045  50.668 -54.313  1.00  0.00     0.009 A 
ENDBRANCH  26  27
ENDBRANCH  24  26
ENDBRANCH   1  22
TORSDOF 7
ENDMDL
MODEL 5
REMARK VINA RESULT:      -8.3      2.498      3.265
REMARK  7 active torsions:
REMARK  status: ('A' for Active; 'I' for Inactive)
REMARK       I    between atoms: C_2  and  N_3 
REMARK    1  A    between atoms: C_2  and  C_11 
REMARK    2  A    between atoms: N_3  and  C_4 
REMARK    3  A    between atoms: C_4  and  C_5 
REMARK    4  A    between atoms: C_15  and  N_16 
REMARK    5  A    between atoms: N_16  and  C_17 
REMARK    6  A    between atoms: C_17  and  C_18 
REMARK    7  A    between atoms: C_20  and  C_24 
ROOT
HETATM    1  C   UNL     1     -42.986  55.641 -52.257  1.00  0.00     0.033 A 
HETATM    2  C   UNL     1     -43.669  56.689 -51.632  1.00  0.00     0.017 A 
HETATM    3  C   UNL     1     -44.456  57.546 -52.395  1.00  0.00     0.003 A 
HETATM    4  C   UNL     1     -44.547  57.363 -53.777  1.00  0.00     0.023 A 
HETATM    5  C   UNL     1     -43.842  56.341 -54.431  1.00  0.00     0.009 A 
HETATM    6  C   UNL     1     -43.097  55.455 -53.644  1.00  0.00     0.040 A 
ENDROOT
BRANCH   5   7
HETATM    7  N   UNL     1     -44.037  56.178 -55.809  1.00  0.00    -0.286 NA
HETATM    8  H   UNL     1     -44.348  57.049 -56.240  1.00  0.00     0.128 HD
BRANCH   7   9
HETATM    9  C   UNL     1     -42.961  55.592 -56.609  1.00  0.00     0.171 C 
BRANCH   9  10
HETATM   10  C   UNL     1     -42.642  56.428 -57.810  1.00  0.00     0.117 A 
HETATM   11  N   UNL     1     -42.481  57.736 -57.842  1.00  0.00    -0.232 NA
HETATM   12  C   UNL     1     -42.273  58.064 -59.164  1.00  0.00     0.084 A 
HETATM   13  C   UNL     1     -42.312  56.928 -59.943  1.00  0.00     0.122 A 
HETATM   14  N   UNL     1     -42.560  55.900 -59.073  1.00  0.00    -0.351 N 
HETATM   15  H   UNL     1     -42.690  54.926 -59.312  1.00  0.00     0.166 HD
BRANCH  12  16
HETATM   16  C   UNL     1     -42.070  59.432 -59.614  1.00  0.00    -0.003 A 
HETATM   17  C   UNL     1     -41.935  59.689 -60.981  1.00  0.00     0.033 A 
HETATM   18  C   UNL     1     -41.731  60.993 -61.399  1.00  0.00     0.117 A 
HETATM   19  N   UNL     1     -41.654  62.046 -60.560  1.00  0.00    -0.273 NA
HETATM   20  C   UNL     1     -41.788  61.779 -59.244  1.00  0.00     0.117 A 
HETATM   21  C   UNL     1     -41.995  60.509 -58.728  1.00  0.00     0.033 A 
ENDBRANCH  12  16
ENDBRANCH   9  10
ENDBRANCH   7   9
ENDBRANCH   5   7
BRANCH   1  22
HETATM   22  C   UNL     1     -42.170  54.673 -51.475  1.00  0.00     0.251 C 
HETATM   23  O   UNL     1     -42.630  54.161 -50.461  1.00  0.00    -0.268 OA
HETATM   24  N   UNL     1     -40.919  54.395 -51.982  1.00  0.00    -0.353 N 
HETATM   25  H   UNL     1     -40.708  54.659 -52.933  1.00  0.00     0.163 HD
BRANCH  24  26
HETATM   26  C   UNL     1     -40.051  53.418 -51.363  1.00  0.00     0.161 C 
BRANCH  26  27
HETATM   27  C   UNL     1     -39.965  52.160 -52.187  1.00  0.00    -0.041 A 
HETATM   28  C   UNL     1     -39.603  50.938 -51.601  1.00  0.00     0.009 A 
HETATM   29  C   UNL     1     -39.522  49.779 -52.377  1.00  0.00     0.001 A 
HETATM   30  C   UNL     1     -39.796  49.832 -53.742  1.00  0.00     0.000 A 
HETATM   31  C   UNL     1     -40.145  51.043 -54.337  1.00  0.00     0.001 A 
HETATM   32  C   UNL     1     -40.224  52.201 -53.565  1.00  0.00     0.009 A 
ENDBRANCH  26  27
ENDBRANCH  24  26
ENDBRANCH   1  22
TORSDOF 7
ENDMDL
MODEL 6
REMARK VINA RESULT:      -8.0     15.044     17.623
REMARK  7 active torsions:
REMARK  status: ('A' for Active; 'I' for Inactive)
REMARK       I    between atoms: C_2  and  N_3 
REMARK    1  A    between atoms: C_2  and  C_11 
REMARK    2  A    between atoms: N_3  and  C_4 
REMARK    3  A    between atoms: C_4  and  C_5 
REMARK    4  A    between atoms: C_15  and  N_16 
REMARK    5  A    between atoms: N_16  and  C_17 
REMARK    6  A    between atoms: C_17  and  C_18 
REMARK    7  A    between atoms: C_20  and  C_24 
ROOT
HETATM    1  C   UNL     1     -33.878  39.597 -49.841  1.00  0.00     0.033 A 
HETATM    2  C   UNL     1     -35.148  39.113 -49.512  1.00  0.00     0.017 A 
HETATM    3  C   UNL     1     -36.272  39.671 -50.114  1.00  0.00     0.003 A 
HETATM    4  C   UNL     1     -36.125  40.718 -51.029  1.00  0.00     0.023 A 
HETATM    5  C   UNL     1     -34.864  41.245 -51.346  1.00  0.00     0.009 A 
HETATM    6  C   UNL     1     -33.740  40.637 -50.773  1.00  0.00     0.040 A 
ENDROOT
BRANCH   5   7
HETATM    7  N   UNL     1     -34.790  42.247 -52.322  1.00  0.00    -0.286 NA
HETATM    8  H   UNL     1     -33.925  42.172 -52.859  1.00  0.00     0.128 HD
BRANCH   7   9
HETATM    9  C   UNL     1     -35.919  42.426 -53.235  1.00  0.00     0.171 C 
BRANCH   9  10
HETATM   10  C   UNL     1     -35.568  42.035 -54.638  1.00  0.00     0.117 A 
HETATM   11  N   UNL     1     -36.404  41.854 -55.641  1.00  0.00    -0.232 NA
HETATM   12  C   UNL     1     -35.637  41.437 -56.707  1.00  0.00     0.084 A 
HETATM   13  C   UNL     1     -34.312  41.366 -56.336  1.00  0.00     0.122 A 
HETATM   14  N   UNL     1     -34.284  41.735 -55.018  1.00  0.00    -0.351 N 
HETATM   15  H   UNL     1     -33.473  41.757 -54.415  1.00  0.00     0.166 HD
BRANCH  12  16
HETATM   16  C   UNL     1     -36.205  41.113 -58.007  1.00  0.00    -0.003 A 
HETATM   17  C   UNL     1     -36.914  42.094 -58.706  1.00  0.00     0.033 A 
HETATM   18  C   UNL     1     -37.461  41.774 -59.937  1.00  0.00     0.117 A 
HETATM   19  N   UNL     1     -37.351  40.560 -60.513  1.00  0.00    -0.273 NA
HETATM   20  C   UNL     1     -36.661  39.626 -59.825  1.00  0.00     0.117 A 
HETATM   21  C   UNL     1     -36.078  39.850 -58.587  1.00  0.00     0.033 A 
ENDBRANCH  12  16
ENDBRANCH   9  10
ENDBRANCH   7   9
ENDBRANCH   5   7
BRANCH   1  22
HETATM   22  C   UNL     1     -32.647  39.000 -49.257  1.00  0.00     0.251 C 
HETATM   23  O   UNL     1     -31.598  39.012 -49.891  1.00  0.00    -0.268 OA
HETATM   24  N   UNL     1     -32.776  38.479 -47.987  1.00  0.00    -0.353 N 
HETATM   25  H   UNL     1     -33.590  38.722 -47.441  1.00  0.00     0.163 HD
BRANCH  24  26
HETATM   26  C   UNL     1     -31.643  37.935 -47.273  1.00  0.00     0.161 C 
BRANCH  26  27
HETATM   27  C   UNL     1     -31.076  38.935 -46.299  1.00  0.00    -0.041 A 
HETATM   28  C   UNL     1     -30.308  40.020 -46.745  1.00  0.00     0.009 A 
HETATM   29  C   UNL     1     -29.784  40.937 -45.831  1.00  0.00     0.001 A 
HETATM   30  C   UNL     1     -30.017  40.775 -44.467  1.00  0.00     0.000 A 
HETATM   31  C   UNL     1     -30.768  39.694 -44.012  1.00  0.00     0.001 A 
HETATM   32  C   UNL     1     -31.291  38.776 -44.922  1.00  0.00     0.009 A 
ENDBRANCH  26  27
ENDBRANCH  24  26
ENDBRANCH   1  22
TORSDOF 7
ENDMDL
MODEL 7
REMARK VINA RESULT:      -7.9      1.947      7.993
REMARK  7 active torsions:
REMARK  status: ('A' for Active; 'I' for Inactive)
REMARK       I    between atoms: C_2  and  N_3 
REMARK    1  A    between atoms: C_2  and  C_11 
REMARK    2  A    between atoms: N_3  and  C_4 
REMARK    3  A    between atoms: C_4  and  C_5 
REMARK    4  A    between atoms: C_15  and  N_16 
REMARK    5  A    between atoms: N_16  and  C_17 
REMARK    6  A    between atoms: C_17  and  C_18 
REMARK    7  A    between atoms: C_20  and  C_24 
ROOT
HETATM    1  C   UNL     1     -43.223  57.326 -54.448  1.00  0.00     0.033 A 
HETATM    2  C   UNL     1     -44.296  58.220 -54.362  1.00  0.00     0.017 A 
HETATM    3  C   UNL     1     -44.744  58.634 -53.112  1.00  0.00     0.003 A 
HETATM    4  C   UNL     1     -44.130  58.147 -51.954  1.00  0.00     0.023 A 
HETATM    5  C   UNL     1     -43.076  57.222 -52.016  1.00  0.00     0.009 A 
HETATM    6  C   UNL     1     -42.602  56.856 -53.281  1.00  0.00     0.040 A 
ENDROOT
BRANCH   5   7
HETATM    7  N   UNL     1     -42.466  56.831 -50.817  1.00  0.00    -0.286 NA
HETATM    8  H   UNL     1     -42.651  57.507 -50.075  1.00  0.00     0.128 HD
BRANCH   7   9
HETATM    9  C   UNL     1     -42.700  55.477 -50.315  1.00  0.00     0.171 C 
BRANCH   9  10
HETATM   10  C   UNL     1     -41.581  54.548 -50.675  1.00  0.00     0.117 A 
HETATM   11  N   UNL     1     -41.646  53.508 -51.481  1.00  0.00    -0.232 NA
HETATM   12  C   UNL     1     -40.399  52.922 -51.451  1.00  0.00     0.084 A 
HETATM   13  C   UNL     1     -39.568  53.626 -50.607  1.00  0.00     0.122 A 
HETATM   14  N   UNL     1     -40.334  54.647 -50.111  1.00  0.00    -0.351 N 
HETATM   15  H   UNL     1     -40.051  55.337 -49.429  1.00  0.00     0.166 HD
BRANCH  12  16
HETATM   16  C   UNL     1     -40.074  51.722 -52.207  1.00  0.00    -0.003 A 
HETATM   17  C   UNL     1     -40.119  51.762 -53.603  1.00  0.00     0.033 A 
HETATM   18  C   UNL     1     -39.818  50.612 -54.314  1.00  0.00     0.117 A 
HETATM   19  N   UNL     1     -39.480  49.441 -53.737  1.00  0.00    -0.273 NA
HETATM   20  C   UNL     1     -39.441  49.422 -52.389  1.00  0.00     0.117 A 
HETATM   21  C   UNL     1     -39.725  50.520 -51.590  1.00  0.00     0.033 A 
ENDBRANCH  12  16
ENDBRANCH   9  10
ENDBRANCH   7   9
ENDBRANCH   5   7
BRANCH   1  22
HETATM   22  C   UNL     1     -42.682  56.892 -55.764  1.00  0.00     0.251 C 
HETATM   23  O   UNL     1     -42.033  55.856 -55.850  1.00  0.00    -0.268 OA
HETATM   24  N   UNL     1     -42.983  57.705 -56.836  1.00  0.00    -0.353 N 
HETATM   25  H   UNL     1     -43.714  58.393 -56.735  1.00  0.00     0.163 HD
BRANCH  24  26
HETATM   26  C   UNL     1     -42.583  57.363 -58.182  1.00  0.00     0.161 C 
BRANCH  26  27
HETATM   27  C   UNL     1     -43.707  56.704 -58.938  1.00  0.00    -0.041 A 
HETATM   28  C   UNL     1     -44.931  57.362 -59.127  1.00  0.00     0.009 A 
HETATM   29  C   UNL     1     -45.968  56.739 -59.826  1.00  0.00     0.001 A 
HETATM   30  C   UNL     1     -45.793  55.454 -60.336  1.00  0.00     0.000 A 
HETATM   31  C   UNL     1     -44.586  54.786 -60.143  1.00  0.00     0.001 A 
HETATM   32  C   UNL     1     -43.550  55.406 -59.445  1.00  0.00     0.009 A 
ENDBRANCH  26  27
ENDBRANCH  24  26
ENDBRANCH   1  22
TORSDOF 7
ENDMDL
MODEL 8
REMARK VINA RESULT:      -7.8      4.131      9.599
REMARK  7 active torsions:
REMARK  status: ('A' for Active; 'I' for Inactive)
REMARK       I    between atoms: C_2  and  N_3 
REMARK    1  A    between atoms: C_2  and  C_11 
REMARK    2  A    between atoms: N_3  and  C_4 
REMARK    3  A    between atoms: C_4  and  C_5 
REMARK    4  A    between atoms: C_15  and  N_16 
REMARK    5  A    between atoms: N_16  and  C_17 
REMARK    6  A    between atoms: C_17  and  C_18 
REMARK    7  A    between atoms: C_20  and  C_24 
ROOT
HETATM    1  C   UNL     1     -42.917  58.207 -57.976  1.00  0.00     0.033 A 
HETATM    2  C   UNL     1     -42.761  57.454 -59.144  1.00  0.00     0.017 A 
HETATM    3  C   UNL     1     -42.833  56.066 -59.080  1.00  0.00     0.003 A 
HETATM    4  C   UNL     1     -43.046  55.435 -57.851  1.00  0.00     0.023 A 
HETATM    5  C   UNL     1     -43.169  56.169 -56.660  1.00  0.00     0.009 A 
HETATM    6  C   UNL     1     -43.148  57.565 -56.749  1.00  0.00     0.040 A 
ENDROOT
BRANCH   5   7
HETATM    7  N   UNL     1     -43.450  55.471 -55.478  1.00  0.00    -0.286 NA
HETATM    8  H   UNL     1     -43.214  54.482 -55.572  1.00  0.00     0.128 HD
BRANCH   7   9
HETATM    9  C   UNL     1     -42.920  55.983 -54.214  1.00  0.00     0.171 C 
BRANCH   9  10
HETATM   10  C   UNL     1     -41.971  55.016 -53.576  1.00  0.00     0.117 A 
HETATM   11  N   UNL     1     -41.724  53.780 -53.960  1.00  0.00    -0.232 NA
HETATM   12  C   UNL     1     -40.844  53.260 -53.037  1.00  0.00     0.084 A 
HETATM   13  C   UNL     1     -40.556  54.204 -52.076  1.00  0.00     0.122 A 
HETATM   14  N   UNL     1     -41.287  55.309 -52.423  1.00  0.00    -0.351 N 
HETATM   15  H   UNL     1     -41.344  56.179 -51.911  1.00  0.00     0.166 HD
BRANCH  12  16
HETATM   16  C   UNL     1     -40.343  51.896 -53.107  1.00  0.00    -0.003 A 
HETATM   17  C   UNL     1     -40.384  51.216 -54.328  1.00  0.00     0.033 A 
HETATM   18  C   UNL     1     -39.914  49.914 -54.383  1.00  0.00     0.117 A 
HETATM   19  N   UNL     1     -39.413  49.252 -53.321  1.00  0.00    -0.273 NA
HETATM   20  C   UNL     1     -39.380  49.925 -52.152  1.00  0.00     0.117 A 
HETATM   21  C   UNL     1     -39.826  51.229 -51.995  1.00  0.00     0.033 A 
ENDBRANCH  12  16
ENDBRANCH   9  10
ENDBRANCH   7   9
ENDBRANCH   5   7
BRANCH   1  22
HETATM   22  C   UNL     1     -42.893  59.694 -58.005  1.00  0.00     0.251 C 
HETATM   23  O   UNL     1     -43.930  60.329 -57.848  1.00  0.00    -0.268 OA
HETATM   24  N   UNL     1     -41.655  60.272 -58.188  1.00  0.00    -0.353 N 
HETATM   25  H   UNL     1     -40.829  59.704 -58.064  1.00  0.00     0.163 HD
BRANCH  24  26
HETATM   26  C   UNL     1     -41.477  61.706 -58.163  1.00  0.00     0.161 C 
BRANCH  26  27
HETATM   27  C   UNL     1     -40.804  62.198 -59.418  1.00  0.00    -0.041 A 
HETATM   28  C   UNL     1     -39.655  62.998 -59.355  1.00  0.00     0.009 A 
HETATM   29  C   UNL     1     -39.043  63.451 -60.526  1.00  0.00     0.001 A 
HETATM   30  C   UNL     1     -39.577  63.115 -61.768  1.00  0.00     0.000 A 
HETATM   31  C   UNL     1     -40.726  62.331 -61.843  1.00  0.00     0.001 A 
HETATM   32  C   UNL     1     -41.339  61.878 -60.675  1.00  0.00     0.009 A 
ENDBRANCH  26  27
ENDBRANCH  24  26
ENDBRANCH   1  22
TORSDOF 7
ENDMDL
MODEL 9
REMARK VINA RESULT:      -7.8      4.487      9.948
REMARK  7 active torsions:
REMARK  status: ('A' for Active; 'I' for Inactive)
REMARK       I    between atoms: C_2  and  N_3 
REMARK    1  A    between atoms: C_2  and  C_11 
REMARK    2  A    between atoms: N_3  and  C_4 
REMARK    3  A    between atoms: C_4  and  C_5 
REMARK    4  A    between atoms: C_15  and  N_16 
REMARK    5  A    between atoms: N_16  and  C_17 
REMARK    6  A    between atoms: C_17  and  C_18 
REMARK    7  A    between atoms: C_20  and  C_24 
ROOT
HETATM    1  C   UNL     1     -43.291  57.967 -59.797  1.00  0.00     0.033 A 
HETATM    2  C   UNL     1     -43.635  56.721 -60.332  1.00  0.00     0.017 A 
HETATM    3  C   UNL     1     -43.636  55.598 -59.509  1.00  0.00     0.003 A 
HETATM    4  C   UNL     1     -43.280  55.721 -58.163  1.00  0.00     0.023 A 
HETATM    5  C   UNL     1     -42.896  56.954 -57.614  1.00  0.00     0.009 A 
HETATM    6  C   UNL     1     -42.952  58.083 -58.440  1.00  0.00     0.040 A 
ENDROOT
BRANCH   5   7
HETATM    7  N   UNL     1     -42.620  57.012 -56.242  1.00  0.00    -0.286 NA
HETATM    8  H   UNL     1     -42.215  57.914 -55.987  1.00  0.00     0.128 HD
BRANCH   7   9
HETATM    9  C   UNL     1     -43.679  56.665 -55.294  1.00  0.00     0.171 C 
BRANCH   9  10
HETATM   10  C   UNL     1     -43.180  55.760 -54.208  1.00  0.00     0.117 A 
HETATM   11  N   UNL     1     -42.162  54.926 -54.280  1.00  0.00    -0.232 NA
HETATM   12  C   UNL     1     -42.125  54.262 -53.074  1.00  0.00     0.084 A 
HETATM   13  C   UNL     1     -43.144  54.707 -52.260  1.00  0.00     0.122 A 
HETATM   14  N   UNL     1     -43.813  55.648 -52.996  1.00  0.00    -0.351 N 
HETATM   15  H   UNL     1     -44.644  56.152 -52.719  1.00  0.00     0.166 HD
BRANCH  12  16
HETATM   16  C   UNL     1     -41.141  53.235 -52.770  1.00  0.00    -0.003 A 
HETATM   17  C   UNL     1     -40.785  53.002 -51.439  1.00  0.00     0.033 A 
HETATM   18  C   UNL     1     -39.840  52.029 -51.159  1.00  0.00     0.117 A 
HETATM   19  N   UNL     1     -39.233  51.281 -52.103  1.00  0.00    -0.273 NA
HETATM   20  C   UNL     1     -39.591  51.518 -53.382  1.00  0.00     0.117 A 
HETATM   21  C   UNL     1     -40.526  52.469 -53.762  1.00  0.00     0.033 A 
ENDBRANCH  12  16
ENDBRANCH   9  10
ENDBRANCH   7   9
ENDBRANCH   5   7
BRANCH   1  22
HETATM   22  C   UNL     1     -43.321  59.200 -60.629  1.00  0.00     0.251 C 
HETATM   23  O   UNL     1     -44.387  59.764 -60.853  1.00  0.00    -0.268 OA
HETATM   24  N   UNL     1     -42.100  59.649 -61.083  1.00  0.00    -0.353 N 
HETATM   25  H   UNL     1     -41.259  59.282 -60.661  1.00  0.00     0.163 HD
BRANCH  24  26
HETATM   26  C   UNL     1     -41.977  60.875 -61.838  1.00  0.00     0.161 C 
BRANCH  26  27
HETATM   27  C   UNL     1     -41.025  61.836 -61.174  1.00  0.00    -0.041 A 
HETATM   28  C   UNL     1     -40.166  62.641 -61.935  1.00  0.00     0.009 A 
HETATM   29  C   UNL     1     -39.285  63.525 -61.308  1.00  0.00     0.001 A 
HETATM   30  C   UNL     1     -39.250  63.607 -59.917  1.00  0.00     0.000 A 
HETATM   31  C   UNL     1     -40.090  62.802 -59.151  1.00  0.00     0.001 A 
HETATM   32  C   UNL     1     -40.970  61.918 -59.775  1.00  0.00     0.009 A 
ENDBRANCH  26  27
ENDBRANCH  24  26
ENDBRANCH   1  22
TORSDOF 7
ENDMDL
MODEL 10
REMARK VINA RESULT:      -7.8      1.567      2.255
REMARK  7 active torsions:
REMARK  status: ('A' for Active; 'I' for Inactive)
REMARK       I    between atoms: C_2  and  N_3 
REMARK    1  A    between atoms: C_2  and  C_11 
REMARK    2  A    between atoms: N_3  and  C_4 
REMARK    3  A    between atoms: C_4  and  C_5 
REMARK    4  A    between atoms: C_15  and  N_16 
REMARK    5  A    between atoms: N_16  and  C_17 
REMARK    6  A    between atoms: C_17  and  C_18 
REMARK    7  A    between atoms: C_20  and  C_24 
ROOT
HETATM    1  C   UNL     1     -42.008  56.235 -51.877  1.00  0.00     0.033 A 
HETATM    2  C   UNL     1     -42.341  57.469 -51.307  1.00  0.00     0.017 A 
HETATM    3  C   UNL     1     -43.058  58.398 -52.056  1.00  0.00     0.003 A 
HETATM    4  C   UNL     1     -43.427  58.098 -53.370  1.00  0.00     0.023 A 
HETATM    5  C   UNL     1     -43.071  56.882 -53.974  1.00  0.00     0.009 A 
HETATM    6  C   UNL     1     -42.397  55.937 -53.192  1.00  0.00     0.040 A 
ENDROOT
BRANCH   5   7
HETATM    7  N   UNL     1     -43.535  56.626 -55.271  1.00  0.00    -0.286 NA
HETATM    8  H   UNL     1     -44.434  56.143 -55.249  1.00  0.00     0.128 HD
BRANCH   7   9
HETATM    9  C   UNL     1     -43.594  57.729 -56.230  1.00  0.00     0.171 C 
BRANCH   9  10
HETATM   10  C   UNL     1     -44.907  57.770 -56.951  1.00  0.00     0.117 A 
HETATM   11  N   UNL     1     -45.099  57.668 -58.251  1.00  0.00    -0.232 NA
HETATM   12  C   UNL     1     -46.452  57.831 -58.452  1.00  0.00     0.084 A 
HETATM   13  C   UNL     1     -47.086  58.038 -57.247  1.00  0.00     0.122 A 
HETATM   14  N   UNL     1     -46.093  58.009 -56.304  1.00  0.00    -0.351 N 
HETATM   15  H   UNL     1     -46.200  58.165 -55.311  1.00  0.00     0.166 HD
BRANCH  12  16
HETATM   16  C   UNL     1     -47.060  57.802 -59.773  1.00  0.00    -0.003 A 
HETATM   17  C   UNL     1     -47.243  56.573 -60.414  1.00  0.00     0.033 A 
HETATM   18  C   UNL     1     -47.813  56.555 -61.676  1.00  0.00     0.117 A 
HETATM   19  N   UNL     1     -48.210  57.663 -62.334  1.00  0.00    -0.273 NA
HETATM   20  C   UNL     1     -48.028  58.840 -61.700  1.00  0.00     0.117 A 
HETATM   21  C   UNL     1     -47.466  58.961 -60.437  1.00  0.00     0.033 A 
ENDBRANCH  12  16
ENDBRANCH   9  10
ENDBRANCH   7   9
ENDBRANCH   5   7
BRANCH   1  22
HETATM   22  C   UNL     1     -41.282  55.195 -51.098  1.00  0.00     0.251 C 
HETATM   23  O   UNL     1     -41.348  55.186 -49.874  1.00  0.00    -0.268 OA
HETATM   24  N   UNL     1     -40.583  54.268 -51.841  1.00  0.00    -0.353 N 
HETATM   25  H   UNL     1     -40.773  54.192 -52.829  1.00  0.00     0.163 HD
BRANCH  24  26
HETATM   26  C   UNL     1     -39.895  53.161 -51.216  1.00  0.00     0.161 C 
BRANCH  26  27
HETATM   27  C   UNL     1     -39.857  51.957 -52.121  1.00  0.00    -0.041 A 
HETATM   28  C   UNL     1     -39.587  50.679 -51.610  1.00  0.00     0.009 A 
HETATM   29  C   UNL     1     -39.551  49.572 -52.461  1.00  0.00     0.001 A 
HETATM   30  C   UNL     1     -39.776  49.732 -53.826  1.00  0.00     0.000 A 
HETATM   31  C   UNL     1     -40.033  50.998 -54.346  1.00  0.00     0.001 A 
HETATM   32  C   UNL     1     -40.069  52.106 -53.500  1.00  0.00     0.009 A 
ENDBRANCH  26  27
ENDBRANCH  24  26
ENDBRANCH   1  22
TORSDOF 7
ENDMDL
