MODEL 1
REMARK VINA RESULT:      -7.5      0.000      0.000
REMARK  6 active torsions:
REMARK  status: ('A' for Active; 'I' for Inactive)
REMARK    1  A    between atoms: C_3  and  N_4 
REMARK       I    between atoms: N_4  and  C_5 
REMARK       I    between atoms: C_5  and  N_6 
REMARK    2  A    between atoms: N_6  and  C_7 
REMARK    3  A    between atoms: C_7  and  C_8 
REMARK    4  A    between atoms: C_9  and  O_10 
REMARK    5  A    between atoms: O_10  and  C_11 
REMARK    6  A    between atoms: C_11  and  C_12 
ROOT
HETATM    1  N   UNL     1     -43.285  55.320 -53.920  1.00  0.00    -0.307 N 
HETATM    2  C   UNL     1     -41.946  55.113 -54.181  1.00  0.00     0.321 C 
HETATM    3  N   UNL     1     -41.674  53.764 -54.199  1.00  0.00    -0.339 N 
HETATM    4  O   UNL     1     -41.087  55.975 -54.302  1.00  0.00    -0.247 OA
HETATM    5  H   UNL     1     -43.649  54.616 -53.293  1.00  0.00     0.170 HD
HETATM    6  H   UNL     1     -42.399  53.176 -54.586  1.00  0.00     0.164 HD
ENDROOT
BRANCH   3   7
HETATM    7  C   UNL     1     -40.329  53.275 -54.402  1.00  0.00     0.165 C 
BRANCH   7   8
HETATM    8  C   UNL     1     -40.071  51.968 -53.693  1.00  0.00    -0.007 A 
HETATM    9  C   UNL     1     -39.816  51.918 -52.309  1.00  0.00     0.076 A 
HETATM   10  C   UNL     1     -39.518  50.692 -51.706  1.00  0.00     0.037 A 
HETATM   11  C   UNL     1     -39.488  49.518 -52.465  1.00  0.00     0.003 A 
HETATM   12  C   UNL     1     -39.763  49.559 -53.827  1.00  0.00     0.001 A 
HETATM   13  C   UNL     1     -40.055  50.776 -54.439  1.00  0.00     0.011 A 
BRANCH   9  14
HETATM   14  O   UNL     1     -39.910  53.114 -51.643  1.00  0.00    -0.350 OA
BRANCH  14  15
HETATM   15  C   UNL     1     -40.583  53.117 -50.382  1.00  0.00     0.179 C 
BRANCH  15  16
HETATM   16  C   UNL     1     -40.058  54.304 -49.559  1.00  0.00     0.002 C 
HETATM   17  C   UNL     1     -40.694  55.616 -50.030  1.00  0.00     0.011 C 
HETATM   18  C   UNL     1     -40.331  54.088 -48.072  1.00  0.00     0.011 C 
ENDBRANCH  15  16
ENDBRANCH  14  15
ENDBRANCH   9  14
ENDBRANCH   7   8
ENDBRANCH   3   7
BRANCH   1  19
HETATM   19  C   UNL     1     -43.898  56.592 -53.850  1.00  0.00     0.059 A 
HETATM   20  C   UNL     1     -44.208  57.273 -52.663  1.00  0.00    -0.032 A 
HETATM   21  C   UNL     1     -43.866  56.770 -51.290  1.00  0.00     0.050 C 
HETATM   22  C   UNL     1     -44.852  58.517 -52.762  1.00  0.00     0.028 A 
HETATM   23  C   UNL     1     -45.108  59.057 -54.013  1.00  0.00     0.117 A 
HETATM   24  N   UNL     1     -44.765  58.459 -55.168  1.00  0.00    -0.271 NA
HETATM   25  C   UNL     1     -44.169  57.248 -55.055  1.00  0.00     0.146 A 
ENDBRANCH   1  19
TORSDOF 6
ENDMDL
MODEL 2
REMARK VINA RESULT:      -7.4      2.630      3.465
REMARK  6 active torsions:
REMARK  status: ('A' for Active; 'I' for Inactive)
REMARK    1  A    between atoms: C_3  and  N_4 
REMARK       I    between atoms: N_4  and  C_5 
REMARK       I    between atoms: C_5  and  N_6 
REMARK    2  A    between atoms: N_6  and  C_7 
REMARK    3  A    between atoms: C_7  and  C_8 
REMARK    4  A    between atoms: C_9  and  O_10 
REMARK    5  A    between atoms: O_10  and  C_11 
REMARK    6  A    between atoms: C_11  and  C_12 
ROOT
HETATM    1  N   UNL     1     -43.310  55.307 -56.880  1.00  0.00    -0.307 N 
HETATM    2  C   UNL     1     -42.404  55.533 -55.863  1.00  0.00     0.321 C 
HETATM    3  N   UNL     1     -42.484  54.524 -54.930  1.00  0.00    -0.339 N 
HETATM    4  O   UNL     1     -41.684  56.512 -55.736  1.00  0.00    -0.247 OA
HETATM    5  H   UNL     1     -44.148  54.862 -56.532  1.00  0.00     0.170 HD
HETATM    6  H   UNL     1     -42.666  53.600 -55.298  1.00  0.00     0.164 HD
ENDROOT
BRANCH   3   7
HETATM    7  C   UNL     1     -41.675  54.546 -53.733  1.00  0.00     0.165 C 
BRANCH   7   8
HETATM    8  C   UNL     1     -40.968  53.236 -53.482  1.00  0.00    -0.007 A 
HETATM    9  C   UNL     1     -40.260  52.998 -52.288  1.00  0.00     0.076 A 
HETATM   10  C   UNL     1     -39.567  51.794 -52.127  1.00  0.00     0.037 A 
HETATM   11  C   UNL     1     -39.585  50.825 -53.134  1.00  0.00     0.003 A 
HETATM   12  C   UNL     1     -40.303  51.046 -54.304  1.00  0.00     0.001 A 
HETATM   13  C   UNL     1     -40.992  52.244 -54.478  1.00  0.00     0.011 A 
BRANCH   9  14
HETATM   14  O   UNL     1     -40.336  53.990 -51.343  1.00  0.00    -0.350 OA
BRANCH  14  15
HETATM   15  C   UNL     1     -40.987  53.678 -50.109  1.00  0.00     0.179 C 
BRANCH  15  16
HETATM   16  C   UNL     1     -41.969  54.813 -49.783  1.00  0.00     0.002 C 
HETATM   17  C   UNL     1     -41.397  56.169 -50.209  1.00  0.00     0.011 C 
HETATM   18  C   UNL     1     -43.314  54.570 -50.463  1.00  0.00     0.011 C 
ENDBRANCH  15  16
ENDBRANCH  14  15
ENDBRANCH   9  14
ENDBRANCH   7   8
ENDBRANCH   3   7
BRANCH   1  19
HETATM   19  C   UNL     1     -43.472  56.145 -58.006  1.00  0.00     0.059 A 
HETATM   20  C   UNL     1     -44.185  57.353 -58.014  1.00  0.00    -0.032 A 
HETATM   21  C   UNL     1     -44.823  57.963 -56.799  1.00  0.00     0.050 C 
HETATM   22  C   UNL     1     -44.286  58.055 -59.227  1.00  0.00     0.028 A 
HETATM   23  C   UNL     1     -43.638  57.571 -60.353  1.00  0.00     0.117 A 
HETATM   24  N   UNL     1     -42.893  56.450 -60.360  1.00  0.00    -0.271 NA
HETATM   25  C   UNL     1     -42.829  55.772 -59.190  1.00  0.00     0.146 A 
ENDBRANCH   1  19
TORSDOF 6
ENDMDL
MODEL 3
REMARK VINA RESULT:      -7.4      2.374      7.391
REMARK  6 active torsions:
REMARK  status: ('A' for Active; 'I' for Inactive)
REMARK    1  A    between atoms: C_3  and  N_4 
REMARK       I    between atoms: N_4  and  C_5 
REMARK       I    between atoms: C_5  and  N_6 
REMARK    2  A    between atoms: N_6  and  C_7 
REMARK    3  A    between atoms: C_7  and  C_8 
REMARK    4  A    between atoms: C_9  and  O_10 
REMARK    5  A    between atoms: O_10  and  C_11 
REMARK    6  A    between atoms: C_11  and  C_12 
ROOT
HETATM    1  N   UNL     1     -39.954  53.331 -51.659  1.00  0.00    -0.307 N 
HETATM    2  C   UNL     1     -41.138  53.983 -51.380  1.00  0.00     0.321 C 
HETATM    3  N   UNL     1     -40.879  55.170 -50.734  1.00  0.00    -0.339 N 
HETATM    4  O   UNL     1     -42.267  53.562 -51.588  1.00  0.00    -0.247 OA
HETATM    5  H   UNL     1     -39.267  53.495 -50.937  1.00  0.00     0.170 HD
HETATM    6  H   UNL     1     -40.048  55.660 -51.034  1.00  0.00     0.164 HD
ENDROOT
BRANCH   3   7
HETATM    7  C   UNL     1     -41.952  56.026 -50.282  1.00  0.00     0.165 C 
BRANCH   7   8
HETATM    8  C   UNL     1     -41.930  57.385 -50.938  1.00  0.00    -0.007 A 
HETATM    9  C   UNL     1     -42.778  57.697 -52.018  1.00  0.00     0.076 A 
HETATM   10  C   UNL     1     -42.678  58.947 -52.635  1.00  0.00     0.037 A 
HETATM   11  C   UNL     1     -41.753  59.891 -52.179  1.00  0.00     0.003 A 
HETATM   12  C   UNL     1     -40.930  59.596 -51.097  1.00  0.00     0.001 A 
HETATM   13  C   UNL     1     -41.018  58.352 -50.479  1.00  0.00     0.011 A 
BRANCH   9  14
HETATM   14  O   UNL     1     -43.680  56.723 -52.366  1.00  0.00    -0.350 OA
BRANCH  14  15
HETATM   15  C   UNL     1     -43.941  56.530 -53.758  1.00  0.00     0.179 C 
BRANCH  15  16
HETATM   16  C   UNL     1     -42.835  55.634 -54.336  1.00  0.00     0.002 C 
HETATM   17  C   UNL     1     -43.419  54.326 -54.876  1.00  0.00     0.011 C 
HETATM   18  C   UNL     1     -42.072  56.367 -55.437  1.00  0.00     0.011 C 
ENDBRANCH  15  16
ENDBRANCH  14  15
ENDBRANCH   9  14
ENDBRANCH   7   8
ENDBRANCH   3   7
BRANCH   1  19
HETATM   19  C   UNL     1     -39.865  52.091 -52.333  1.00  0.00     0.059 A 
HETATM   20  C   UNL     1     -39.945  51.924 -53.723  1.00  0.00    -0.032 A 
HETATM   21  C   UNL     1     -40.070  53.056 -54.702  1.00  0.00     0.050 C 
HETATM   22  C   UNL     1     -39.876  50.619 -54.238  1.00  0.00     0.028 A 
HETATM   23  C   UNL     1     -39.674  49.553 -53.376  1.00  0.00     0.117 A 
HETATM   24  N   UNL     1     -39.528  49.688 -52.045  1.00  0.00    -0.271 NA
HETATM   25  C   UNL     1     -39.624  50.949 -51.562  1.00  0.00     0.146 A 
ENDBRANCH   1  19
TORSDOF 6
ENDMDL
MODEL 4
REMARK VINA RESULT:      -7.1      2.864      5.228
REMARK  6 active torsions:
REMARK  status: ('A' for Active; 'I' for Inactive)
REMARK    1  A    between atoms: C_3  and  N_4 
REMARK       I    between atoms: N_4  and  C_5 
REMARK       I    between atoms: C_5  and  N_6 
REMARK    2  A    between atoms: N_6  and  C_7 
REMARK    3  A    between atoms: C_7  and  C_8 
REMARK    4  A    between atoms: C_9  and  O_10 
REMARK    5  A    between atoms: O_10  and  C_11 
REMARK    6  A    between atoms: C_11  and  C_12 
ROOT
HETATM    1  N   UNL     1     -43.637  56.443 -56.653  1.00  0.00    -0.307 N 
HETATM    2  C   UNL     1     -43.111  55.453 -55.846  1.00  0.00     0.321 C 
HETATM    3  N   UNL     1     -43.919  55.267 -54.747  1.00  0.00    -0.339 N 
HETATM    4  O   UNL     1     -42.051  54.868 -56.011  1.00  0.00    -0.247 OA
HETATM    5  H   UNL     1     -44.096  57.157 -56.105  1.00  0.00     0.170 HD
HETATM    6  H   UNL     1     -44.911  55.363 -54.911  1.00  0.00     0.164 HD
ENDROOT
BRANCH   3   7
HETATM    7  C   UNL     1     -43.568  54.319 -53.714  1.00  0.00     0.165 C 
BRANCH   7   8
HETATM    8  C   UNL     1     -42.690  54.921 -52.643  1.00  0.00    -0.007 A 
HETATM    9  C   UNL     1     -41.595  54.217 -52.107  1.00  0.00     0.076 A 
HETATM   10  C   UNL     1     -40.849  54.789 -51.072  1.00  0.00     0.037 A 
HETATM   11  C   UNL     1     -41.175  56.056 -50.579  1.00  0.00     0.003 A 
HETATM   12  C   UNL     1     -42.241  56.764 -51.122  1.00  0.00     0.001 A 
HETATM   13  C   UNL     1     -42.994  56.202 -52.150  1.00  0.00     0.011 A 
BRANCH   9  14
HETATM   14  O   UNL     1     -41.328  53.002 -52.684  1.00  0.00    -0.350 OA
BRANCH  14  15
HETATM   15  C   UNL     1     -40.269  52.943 -53.643  1.00  0.00     0.179 C 
BRANCH  15  16
HETATM   16  C   UNL     1     -39.504  51.627 -53.435  1.00  0.00     0.002 C 
HETATM   17  C   UNL     1     -39.488  51.234 -51.955  1.00  0.00     0.011 C 
HETATM   18  C   UNL     1     -40.121  50.510 -54.273  1.00  0.00     0.011 C 
ENDBRANCH  15  16
ENDBRANCH  14  15
ENDBRANCH   9  14
ENDBRANCH   7   8
ENDBRANCH   3   7
BRANCH   1  19
HETATM   19  C   UNL     1     -43.061  56.868 -57.872  1.00  0.00     0.059 A 
HETATM   20  C   UNL     1     -43.202  56.208 -59.102  1.00  0.00    -0.032 A 
HETATM   21  C   UNL     1     -44.047  54.984 -59.309  1.00  0.00     0.050 C 
HETATM   22  C   UNL     1     -42.535  56.739 -60.218  1.00  0.00     0.028 A 
HETATM   23  C   UNL     1     -41.814  57.916 -60.089  1.00  0.00     0.117 A 
HETATM   24  N   UNL     1     -41.715  58.607 -58.938  1.00  0.00    -0.271 NA
HETATM   25  C   UNL     1     -42.341  58.067 -57.866  1.00  0.00     0.146 A 
ENDBRANCH   1  19
TORSDOF 6
ENDMDL
MODEL 5
REMARK VINA RESULT:      -6.9      3.236      4.415
REMARK  6 active torsions:
REMARK  status: ('A' for Active; 'I' for Inactive)
REMARK    1  A    between atoms: C_3  and  N_4 
REMARK       I    between atoms: N_4  and  C_5 
REMARK       I    between atoms: C_5  and  N_6 
REMARK    2  A    between atoms: N_6  and  C_7 
REMARK    3  A    between atoms: C_7  and  C_8 
REMARK    4  A    between atoms: C_9  and  O_10 
REMARK    5  A    between atoms: O_10  and  C_11 
REMARK    6  A    between atoms: C_11  and  C_12 
ROOT
HETATM    1  N   UNL     1     -42.558  55.801 -57.815  1.00  0.00    -0.307 N 
HETATM    2  C   UNL     1     -42.674  55.943 -56.446  1.00  0.00     0.321 C 
HETATM    3  N   UNL     1     -41.440  55.796 -55.854  1.00  0.00    -0.339 N 
HETATM    4  O   UNL     1     -43.710  56.096 -55.816  1.00  0.00    -0.247 OA
HETATM    5  H   UNL     1     -41.843  55.130 -58.054  1.00  0.00     0.170 HD
HETATM    6  H   UNL     1     -40.657  56.168 -56.374  1.00  0.00     0.164 HD
ENDROOT
BRANCH   3   7
HETATM    7  C   UNL     1     -41.289  55.849 -54.418  1.00  0.00     0.165 C 
BRANCH   7   8
HETATM    8  C   UNL     1     -40.886  54.521 -53.824  1.00  0.00    -0.007 A 
HETATM    9  C   UNL     1     -41.034  54.253 -52.450  1.00  0.00     0.076 A 
HETATM   10  C   UNL     1     -40.588  53.033 -51.933  1.00  0.00     0.037 A 
HETATM   11  C   UNL     1     -40.012  52.076 -52.774  1.00  0.00     0.003 A 
HETATM   12  C   UNL     1     -39.885  52.327 -54.136  1.00  0.00     0.001 A 
HETATM   13  C   UNL     1     -40.321  53.541 -54.660  1.00  0.00     0.011 A 
BRANCH   9  14
HETATM   14  O   UNL     1     -41.649  55.235 -51.715  1.00  0.00    -0.350 OA
BRANCH  14  15
HETATM   15  C   UNL     1     -40.884  55.868 -50.686  1.00  0.00     0.179 C 
BRANCH  15  16
HETATM   16  C   UNL     1     -41.410  57.300 -50.507  1.00  0.00     0.002 C 
HETATM   17  C   UNL     1     -40.351  58.325 -50.923  1.00  0.00     0.011 C 
HETATM   18  C   UNL     1     -42.691  57.505 -51.312  1.00  0.00     0.011 C 
ENDBRANCH  15  16
ENDBRANCH  14  15
ENDBRANCH   9  14
ENDBRANCH   7   8
ENDBRANCH   3   7
BRANCH   1  19
HETATM   19  C   UNL     1     -43.636  55.913 -58.722  1.00  0.00     0.059 A 
HETATM   20  C   UNL     1     -44.213  57.121 -59.142  1.00  0.00    -0.032 A 
HETATM   21  C   UNL     1     -43.716  58.479 -58.734  1.00  0.00     0.050 C 
HETATM   22  C   UNL     1     -45.306  57.062 -60.022  1.00  0.00     0.028 A 
HETATM   23  C   UNL     1     -45.742  55.833 -60.492  1.00  0.00     0.117 A 
HETATM   24  N   UNL     1     -45.167  54.662 -60.158  1.00  0.00    -0.271 NA
HETATM   25  C   UNL     1     -44.133  54.735 -59.288  1.00  0.00     0.146 A 
ENDBRANCH   1  19
TORSDOF 6
ENDMDL
MODEL 6
REMARK VINA RESULT:      -6.8      3.946      8.168
REMARK  6 active torsions:
REMARK  status: ('A' for Active; 'I' for Inactive)
REMARK    1  A    between atoms: C_3  and  N_4 
REMARK       I    between atoms: N_4  and  C_5 
REMARK       I    between atoms: C_5  and  N_6 
REMARK    2  A    between atoms: N_6  and  C_7 
REMARK    3  A    between atoms: C_7  and  C_8 
REMARK    4  A    between atoms: C_9  and  O_10 
REMARK    5  A    between atoms: O_10  and  C_11 
REMARK    6  A    between atoms: C_11  and  C_12 
ROOT
HETATM    1  N   UNL     1     -42.760  54.114 -54.733  1.00  0.00    -0.307 N 
HETATM    2  C   UNL     1     -42.370  55.144 -55.565  1.00  0.00     0.321 C 
HETATM    3  N   UNL     1     -43.120  55.123 -56.720  1.00  0.00    -0.339 N 
HETATM    4  O   UNL     1     -41.449  55.925 -55.373  1.00  0.00    -0.247 OA
HETATM    5  H   UNL     1     -43.041  53.301 -55.263  1.00  0.00     0.170 HD
HETATM    6  H   UNL     1     -44.086  54.851 -56.609  1.00  0.00     0.164 HD
ENDROOT
BRANCH   3   7
HETATM    7  C   UNL     1     -42.878  56.069 -57.785  1.00  0.00     0.165 C 
BRANCH   7   8
HETATM    8  C   UNL     1     -43.918  55.998 -58.876  1.00  0.00    -0.007 A 
HETATM    9  C   UNL     1     -44.655  57.133 -59.267  1.00  0.00     0.076 A 
HETATM   10  C   UNL     1     -45.653  57.005 -60.237  1.00  0.00     0.037 A 
HETATM   11  C   UNL     1     -45.913  55.766 -60.829  1.00  0.00     0.003 A 
HETATM   12  C   UNL     1     -45.171  54.648 -60.464  1.00  0.00     0.001 A 
HETATM   13  C   UNL     1     -44.178  54.762 -59.494  1.00  0.00     0.011 A 
BRANCH   9  14
HETATM   14  O   UNL     1     -44.299  58.311 -58.660  1.00  0.00    -0.350 OA
BRANCH  14  15
HETATM   15  C   UNL     1     -44.156  59.465 -59.491  1.00  0.00     0.179 C 
BRANCH  15  16
HETATM   16  C   UNL     1     -42.665  59.829 -59.557  1.00  0.00     0.002 C 
HETATM   17  C   UNL     1     -41.989  59.606 -58.200  1.00  0.00     0.011 C 
HETATM   18  C   UNL     1     -41.961  59.012 -60.638  1.00  0.00     0.011 C 
ENDBRANCH  15  16
ENDBRANCH  14  15
ENDBRANCH   9  14
ENDBRANCH   7   8
ENDBRANCH   3   7
BRANCH   1  19
HETATM   19  C   UNL     1     -42.202  53.863 -53.458  1.00  0.00     0.059 A 
HETATM   20  C   UNL     1     -41.007  53.167 -53.225  1.00  0.00    -0.032 A 
HETATM   21  C   UNL     1     -40.110  52.646 -54.311  1.00  0.00     0.050 C 
HETATM   22  C   UNL     1     -40.606  52.968 -51.893  1.00  0.00     0.028 A 
HETATM   23  C   UNL     1     -41.360  53.508 -50.863  1.00  0.00     0.117 A 
HETATM   24  N   UNL     1     -42.475  54.236 -51.058  1.00  0.00    -0.271 NA
HETATM   25  C   UNL     1     -42.863  54.395 -52.346  1.00  0.00     0.146 A 
ENDBRANCH   1  19
TORSDOF 6
ENDMDL
MODEL 7
REMARK VINA RESULT:      -6.8      3.392      7.622
REMARK  6 active torsions:
REMARK  status: ('A' for Active; 'I' for Inactive)
REMARK    1  A    between atoms: C_3  and  N_4 
REMARK       I    between atoms: N_4  and  C_5 
REMARK       I    between atoms: C_5  and  N_6 
REMARK    2  A    between atoms: N_6  and  C_7 
REMARK    3  A    between atoms: C_7  and  C_8 
REMARK    4  A    between atoms: C_9  and  O_10 
REMARK    5  A    between atoms: O_10  and  C_11 
REMARK    6  A    between atoms: C_11  and  C_12 
ROOT
HETATM    1  N   UNL     1     -42.917  54.216 -55.108  1.00  0.00    -0.307 N 
HETATM    2  C   UNL     1     -42.579  55.251 -55.957  1.00  0.00     0.321 C 
HETATM    3  N   UNL     1     -43.271  55.132 -57.141  1.00  0.00    -0.339 N 
HETATM    4  O   UNL     1     -41.736  56.112 -55.753  1.00  0.00    -0.247 OA
HETATM    5  H   UNL     1     -43.106  53.367 -55.622  1.00  0.00     0.170 HD
HETATM    6  H   UNL     1     -44.215  54.782 -57.063  1.00  0.00     0.164 HD
ENDROOT
BRANCH   3   7
HETATM    7  C   UNL     1     -43.061  56.063 -58.226  1.00  0.00     0.165 C 
BRANCH   7   8
HETATM    8  C   UNL     1     -44.279  56.221 -59.103  1.00  0.00    -0.007 A 
HETATM    9  C   UNL     1     -45.247  57.212 -58.847  1.00  0.00     0.076 A 
HETATM   10  C   UNL     1     -46.391  57.280 -59.648  1.00  0.00     0.037 A 
HETATM   11  C   UNL     1     -46.572  56.383 -60.704  1.00  0.00     0.003 A 
HETATM   12  C   UNL     1     -45.607  55.419 -60.975  1.00  0.00     0.001 A 
HETATM   13  C   UNL     1     -44.466  55.338 -60.181  1.00  0.00     0.011 A 
BRANCH   9  14
HETATM   14  O   UNL     1     -44.961  58.071 -57.817  1.00  0.00    -0.350 OA
BRANCH  14  15
HETATM   15  C   UNL     1     -45.881  58.121 -56.723  1.00  0.00     0.179 C 
BRANCH  15  16
HETATM   16  C   UNL     1     -45.109  58.547 -55.465  1.00  0.00     0.002 C 
HETATM   17  C   UNL     1     -45.019  57.391 -54.464  1.00  0.00     0.011 C 
HETATM   18  C   UNL     1     -43.711  59.038 -55.833  1.00  0.00     0.011 C 
ENDBRANCH  15  16
ENDBRANCH  14  15
ENDBRANCH   9  14
ENDBRANCH   7   8
ENDBRANCH   3   7
BRANCH   1  19
HETATM   19  C   UNL     1     -42.399  54.051 -53.803  1.00  0.00     0.059 A 
HETATM   20  C   UNL     1     -41.183  53.426 -53.494  1.00  0.00    -0.032 A 
HETATM   21  C   UNL     1     -40.221  52.899 -54.520  1.00  0.00     0.050 C 
HETATM   22  C   UNL     1     -40.824  53.308 -52.140  1.00  0.00     0.028 A 
HETATM   23  C   UNL     1     -41.643  53.857 -51.165  1.00  0.00     0.117 A 
HETATM   24  N   UNL     1     -42.782  54.520 -51.436  1.00  0.00    -0.271 NA
HETATM   25  C   UNL     1     -43.126  54.601 -52.743  1.00  0.00     0.146 A 
ENDBRANCH   1  19
TORSDOF 6
ENDMDL
MODEL 8
REMARK VINA RESULT:      -6.6      1.804      4.087
REMARK  6 active torsions:
REMARK  status: ('A' for Active; 'I' for Inactive)
REMARK    1  A    between atoms: C_3  and  N_4 
REMARK       I    between atoms: N_4  and  C_5 
REMARK       I    between atoms: C_5  and  N_6 
REMARK    2  A    between atoms: N_6  and  C_7 
REMARK    3  A    between atoms: C_7  and  C_8 
REMARK    4  A    between atoms: C_9  and  O_10 
REMARK    5  A    between atoms: O_10  and  C_11 
REMARK    6  A    between atoms: C_11  and  C_12 
ROOT
HETATM    1  N   UNL     1     -42.960  56.894 -54.212  1.00  0.00    -0.307 N 
HETATM    2  C   UNL     1     -43.231  56.234 -53.030  1.00  0.00     0.321 C 
HETATM    3  N   UNL     1     -42.680  54.973 -53.059  1.00  0.00    -0.339 N 
HETATM    4  O   UNL     1     -43.922  56.646 -52.109  1.00  0.00    -0.247 OA
HETATM    5  H   UNL     1     -42.942  56.254 -54.993  1.00  0.00     0.170 HD
HETATM    6  H   UNL     1     -41.790  54.895 -53.532  1.00  0.00     0.164 HD
ENDROOT
BRANCH   3   7
HETATM    7  C   UNL     1     -42.861  54.052 -51.961  1.00  0.00     0.165 C 
BRANCH   7   8
HETATM    8  C   UNL     1     -41.760  54.145 -50.933  1.00  0.00    -0.007 A 
HETATM    9  C   UNL     1     -40.460  53.675 -51.202  1.00  0.00     0.076 A 
HETATM   10  C   UNL     1     -39.488  53.723 -50.198  1.00  0.00     0.037 A 
HETATM   11  C   UNL     1     -39.795  54.247 -48.939  1.00  0.00     0.003 A 
HETATM   12  C   UNL     1     -41.071  54.734 -48.676  1.00  0.00     0.001 A 
HETATM   13  C   UNL     1     -42.048  54.685 -49.668  1.00  0.00     0.011 A 
BRANCH   9  14
HETATM   14  O   UNL     1     -40.244  53.220 -52.478  1.00  0.00    -0.350 OA
BRANCH  14  15
HETATM   15  C   UNL     1     -39.702  51.905 -52.628  1.00  0.00     0.179 C 
BRANCH  15  16
HETATM   16  C   UNL     1     -39.942  51.448 -54.075  1.00  0.00     0.002 C 
HETATM   17  C   UNL     1     -40.023  49.921 -54.158  1.00  0.00     0.011 C 
HETATM   18  C   UNL     1     -41.219  52.076 -54.631  1.00  0.00     0.011 C 
ENDBRANCH  15  16
ENDBRANCH  14  15
ENDBRANCH   9  14
ENDBRANCH   7   8
ENDBRANCH   3   7
BRANCH   1  19
HETATM   19  C   UNL     1     -43.368  58.216 -54.499  1.00  0.00     0.059 A 
HETATM   20  C   UNL     1     -42.617  59.368 -54.223  1.00  0.00    -0.032 A 
HETATM   21  C   UNL     1     -41.233  59.352 -53.640  1.00  0.00     0.050 C 
HETATM   22  C   UNL     1     -43.180  60.617 -54.537  1.00  0.00     0.028 A 
HETATM   23  C   UNL     1     -44.419  60.672 -55.156  1.00  0.00     0.117 A 
HETATM   24  N   UNL     1     -45.134  59.583 -55.493  1.00  0.00    -0.271 NA
HETATM   25  C   UNL     1     -44.589  58.389 -55.159  1.00  0.00     0.146 A 
ENDBRANCH   1  19
TORSDOF 6
ENDMDL
MODEL 9
REMARK VINA RESULT:      -6.5      2.135      4.546
REMARK  6 active torsions:
REMARK  status: ('A' for Active; 'I' for Inactive)
REMARK    1  A    between atoms: C_3  and  N_4 
REMARK       I    between atoms: N_4  and  C_5 
REMARK       I    between atoms: C_5  and  N_6 
REMARK    2  A    between atoms: N_6  and  C_7 
REMARK    3  A    between atoms: C_7  and  C_8 
REMARK    4  A    between atoms: C_9  and  O_10 
REMARK    5  A    between atoms: O_10  and  C_11 
REMARK    6  A    between atoms: C_11  and  C_12 
ROOT
HETATM    1  N   UNL     1     -44.906  57.557 -51.731  1.00  0.00    -0.307 N 
HETATM    2  C   UNL     1     -43.642  57.149 -52.107  1.00  0.00     0.321 C 
HETATM    3  N   UNL     1     -43.573  55.774 -52.107  1.00  0.00    -0.339 N 
HETATM    4  O   UNL     1     -42.682  57.871 -52.332  1.00  0.00    -0.247 OA
HETATM    5  H   UNL     1     -45.308  56.926 -51.052  1.00  0.00     0.170 HD
HETATM    6  H   UNL     1     -44.410  55.294 -52.408  1.00  0.00     0.164 HD
ENDROOT
BRANCH   3   7
HETATM    7  C   UNL     1     -42.340  55.087 -52.416  1.00  0.00     0.165 C 
BRANCH   7   8
HETATM    8  C   UNL     1     -41.552  54.719 -51.182  1.00  0.00    -0.007 A 
HETATM    9  C   UNL     1     -40.533  53.749 -51.221  1.00  0.00     0.076 A 
HETATM   10  C   UNL     1     -39.873  53.395 -50.040  1.00  0.00     0.037 A 
HETATM   11  C   UNL     1     -40.209  54.007 -48.829  1.00  0.00     0.003 A 
HETATM   12  C   UNL     1     -41.198  54.984 -48.791  1.00  0.00     0.001 A 
HETATM   13  C   UNL     1     -41.866  55.340 -49.960  1.00  0.00     0.011 A 
BRANCH   9  14
HETATM   14  O   UNL     1     -40.246  53.236 -52.461  1.00  0.00    -0.350 OA
BRANCH  14  15
HETATM   15  C   UNL     1     -39.606  51.959 -52.516  1.00  0.00     0.179 C 
BRANCH  15  16
HETATM   16  C   UNL     1     -39.795  51.386 -53.929  1.00  0.00     0.002 C 
HETATM   17  C   UNL     1     -39.755  49.855 -53.906  1.00  0.00     0.011 C 
HETATM   18  C   UNL     1     -41.111  51.872 -54.532  1.00  0.00     0.011 C 
ENDBRANCH  15  16
ENDBRANCH  14  15
ENDBRANCH   9  14
ENDBRANCH   7   8
ENDBRANCH   3   7
BRANCH   1  19
HETATM   19  C   UNL     1     -45.317  58.907 -51.646  1.00  0.00     0.059 A 
HETATM   20  C   UNL     1     -45.456  59.776 -52.738  1.00  0.00    -0.032 A 
HETATM   21  C   UNL     1     -45.251  59.371 -54.169  1.00  0.00     0.050 C 
HETATM   22  C   UNL     1     -45.838  61.104 -52.483  1.00  0.00     0.028 A 
HETATM   23  C   UNL     1     -46.121  61.497 -51.184  1.00  0.00     0.117 A 
HETATM   24  N   UNL     1     -46.060  60.669 -50.124  1.00  0.00    -0.271 NA
HETATM   25  C   UNL     1     -45.664  59.401 -50.384  1.00  0.00     0.146 A 
ENDBRANCH   1  19
TORSDOF 6
ENDMDL
MODEL 10
REMARK VINA RESULT:      -6.5     14.230     17.296
REMARK  6 active torsions:
REMARK  status: ('A' for Active; 'I' for Inactive)
REMARK    1  A    between atoms: C_3  and  N_4 
REMARK       I    between atoms: N_4  and  C_5 
REMARK       I    between atoms: C_5  and  N_6 
REMARK    2  A    between atoms: N_6  and  C_7 
REMARK    3  A    between atoms: C_7  and  C_8 
REMARK    4  A    between atoms: C_9  and  O_10 
REMARK    5  A    between atoms: O_10  and  C_11 
REMARK    6  A    between atoms: C_11  and  C_12 
ROOT
HETATM    1  N   UNL     1     -34.106  39.761 -51.456  1.00  0.00    -0.307 N 
HETATM    2  C   UNL     1     -34.495  41.026 -51.847  1.00  0.00     0.321 C 
HETATM    3  N   UNL     1     -35.219  40.953 -53.016  1.00  0.00    -0.339 N 
HETATM    4  O   UNL     1     -34.192  42.080 -51.307  1.00  0.00    -0.247 OA
HETATM    5  H   UNL     1     -33.917  39.172 -52.254  1.00  0.00     0.170 HD
HETATM    6  H   UNL     1     -35.822  40.147 -53.108  1.00  0.00     0.164 HD
ENDROOT
BRANCH   3   7
HETATM    7  C   UNL     1     -35.705  42.146 -53.671  1.00  0.00     0.165 C 
BRANCH   7   8
HETATM    8  C   UNL     1     -35.904  41.958 -55.155  1.00  0.00    -0.007 A 
HETATM    9  C   UNL     1     -34.859  41.515 -55.988  1.00  0.00     0.076 A 
HETATM   10  C   UNL     1     -35.071  41.416 -57.367  1.00  0.00     0.037 A 
HETATM   11  C   UNL     1     -36.315  41.739 -57.917  1.00  0.00     0.003 A 
HETATM   12  C   UNL     1     -37.357  42.153 -57.095  1.00  0.00     0.001 A 
HETATM   13  C   UNL     1     -37.155  42.261 -55.721  1.00  0.00     0.011 A 
BRANCH   9  14
HETATM   14  O   UNL     1     -33.690  41.182 -55.351  1.00  0.00    -0.350 OA
BRANCH  14  15
HETATM   15  C   UNL     1     -33.166  39.871 -55.574  1.00  0.00     0.179 C 
BRANCH  15  16
HETATM   16  C   UNL     1     -31.733  39.825 -55.023  1.00  0.00     0.002 C 
HETATM   17  C   UNL     1     -31.615  38.794 -53.897  1.00  0.00     0.011 C 
HETATM   18  C   UNL     1     -30.740  39.505 -56.138  1.00  0.00     0.011 C 
ENDBRANCH  15  16
ENDBRANCH  14  15
ENDBRANCH   9  14
ENDBRANCH   7   8
ENDBRANCH   3   7
BRANCH   1  19
HETATM   19  C   UNL     1     -33.362  39.481 -50.286  1.00  0.00     0.059 A 
HETATM   20  C   UNL     1     -33.857  38.806 -49.160  1.00  0.00    -0.032 A 
HETATM   21  C   UNL     1     -35.237  38.221 -49.068  1.00  0.00     0.050 C 
HETATM   22  C   UNL     1     -33.001  38.639 -48.059  1.00  0.00     0.028 A 
HETATM   23  C   UNL     1     -31.691  39.088 -48.136  1.00  0.00     0.117 A 
HETATM   24  N   UNL     1     -31.169  39.680 -49.226  1.00  0.00    -0.271 NA
HETATM   25  C   UNL     1     -32.016  39.857 -50.268  1.00  0.00     0.146 A 
ENDBRANCH   1  19
TORSDOF 6
ENDMDL
