MODEL 1
REMARK VINA RESULT:      -7.4      0.000      0.000
REMARK  4 active torsions:
REMARK  status: ('A' for Active; 'I' for Inactive)
REMARK    1  A    between atoms: C_3  and  N_4 
REMARK       I    between atoms: N_4  and  C_5 
REMARK    2  A    between atoms: C_5  and  C_6 
REMARK    3  A    between atoms: C_7  and  C_8 
REMARK    4  A    between atoms: C_15  and  C_16 
ROOT
HETATM    1  C   UNL     1     -39.724  54.028 -49.949  1.00  0.00     0.003 A 
HETATM    2  C   UNL     1     -40.707  54.964 -50.278  1.00  0.00     0.029 A 
HETATM    3  C   UNL     1     -41.480  54.799 -51.424  1.00  0.00     0.035 A 
HETATM    4  C   UNL     1     -41.265  53.671 -52.232  1.00  0.00     0.043 A 
HETATM    5  C   UNL     1     -40.275  52.723 -51.920  1.00  0.00    -0.006 A 
HETATM    6  C   UNL     1     -39.505  52.919 -50.768  1.00  0.00     0.014 A 
ENDROOT
BRANCH   3   7
HETATM    7  N   UNL     1     -42.466  55.718 -51.845  1.00  0.00    -0.324 N 
HETATM    8  C   UNL     1     -42.265  57.006 -52.295  1.00  0.00     0.245 C 
HETATM    9  O   UNL     1     -41.213  57.620 -52.402  1.00  0.00    -0.268 OA
HETATM   10  H   UNL     1     -43.421  55.388 -51.829  1.00  0.00     0.169 HD
BRANCH   8  11
HETATM   11  C   UNL     1     -43.529  57.603 -52.796  1.00  0.00     0.077 C 
HETATM   12  C   UNL     1     -44.200  57.187 -53.878  1.00  0.00     0.042 C 
BRANCH  12  13
HETATM   13  C   UNL     1     -43.728  56.190 -54.773  1.00  0.00     0.075 A 
HETATM   14  O   UNL     1     -43.777  54.838 -54.521  1.00  0.00    -0.323 OA
HETATM   15  C   UNL     1     -43.226  54.186 -55.573  1.00  0.00     0.142 A 
HETATM   16  C   UNL     1     -42.794  55.080 -56.518  1.00  0.00     0.027 A 
HETATM   17  C   UNL     1     -43.104  56.361 -56.004  1.00  0.00     0.039 A 
ENDBRANCH  12  13
ENDBRANCH   8  11
ENDBRANCH   3   7
BRANCH   5  18
HETATM   18  C   UNL     1     -40.046  51.576 -52.802  1.00  0.00     0.061 A 
HETATM   19  N   UNL     1     -39.625  50.342 -52.368  1.00  0.00    -0.278 N 
HETATM   20  H   UNL     1     -39.435  50.052 -51.415  1.00  0.00     0.189 HD
HETATM   21  N   UNL     1     -39.466  49.435 -53.346  1.00  0.00    -0.187 NA
HETATM   22  C   UNL     1     -39.808  50.101 -54.448  1.00  0.00     0.141 A 
HETATM   23  C   UNL     1     -40.183  51.428 -54.171  1.00  0.00     0.053 A 
ENDBRANCH   5  18
TORSDOF 4
ENDMDL
MODEL 2
REMARK VINA RESULT:      -7.4      1.849      3.370
REMARK  4 active torsions:
REMARK  status: ('A' for Active; 'I' for Inactive)
REMARK    1  A    between atoms: C_3  and  N_4 
REMARK       I    between atoms: N_4  and  C_5 
REMARK    2  A    between atoms: C_5  and  C_6 
REMARK    3  A    between atoms: C_7  and  C_8 
REMARK    4  A    between atoms: C_15  and  C_16 
ROOT
HETATM    1  C   UNL     1     -39.941  53.939 -50.034  1.00  0.00     0.003 A 
HETATM    2  C   UNL     1     -40.674  55.012 -50.546  1.00  0.00     0.029 A 
HETATM    3  C   UNL     1     -41.206  54.950 -51.832  1.00  0.00     0.035 A 
HETATM    4  C   UNL     1     -41.005  53.788 -52.595  1.00  0.00     0.043 A 
HETATM    5  C   UNL     1     -40.263  52.703 -52.098  1.00  0.00    -0.006 A 
HETATM    6  C   UNL     1     -39.732  52.795 -50.807  1.00  0.00     0.014 A 
ENDROOT
BRANCH   3   7
HETATM    7  N   UNL     1     -41.925  56.005 -52.435  1.00  0.00    -0.324 N 
HETATM    8  C   UNL     1     -43.156  56.497 -52.055  1.00  0.00     0.245 C 
HETATM    9  O   UNL     1     -43.881  56.117 -51.147  1.00  0.00    -0.268 OA
HETATM   10  H   UNL     1     -41.479  56.457 -53.221  1.00  0.00     0.169 HD
BRANCH   8  11
HETATM   11  C   UNL     1     -43.512  57.711 -52.833  1.00  0.00     0.077 C 
HETATM   12  C   UNL     1     -42.838  58.869 -52.803  1.00  0.00     0.042 C 
BRANCH  12  13
HETATM   13  C   UNL     1     -41.754  59.136 -51.925  1.00  0.00     0.075 A 
HETATM   14  O   UNL     1     -40.452  58.758 -52.165  1.00  0.00    -0.323 OA
HETATM   15  C   UNL     1     -39.691  59.156 -51.117  1.00  0.00     0.142 A 
HETATM   16  C   UNL     1     -40.464  59.778 -50.172  1.00  0.00     0.027 A 
HETATM   17  C   UNL     1     -41.785  59.757 -50.682  1.00  0.00     0.039 A 
ENDBRANCH  12  13
ENDBRANCH   8  11
ENDBRANCH   3   7
BRANCH   5  18
HETATM   18  C   UNL     1     -40.037  51.520 -52.932  1.00  0.00     0.061 A 
HETATM   19  N   UNL     1     -39.623  50.303 -52.445  1.00  0.00    -0.278 N 
HETATM   20  H   UNL     1     -39.438  50.052 -51.481  1.00  0.00     0.189 HD
HETATM   21  N   UNL     1     -39.465  49.355 -53.385  1.00  0.00    -0.187 NA
HETATM   22  C   UNL     1     -39.799  49.978 -54.515  1.00  0.00     0.141 A 
HETATM   23  C   UNL     1     -40.169  51.317 -54.294  1.00  0.00     0.053 A 
ENDBRANCH   5  18
TORSDOF 4
ENDMDL
MODEL 3
REMARK VINA RESULT:      -7.3      1.992      4.172
REMARK  4 active torsions:
REMARK  status: ('A' for Active; 'I' for Inactive)
REMARK    1  A    between atoms: C_3  and  N_4 
REMARK       I    between atoms: N_4  and  C_5 
REMARK    2  A    between atoms: C_5  and  C_6 
REMARK    3  A    between atoms: C_7  and  C_8 
REMARK    4  A    between atoms: C_15  and  C_16 
ROOT
HETATM    1  C   UNL     1     -39.759  51.830 -53.635  1.00  0.00     0.003 A 
HETATM    2  C   UNL     1     -40.197  52.690 -54.644  1.00  0.00     0.029 A 
HETATM    3  C   UNL     1     -40.764  53.921 -54.323  1.00  0.00     0.035 A 
HETATM    4  C   UNL     1     -40.875  54.285 -52.971  1.00  0.00     0.043 A 
HETATM    5  C   UNL     1     -40.448  53.428 -51.943  1.00  0.00    -0.006 A 
HETATM    6  C   UNL     1     -39.890  52.193 -52.293  1.00  0.00     0.014 A 
ENDROOT
BRANCH   3   7
HETATM    7  N   UNL     1     -41.264  54.828 -55.281  1.00  0.00    -0.324 N 
HETATM    8  C   UNL     1     -42.487  54.779 -55.917  1.00  0.00     0.245 C 
HETATM    9  O   UNL     1     -43.371  53.942 -55.803  1.00  0.00    -0.268 OA
HETATM   10  H   UNL     1     -40.664  55.608 -55.514  1.00  0.00     0.169 HD
BRANCH   8  11
HETATM   11  C   UNL     1     -42.715  55.995 -56.738  1.00  0.00     0.077 C 
HETATM   12  C   UNL     1     -43.091  57.188 -56.257  1.00  0.00     0.042 C 
BRANCH  12  13
HETATM   13  C   UNL     1     -43.444  57.425 -54.902  1.00  0.00     0.075 A 
HETATM   14  O   UNL     1     -42.535  57.536 -53.873  1.00  0.00    -0.323 OA
HETATM   15  C   UNL     1     -43.217  57.739 -52.720  1.00  0.00     0.142 A 
HETATM   16  C   UNL     1     -44.566  57.749 -52.956  1.00  0.00     0.027 A 
HETATM   17  C   UNL     1     -44.714  57.538 -54.348  1.00  0.00     0.039 A 
ENDBRANCH  12  13
ENDBRANCH   8  11
ENDBRANCH   3   7
BRANCH   5  18
HETATM   18  C   UNL     1     -40.611  53.818 -50.540  1.00  0.00     0.061 A 
HETATM   19  N   UNL     1     -40.514  52.946 -49.482  1.00  0.00    -0.278 N 
HETATM   20  H   UNL     1     -40.308  51.955 -49.513  1.00  0.00     0.189 HD
HETATM   21  N   UNL     1     -40.711  53.511 -48.279  1.00  0.00    -0.187 NA
HETATM   22  C   UNL     1     -40.931  54.794 -48.569  1.00  0.00     0.141 A 
HETATM   23  C   UNL     1     -40.874  55.043 -49.951  1.00  0.00     0.053 A 
ENDBRANCH   5  18
TORSDOF 4
ENDMDL
MODEL 4
REMARK VINA RESULT:      -7.1      2.615      4.645
REMARK  4 active torsions:
REMARK  status: ('A' for Active; 'I' for Inactive)
REMARK    1  A    between atoms: C_3  and  N_4 
REMARK       I    between atoms: N_4  and  C_5 
REMARK    2  A    between atoms: C_5  and  C_6 
REMARK    3  A    between atoms: C_7  and  C_8 
REMARK    4  A    between atoms: C_15  and  C_16 
ROOT
HETATM    1  C   UNL     1     -40.377  52.917 -54.185  1.00  0.00     0.003 A 
HETATM    2  C   UNL     1     -40.667  54.095 -54.875  1.00  0.00     0.029 A 
HETATM    3  C   UNL     1     -40.967  55.263 -54.178  1.00  0.00     0.035 A 
HETATM    4  C   UNL     1     -40.957  55.237 -52.774  1.00  0.00     0.043 A 
HETATM    5  C   UNL     1     -40.675  54.058 -52.064  1.00  0.00    -0.006 A 
HETATM    6  C   UNL     1     -40.387  52.896 -52.789  1.00  0.00     0.014 A 
ENDROOT
BRANCH   3   7
HETATM    7  N   UNL     1     -41.307  56.483 -54.801  1.00  0.00    -0.324 N 
HETATM    8  C   UNL     1     -42.569  57.020 -54.947  1.00  0.00     0.245 C 
HETATM    9  O   UNL     1     -43.641  56.551 -54.594  1.00  0.00    -0.268 OA
HETATM   10  H   UNL     1     -40.538  57.029 -55.166  1.00  0.00     0.169 HD
BRANCH   8  11
HETATM   11  C   UNL     1     -42.507  58.391 -55.514  1.00  0.00     0.077 C 
HETATM   12  C   UNL     1     -41.928  59.444 -54.920  1.00  0.00     0.042 C 
BRANCH  12  13
HETATM   13  C   UNL     1     -41.399  59.422 -53.602  1.00  0.00     0.075 A 
HETATM   14  O   UNL     1     -40.117  59.028 -53.289  1.00  0.00    -0.323 OA
HETATM   15  C   UNL     1     -39.959  59.113 -51.946  1.00  0.00     0.142 A 
HETATM   16  C   UNL     1     -41.119  59.540 -51.353  1.00  0.00     0.027 A 
HETATM   17  C   UNL     1     -42.043  59.728 -52.408  1.00  0.00     0.039 A 
ENDBRANCH  12  13
ENDBRANCH   8  11
ENDBRANCH   3   7
BRANCH   5  18
HETATM   18  C   UNL     1     -40.711  54.051 -50.599  1.00  0.00     0.061 A 
HETATM   19  N   UNL     1     -41.134  55.112 -49.834  1.00  0.00    -0.278 N 
HETATM   20  H   UNL     1     -41.483  56.007 -50.155  1.00  0.00     0.189 HD
HETATM   21  N   UNL     1     -41.074  54.898 -48.509  1.00  0.00    -0.187 NA
HETATM   22  C   UNL     1     -40.607  53.653 -48.415  1.00  0.00     0.141 A 
HETATM   23  C   UNL     1     -40.372  53.077 -49.676  1.00  0.00     0.053 A 
ENDBRANCH   5  18
TORSDOF 4
ENDMDL
MODEL 5
REMARK VINA RESULT:      -7.0      2.236      3.470
REMARK  4 active torsions:
REMARK  status: ('A' for Active; 'I' for Inactive)
REMARK    1  A    between atoms: C_3  and  N_4 
REMARK       I    between atoms: N_4  and  C_5 
REMARK    2  A    between atoms: C_5  and  C_6 
REMARK    3  A    between atoms: C_7  and  C_8 
REMARK    4  A    between atoms: C_15  and  C_16 
ROOT
HETATM    1  C   UNL     1     -40.335  54.925 -55.052  1.00  0.00     0.003 A 
HETATM    2  C   UNL     1     -41.357  55.500 -54.296  1.00  0.00     0.029 A 
HETATM    3  C   UNL     1     -41.965  54.779 -53.270  1.00  0.00     0.035 A 
HETATM    4  C   UNL     1     -41.522  53.474 -53.003  1.00  0.00     0.043 A 
HETATM    5  C   UNL     1     -40.499  52.876 -53.760  1.00  0.00    -0.006 A 
HETATM    6  C   UNL     1     -39.913  53.619 -54.791  1.00  0.00     0.014 A 
ENDROOT
BRANCH   3   7
HETATM    7  N   UNL     1     -43.028  55.275 -52.486  1.00  0.00    -0.324 N 
HETATM    8  C   UNL     1     -42.941  55.865 -51.242  1.00  0.00     0.245 C 
HETATM    9  O   UNL     1     -41.946  56.058 -50.559  1.00  0.00    -0.268 OA
HETATM   10  H   UNL     1     -43.952  55.203 -52.890  1.00  0.00     0.169 HD
BRANCH   8  11
HETATM   11  C   UNL     1     -44.257  56.399 -50.808  1.00  0.00     0.077 C 
HETATM   12  C   UNL     1     -44.735  57.612 -51.119  1.00  0.00     0.042 C 
BRANCH  12  13
HETATM   13  C   UNL     1     -43.992  58.607 -51.808  1.00  0.00     0.075 A 
HETATM   14  O   UNL     1     -43.108  59.472 -51.202  1.00  0.00    -0.323 OA
HETATM   15  C   UNL     1     -42.597  60.295 -52.150  1.00  0.00     0.142 A 
HETATM   16  C   UNL     1     -43.137  60.007 -53.376  1.00  0.00     0.027 A 
HETATM   17  C   UNL     1     -44.036  58.937 -53.158  1.00  0.00     0.039 A 
ENDBRANCH  12  13
ENDBRANCH   8  11
ENDBRANCH   3   7
BRANCH   5  18
HETATM   18  C   UNL     1     -40.084  51.499 -53.484  1.00  0.00     0.061 A 
HETATM   19  N   UNL     1     -39.975  50.520 -54.443  1.00  0.00    -0.278 N 
HETATM   20  H   UNL     1     -40.141  50.608 -55.439  1.00  0.00     0.189 HD
HETATM   21  N   UNL     1     -39.590  49.323 -53.972  1.00  0.00    -0.187 NA
HETATM   22  C   UNL     1     -39.434  49.537 -52.666  1.00  0.00     0.141 A 
HETATM   23  C   UNL     1     -39.719  50.867 -52.308  1.00  0.00     0.053 A 
ENDBRANCH   5  18
TORSDOF 4
ENDMDL
MODEL 6
REMARK VINA RESULT:      -6.9      3.259      6.770
REMARK  4 active torsions:
REMARK  status: ('A' for Active; 'I' for Inactive)
REMARK    1  A    between atoms: C_3  and  N_4 
REMARK       I    between atoms: N_4  and  C_5 
REMARK    2  A    between atoms: C_5  and  C_6 
REMARK    3  A    between atoms: C_7  and  C_8 
REMARK    4  A    between atoms: C_15  and  C_16 
ROOT
HETATM    1  C   UNL     1     -43.960  56.815 -54.590  1.00  0.00     0.003 A 
HETATM    2  C   UNL     1     -43.248  55.711 -54.117  1.00  0.00     0.029 A 
HETATM    3  C   UNL     1     -42.556  54.889 -55.003  1.00  0.00     0.035 A 
HETATM    4  C   UNL     1     -42.576  55.198 -56.373  1.00  0.00     0.043 A 
HETATM    5  C   UNL     1     -43.294  56.300 -56.866  1.00  0.00    -0.006 A 
HETATM    6  C   UNL     1     -43.988  57.105 -55.956  1.00  0.00     0.014 A 
ENDROOT
BRANCH   3   7
HETATM    7  N   UNL     1     -41.845  53.735 -54.609  1.00  0.00    -0.324 N 
HETATM    8  C   UNL     1     -40.480  53.543 -54.653  1.00  0.00     0.245 C 
HETATM    9  O   UNL     1     -39.616  54.308 -55.056  1.00  0.00    -0.268 OA
HETATM   10  H   UNL     1     -42.398  52.973 -54.241  1.00  0.00     0.169 HD
BRANCH   8  11
HETATM   11  C   UNL     1     -40.097  52.261 -54.008  1.00  0.00     0.077 C 
HETATM   12  C   UNL     1     -40.164  52.013 -52.692  1.00  0.00     0.042 C 
BRANCH  12  13
HETATM   13  C   UNL     1     -40.497  52.988 -51.714  1.00  0.00     0.075 A 
HETATM   14  O   UNL     1     -41.740  53.567 -51.590  1.00  0.00    -0.323 OA
HETATM   15  C   UNL     1     -41.696  54.461 -50.573  1.00  0.00     0.142 A 
HETATM   16  C   UNL     1     -40.440  54.502 -50.025  1.00  0.00     0.027 A 
HETATM   17  C   UNL     1     -39.670  53.570 -50.760  1.00  0.00     0.039 A 
ENDBRANCH  12  13
ENDBRANCH   8  11
ENDBRANCH   3   7
BRANCH   5  18
HETATM   18  C   UNL     1     -43.328  56.575 -58.305  1.00  0.00     0.061 A 
HETATM   19  N   UNL     1     -42.338  56.207 -59.184  1.00  0.00    -0.278 N 
HETATM   20  H   UNL     1     -41.485  55.700 -58.979  1.00  0.00     0.189 HD
HETATM   21  N   UNL     1     -42.565  56.569 -60.458  1.00  0.00    -0.187 NA
HETATM   22  C   UNL     1     -43.747  57.182 -60.402  1.00  0.00     0.141 A 
HETATM   23  C   UNL     1     -44.270  57.209 -59.097  1.00  0.00     0.053 A 
ENDBRANCH   5  18
TORSDOF 4
ENDMDL
MODEL 7
REMARK VINA RESULT:      -6.8      2.670      4.309
REMARK  4 active torsions:
REMARK  status: ('A' for Active; 'I' for Inactive)
REMARK    1  A    between atoms: C_3  and  N_4 
REMARK       I    between atoms: N_4  and  C_5 
REMARK    2  A    between atoms: C_5  and  C_6 
REMARK    3  A    between atoms: C_7  and  C_8 
REMARK    4  A    between atoms: C_15  and  C_16 
ROOT
HETATM    1  C   UNL     1     -40.326  52.637 -54.362  1.00  0.00     0.003 A 
HETATM    2  C   UNL     1     -40.597  53.700 -55.225  1.00  0.00     0.029 A 
HETATM    3  C   UNL     1     -40.909  54.958 -54.715  1.00  0.00     0.035 A 
HETATM    4  C   UNL     1     -40.932  55.141 -53.323  1.00  0.00     0.043 A 
HETATM    5  C   UNL     1     -40.670  54.079 -52.440  1.00  0.00    -0.006 A 
HETATM    6  C   UNL     1     -40.368  52.823 -52.978  1.00  0.00     0.014 A 
ENDROOT
BRANCH   3   7
HETATM    7  N   UNL     1     -41.232  56.073 -55.519  1.00  0.00    -0.324 N 
HETATM    8  C   UNL     1     -42.492  56.537 -55.832  1.00  0.00     0.245 C 
HETATM    9  O   UNL     1     -43.576  56.077 -55.504  1.00  0.00    -0.268 OA
HETATM   10  H   UNL     1     -40.451  56.595 -55.893  1.00  0.00     0.169 HD
BRANCH   8  11
HETATM   11  C   UNL     1     -42.423  57.824 -56.570  1.00  0.00     0.077 C 
HETATM   12  C   UNL     1     -42.926  58.036 -57.794  1.00  0.00     0.042 C 
BRANCH  12  13
HETATM   13  C   UNL     1     -43.492  57.020 -58.609  1.00  0.00     0.075 A 
HETATM   14  O   UNL     1     -44.842  56.872 -58.837  1.00  0.00    -0.323 OA
HETATM   15  C   UNL     1     -45.025  55.796 -59.640  1.00  0.00     0.142 A 
HETATM   16  C   UNL     1     -43.822  55.211 -59.938  1.00  0.00     0.027 A 
HETATM   17  C   UNL     1     -42.843  55.985 -59.273  1.00  0.00     0.039 A 
ENDBRANCH  12  13
ENDBRANCH   8  11
ENDBRANCH   3   7
BRANCH   5  18
HETATM   18  C   UNL     1     -40.739  54.289 -50.992  1.00  0.00     0.061 A 
HETATM   19  N   UNL     1     -39.987  53.592 -50.075  1.00  0.00    -0.278 N 
HETATM   20  H   UNL     1     -39.295  52.876 -50.259  1.00  0.00     0.189 HD
HETATM   21  N   UNL     1     -40.216  53.935 -48.796  1.00  0.00    -0.187 NA
HETATM   22  C   UNL     1     -41.137  54.893 -48.890  1.00  0.00     0.141 A 
HETATM   23  C   UNL     1     -41.493  55.159 -50.224  1.00  0.00     0.053 A 
ENDBRANCH   5  18
TORSDOF 4
ENDMDL
MODEL 8
REMARK VINA RESULT:      -6.7      1.657      2.693
REMARK  4 active torsions:
REMARK  status: ('A' for Active; 'I' for Inactive)
REMARK    1  A    between atoms: C_3  and  N_4 
REMARK       I    between atoms: N_4  and  C_5 
REMARK    2  A    between atoms: C_5  and  C_6 
REMARK    3  A    between atoms: C_7  and  C_8 
REMARK    4  A    between atoms: C_15  and  C_16 
ROOT
HETATM    1  C   UNL     1     -40.317  54.224 -50.475  1.00  0.00     0.003 A 
HETATM    2  C   UNL     1     -40.981  55.225 -51.186  1.00  0.00     0.029 A 
HETATM    3  C   UNL     1     -41.352  55.018 -52.513  1.00  0.00     0.035 A 
HETATM    4  C   UNL     1     -41.060  53.783 -53.115  1.00  0.00     0.043 A 
HETATM    5  C   UNL     1     -40.384  52.768 -52.416  1.00  0.00    -0.006 A 
HETATM    6  C   UNL     1     -40.015  53.006 -51.087  1.00  0.00     0.014 A 
ENDROOT
BRANCH   3   7
HETATM    7  N   UNL     1     -41.992  55.992 -53.310  1.00  0.00    -0.324 N 
HETATM    8  C   UNL     1     -41.497  57.228 -53.671  1.00  0.00     0.245 C 
HETATM    9  O   UNL     1     -40.431  57.740 -53.365  1.00  0.00    -0.268 OA
HETATM   10  H   UNL     1     -42.905  55.747 -53.666  1.00  0.00     0.169 HD
BRANCH   8  11
HETATM   11  C   UNL     1     -42.394  57.901 -54.645  1.00  0.00     0.077 C 
HETATM   12  C   UNL     1     -43.538  58.526 -54.332  1.00  0.00     0.042 C 
BRANCH  12  13
HETATM   13  C   UNL     1     -44.116  58.525 -53.035  1.00  0.00     0.075 A 
HETATM   14  O   UNL     1     -44.598  57.401 -52.401  1.00  0.00    -0.323 OA
HETATM   15  C   UNL     1     -45.093  57.769 -51.195  1.00  0.00     0.142 A 
HETATM   16  C   UNL     1     -44.966  59.122 -51.017  1.00  0.00     0.027 A 
HETATM   17  C   UNL     1     -44.352  59.608 -52.195  1.00  0.00     0.039 A 
ENDBRANCH  12  13
ENDBRANCH   8  11
ENDBRANCH   3   7
BRANCH   5  18
HETATM   18  C   UNL     1     -40.058  51.504 -53.082  1.00  0.00     0.061 A 
HETATM   19  N   UNL     1     -39.659  50.367 -52.422  1.00  0.00    -0.278 N 
HETATM   20  H   UNL     1     -39.553  50.235 -51.423  1.00  0.00     0.189 HD
HETATM   21  N   UNL     1     -39.397  49.323 -53.227  1.00  0.00    -0.187 NA
HETATM   22  C   UNL     1     -39.647  49.798 -54.446  1.00  0.00     0.141 A 
HETATM   23  C   UNL     1     -40.067  51.140 -54.417  1.00  0.00     0.053 A 
ENDBRANCH   5  18
TORSDOF 4
ENDMDL
MODEL 9
REMARK VINA RESULT:      -6.6      3.261      4.761
REMARK  4 active torsions:
REMARK  status: ('A' for Active; 'I' for Inactive)
REMARK    1  A    between atoms: C_3  and  N_4 
REMARK       I    between atoms: N_4  and  C_5 
REMARK    2  A    between atoms: C_5  and  C_6 
REMARK    3  A    between atoms: C_7  and  C_8 
REMARK    4  A    between atoms: C_15  and  C_16 
ROOT
HETATM    1  C   UNL     1     -43.428  55.772 -53.325  1.00  0.00     0.003 A 
HETATM    2  C   UNL     1     -43.723  55.866 -54.686  1.00  0.00     0.029 A 
HETATM    3  C   UNL     1     -43.101  55.020 -55.601  1.00  0.00     0.035 A 
HETATM    4  C   UNL     1     -42.186  54.064 -55.130  1.00  0.00     0.043 A 
HETATM    5  C   UNL     1     -41.871  53.961 -53.764  1.00  0.00    -0.006 A 
HETATM    6  C   UNL     1     -42.503  54.830 -52.867  1.00  0.00     0.014 A 
ENDROOT
BRANCH   3   7
HETATM    7  N   UNL     1     -43.317  55.077 -56.995  1.00  0.00    -0.324 N 
HETATM    8  C   UNL     1     -42.964  56.099 -57.851  1.00  0.00     0.245 C 
HETATM    9  O   UNL     1     -42.421  57.161 -57.585  1.00  0.00    -0.268 OA
HETATM   10  H   UNL     1     -43.765  54.272 -57.411  1.00  0.00     0.169 HD
BRANCH   8  11
HETATM   11  C   UNL     1     -43.215  55.725 -59.266  1.00  0.00     0.077 C 
HETATM   12  C   UNL     1     -44.130  56.295 -60.062  1.00  0.00     0.042 C 
BRANCH  12  13
HETATM   13  C   UNL     1     -45.078  57.258 -59.622  1.00  0.00     0.075 A 
HETATM   14  O   UNL     1     -44.802  58.597 -59.459  1.00  0.00    -0.323 OA
HETATM   15  C   UNL     1     -45.922  59.213 -59.012  1.00  0.00     0.142 A 
HETATM   16  C   UNL     1     -46.938  58.307 -58.857  1.00  0.00     0.027 A 
HETATM   17  C   UNL     1     -46.398  57.055 -59.236  1.00  0.00     0.039 A 
ENDBRANCH  12  13
ENDBRANCH   8  11
ENDBRANCH   3   7
BRANCH   5  18
HETATM   18  C   UNL     1     -40.883  52.981 -53.306  1.00  0.00     0.061 A 
HETATM   19  N   UNL     1     -40.319  52.021 -54.111  1.00  0.00    -0.278 N 
HETATM   20  H   UNL     1     -40.482  51.868 -55.100  1.00  0.00     0.189 HD
HETATM   21  N   UNL     1     -39.444  51.217 -53.485  1.00  0.00    -0.187 NA
HETATM   22  C   UNL     1     -39.435  51.680 -52.235  1.00  0.00     0.141 A 
HETATM   23  C   UNL     1     -40.300  52.775 -52.068  1.00  0.00     0.053 A 
ENDBRANCH   5  18
TORSDOF 4
ENDMDL
MODEL 10
REMARK VINA RESULT:      -6.5     14.109     16.855
REMARK  4 active torsions:
REMARK  status: ('A' for Active; 'I' for Inactive)
REMARK    1  A    between atoms: C_3  and  N_4 
REMARK       I    between atoms: N_4  and  C_5 
REMARK    2  A    between atoms: C_5  and  C_6 
REMARK    3  A    between atoms: C_7  and  C_8 
REMARK    4  A    between atoms: C_15  and  C_16 
ROOT
HETATM    1  C   UNL     1     -36.072  42.320 -54.422  1.00  0.00     0.003 A 
HETATM    2  C   UNL     1     -35.121  41.393 -53.993  1.00  0.00     0.029 A 
HETATM    3  C   UNL     1     -34.623  40.436 -54.874  1.00  0.00     0.035 A 
HETATM    4  C   UNL     1     -35.083  40.431 -56.201  1.00  0.00     0.043 A 
HETATM    5  C   UNL     1     -36.045  41.352 -56.648  1.00  0.00    -0.006 A 
HETATM    6  C   UNL     1     -36.536  42.297 -55.739  1.00  0.00     0.014 A 
ENDROOT
BRANCH   3   7
HETATM    7  N   UNL     1     -33.690  39.442 -54.508  1.00  0.00    -0.324 N 
HETATM    8  C   UNL     1     -32.315  39.546 -54.521  1.00  0.00     0.245 C 
HETATM    9  O   UNL     1     -31.626  40.496 -54.866  1.00  0.00    -0.268 OA
HETATM   10  H   UNL     1     -34.075  38.564 -54.188  1.00  0.00     0.169 HD
BRANCH   8  11
HETATM   11  C   UNL     1     -31.680  38.347 -53.918  1.00  0.00     0.077 C 
HETATM   12  C   UNL     1     -31.752  38.008 -52.623  1.00  0.00     0.042 C 
BRANCH  12  13
HETATM   13  C   UNL     1     -32.345  38.819 -51.620  1.00  0.00     0.075 A 
HETATM   14  O   UNL     1     -33.702  38.907 -51.397  1.00  0.00    -0.323 OA
HETATM   15  C   UNL     1     -33.913  39.782 -50.384  1.00  0.00     0.142 A 
HETATM   16  C   UNL     1     -32.723  40.293 -49.936  1.00  0.00     0.027 A 
HETATM   17  C   UNL     1     -31.721  39.687 -50.731  1.00  0.00     0.039 A 
ENDBRANCH  12  13
ENDBRANCH   8  11
ENDBRANCH   3   7
BRANCH   5  18
HETATM   18  C   UNL     1     -36.535  41.298 -58.028  1.00  0.00     0.061 A 
HETATM   19  N   UNL     1     -36.809  42.408 -58.792  1.00  0.00    -0.278 N 
HETATM   20  H   UNL     1     -36.701  43.381 -58.531  1.00  0.00     0.189 HD
HETATM   21  N   UNL     1     -37.260  42.132 -60.027  1.00  0.00    -0.187 NA
HETATM   22  C   UNL     1     -37.267  40.800 -60.066  1.00  0.00     0.141 A 
HETATM   23  C   UNL     1     -36.821  40.231 -58.860  1.00  0.00     0.053 A 
ENDBRANCH   5  18
TORSDOF 4
ENDMDL
