MODEL 1
REMARK VINA RESULT:      -8.5      0.000      0.000
REMARK  7 active torsions:
REMARK  status: ('A' for Active; 'I' for Inactive)
REMARK    1  A    between atoms: C_4  and  N_5 
REMARK    2  A    between atoms: N_5  and  C_6 
REMARK    3  A    between atoms: C_6  and  C_7 
REMARK    4  A    between atoms: C_7  and  N_8 
REMARK       I    between atoms: N_8  and  C_9 
REMARK    5  A    between atoms: C_9  and  C_10 
REMARK       I    between atoms: C_10  and  N_11 
REMARK    6  A    between atoms: N_11  and  C_12 
REMARK    7  A    between atoms: N_15  and  C_16 
ROOT
HETATM    1  C   UNL     1     -42.781  56.845 -51.509  1.00  0.00     0.314 C 
HETATM    2  N   UNL     1     -42.249  57.178 -52.729  1.00  0.00    -0.313 N 
HETATM    3  O   UNL     1     -43.954  56.775 -51.168  1.00  0.00    -0.262 OA
HETATM    4  H   UNL     1     -41.226  57.162 -52.771  1.00  0.00     0.169 HD
ENDROOT
BRANCH   1   5
HETATM    5  C   UNL     1     -41.690  56.495 -50.470  1.00  0.00     0.309 C 
HETATM    6  N   UNL     1     -41.891  55.288 -49.842  1.00  0.00    -0.351 N 
HETATM    7  H   UNL     1     -42.739  54.781 -50.088  1.00  0.00     0.162 HD
HETATM    8  O   UNL     1     -40.750  57.254 -50.292  1.00  0.00    -0.262 OA
BRANCH   6   9
HETATM    9  C   UNL     1     -40.947  54.730 -48.897  1.00  0.00     0.142 C 
BRANCH   9  10
HETATM   10  C   UNL     1     -39.761  54.016 -49.566  1.00  0.00     0.139 C 
BRANCH  10  11
HETATM   11  N   UNL     1     -40.182  52.711 -50.074  1.00  0.00    -0.388 N 
HETATM   12  H   UNL     1     -39.795  51.924 -49.559  1.00  0.00     0.159 HD
BRANCH  11  13
HETATM   13  C   UNL     1     -40.192  52.457 -51.449  1.00  0.00     0.028 A 
HETATM   14  C   UNL     1     -39.766  51.255 -52.026  1.00  0.00     0.035 A 
HETATM   15  C   UNL     1     -39.736  51.079 -53.421  1.00  0.00    -0.060 A 
HETATM   16  C   UNL     1     -39.315  49.771 -54.024  1.00  0.00     0.048 C 
HETATM   17  C   UNL     1     -40.116  52.136 -54.253  1.00  0.00     0.007 A 
HETATM   18  C   UNL     1     -40.498  53.354 -53.700  1.00  0.00     0.003 A 
HETATM   19  C   UNL     1     -40.522  53.512 -52.313  1.00  0.00     0.029 A 
ENDBRANCH  11  13
ENDBRANCH  10  11
ENDBRANCH   9  10
ENDBRANCH   6   9
ENDBRANCH   1   5
BRANCH   2  20
HETATM   20  C   UNL     1     -42.862  57.524 -53.900  1.00  0.00     0.124 A 
HETATM   21  C   UNL     1     -42.495  56.787 -55.154  1.00  0.00     0.291 A 
HETATM   22  O   UNL     1     -41.642  55.910 -55.165  1.00  0.00    -0.264 OA
HETATM   23  N   UNL     1     -43.241  57.356 -56.187  1.00  0.00    -0.234 N 
HETATM   24  N   UNL     1     -44.092  58.361 -55.646  1.00  0.00    -0.193 NA
HETATM   25  C   UNL     1     -45.506  58.198 -56.030  1.00  0.00     0.143 C 
HETATM   26  C   UNL     1     -43.783  58.431 -54.270  1.00  0.00     0.037 A 
HETATM   27  C   UNL     1     -44.480  59.434 -53.408  1.00  0.00     0.066 C 
BRANCH  23  28
HETATM   28  C   UNL     1     -42.896  57.328 -57.563  1.00  0.00     0.055 A 
HETATM   29  C   UNL     1     -43.107  56.176 -58.333  1.00  0.00     0.031 A 
HETATM   30  C   UNL     1     -42.770  56.144 -59.691  1.00  0.00     0.002 A 
HETATM   31  C   UNL     1     -42.209  57.263 -60.298  1.00  0.00     0.000 A 
HETATM   32  C   UNL     1     -41.983  58.413 -59.549  1.00  0.00     0.002 A 
HETATM   33  C   UNL     1     -42.324  58.444 -58.193  1.00  0.00     0.031 A 
ENDBRANCH  23  28
ENDBRANCH   2  20
TORSDOF 7
ENDMDL
MODEL 2
REMARK VINA RESULT:      -8.4      2.360      3.307
REMARK  7 active torsions:
REMARK  status: ('A' for Active; 'I' for Inactive)
REMARK    1  A    between atoms: C_4  and  N_5 
REMARK    2  A    between atoms: N_5  and  C_6 
REMARK    3  A    between atoms: C_6  and  C_7 
REMARK    4  A    between atoms: C_7  and  N_8 
REMARK       I    between atoms: N_8  and  C_9 
REMARK    5  A    between atoms: C_9  and  C_10 
REMARK       I    between atoms: C_10  and  N_11 
REMARK    6  A    between atoms: N_11  and  C_12 
REMARK    7  A    between atoms: N_15  and  C_16 
ROOT
HETATM    1  C   UNL     1     -41.704  59.598 -54.131  1.00  0.00     0.314 C 
HETATM    2  N   UNL     1     -41.792  58.754 -55.209  1.00  0.00    -0.313 N 
HETATM    3  O   UNL     1     -42.232  60.687 -53.955  1.00  0.00    -0.262 OA
HETATM    4  H   UNL     1     -41.256  57.886 -55.121  1.00  0.00     0.169 HD
ENDROOT
BRANCH   1   5
HETATM    5  C   UNL     1     -40.818  59.018 -53.004  1.00  0.00     0.309 C 
HETATM    6  N   UNL     1     -41.526  58.358 -52.026  1.00  0.00    -0.351 N 
HETATM    7  H   UNL     1     -42.540  58.356 -52.121  1.00  0.00     0.162 HD
HETATM    8  O   UNL     1     -39.604  59.148 -53.053  1.00  0.00    -0.262 OA
BRANCH   6   9
HETATM    9  C   UNL     1     -40.887  57.669 -50.926  1.00  0.00     0.142 C 
BRANCH   9  10
HETATM   10  C   UNL     1     -41.224  56.170 -50.864  1.00  0.00     0.139 C 
BRANCH  10  11
HETATM   11  N   UNL     1     -41.948  55.769 -52.069  1.00  0.00    -0.388 N 
HETATM   12  H   UNL     1     -42.930  55.559 -51.910  1.00  0.00     0.159 HD
BRANCH  11  13
HETATM   13  C   UNL     1     -41.379  54.859 -52.966  1.00  0.00     0.028 A 
HETATM   14  C   UNL     1     -40.903  53.593 -52.603  1.00  0.00     0.035 A 
HETATM   15  C   UNL     1     -40.279  52.746 -53.536  1.00  0.00    -0.060 A 
HETATM   16  C   UNL     1     -39.812  51.377 -53.141  1.00  0.00     0.048 C 
HETATM   17  C   UNL     1     -40.106  53.186 -54.851  1.00  0.00     0.007 A 
HETATM   18  C   UNL     1     -40.529  54.458 -55.221  1.00  0.00     0.003 A 
HETATM   19  C   UNL     1     -41.146  55.287 -54.283  1.00  0.00     0.029 A 
ENDBRANCH  11  13
ENDBRANCH  10  11
ENDBRANCH   9  10
ENDBRANCH   6   9
ENDBRANCH   1   5
BRANCH   2  20
HETATM   20  C   UNL     1     -42.482  58.881 -56.382  1.00  0.00     0.124 A 
HETATM   21  C   UNL     1     -43.554  57.882 -56.702  1.00  0.00     0.291 A 
HETATM   22  O   UNL     1     -43.805  56.941 -55.962  1.00  0.00    -0.264 OA
HETATM   23  N   UNL     1     -44.066  58.230 -57.952  1.00  0.00    -0.234 N 
HETATM   24  N   UNL     1     -43.422  59.417 -58.404  1.00  0.00    -0.193 NA
HETATM   25  C   UNL     1     -44.365  60.475 -58.810  1.00  0.00     0.143 C 
HETATM   26  C   UNL     1     -42.456  59.731 -57.424  1.00  0.00     0.037 A 
HETATM   27  C   UNL     1     -41.563  60.913 -57.620  1.00  0.00     0.066 C 
BRANCH  23  28
HETATM   28  C   UNL     1     -44.721  57.346 -58.848  1.00  0.00     0.055 A 
HETATM   29  C   UNL     1     -46.112  57.392 -59.014  1.00  0.00     0.031 A 
HETATM   30  C   UNL     1     -46.763  56.524 -59.898  1.00  0.00     0.002 A 
HETATM   31  C   UNL     1     -46.031  55.589 -60.624  1.00  0.00     0.000 A 
HETATM   32  C   UNL     1     -44.651  55.520 -60.467  1.00  0.00     0.002 A 
HETATM   33  C   UNL     1     -44.002  56.393 -59.586  1.00  0.00     0.031 A 
ENDBRANCH  23  28
ENDBRANCH   2  20
TORSDOF 7
ENDMDL
MODEL 3
REMARK VINA RESULT:      -8.4      2.240      7.625
REMARK  7 active torsions:
REMARK  status: ('A' for Active; 'I' for Inactive)
REMARK    1  A    between atoms: C_4  and  N_5 
REMARK    2  A    between atoms: N_5  and  C_6 
REMARK    3  A    between atoms: C_6  and  C_7 
REMARK    4  A    between atoms: C_7  and  N_8 
REMARK       I    between atoms: N_8  and  C_9 
REMARK    5  A    between atoms: C_9  and  C_10 
REMARK       I    between atoms: C_10  and  N_11 
REMARK    6  A    between atoms: N_11  and  C_12 
REMARK    7  A    between atoms: N_15  and  C_16 
ROOT
HETATM    1  C   UNL     1     -41.424  58.870 -53.965  1.00  0.00     0.314 C 
HETATM    2  N   UNL     1     -42.128  57.695 -53.892  1.00  0.00    -0.313 N 
HETATM    3  O   UNL     1     -40.424  59.213 -53.351  1.00  0.00    -0.262 OA
HETATM    4  H   UNL     1     -42.938  57.639 -54.517  1.00  0.00     0.169 HD
ENDROOT
BRANCH   1   5
HETATM    5  C   UNL     1     -42.017  59.844 -55.010  1.00  0.00     0.309 C 
HETATM    6  N   UNL     1     -42.047  59.334 -56.288  1.00  0.00    -0.351 N 
HETATM    7  H   UNL     1     -41.647  58.407 -56.418  1.00  0.00     0.162 HD
HETATM    8  O   UNL     1     -42.425  60.941 -54.661  1.00  0.00    -0.262 OA
BRANCH   6   9
HETATM    9  C   UNL     1     -42.637  60.045 -57.401  1.00  0.00     0.142 C 
BRANCH   9  10
HETATM   10  C   UNL     1     -43.815  59.298 -58.050  1.00  0.00     0.139 C 
BRANCH  10  11
HETATM   11  N   UNL     1     -43.670  57.858 -57.843  1.00  0.00    -0.388 N 
HETATM   12  H   UNL     1     -42.726  57.570 -57.596  1.00  0.00     0.159 HD
BRANCH  11  13
HETATM   13  C   UNL     1     -44.254  56.953 -58.734  1.00  0.00     0.028 A 
HETATM   14  C   UNL     1     -45.475  57.171 -59.385  1.00  0.00     0.035 A 
HETATM   15  C   UNL     1     -46.048  56.196 -60.220  1.00  0.00    -0.060 A 
HETATM   16  C   UNL     1     -47.336  56.460 -60.942  1.00  0.00     0.048 C 
HETATM   17  C   UNL     1     -45.398  54.970 -60.386  1.00  0.00     0.007 A 
HETATM   18  C   UNL     1     -44.209  54.715 -59.712  1.00  0.00     0.003 A 
HETATM   19  C   UNL     1     -43.653  55.694 -58.886  1.00  0.00     0.029 A 
ENDBRANCH  11  13
ENDBRANCH  10  11
ENDBRANCH   9  10
ENDBRANCH   6   9
ENDBRANCH   1   5
BRANCH   2  20
HETATM   20  C   UNL     1     -41.922  56.583 -53.125  1.00  0.00     0.124 A 
HETATM   21  C   UNL     1     -40.903  55.576 -53.569  1.00  0.00     0.291 A 
HETATM   22  O   UNL     1     -40.276  55.704 -54.611  1.00  0.00    -0.264 OA
HETATM   23  N   UNL     1     -40.921  54.546 -52.628  1.00  0.00    -0.234 N 
HETATM   24  N   UNL     1     -41.844  54.876 -51.595  1.00  0.00    -0.193 NA
HETATM   25  C   UNL     1     -41.266  54.783 -50.242  1.00  0.00     0.143 C 
HETATM   26  C   UNL     1     -42.435  56.099 -51.980  1.00  0.00     0.037 A 
HETATM   27  C   UNL     1     -43.498  56.707 -51.122  1.00  0.00     0.066 C 
BRANCH  23  28
HETATM   28  C   UNL     1     -40.506  53.209 -52.863  1.00  0.00     0.055 A 
HETATM   29  C   UNL     1     -39.773  52.505 -51.899  1.00  0.00     0.031 A 
HETATM   30  C   UNL     1     -39.364  51.186 -52.126  1.00  0.00     0.002 A 
HETATM   31  C   UNL     1     -39.676  50.554 -53.325  1.00  0.00     0.000 A 
HETATM   32  C   UNL     1     -40.396  51.239 -54.299  1.00  0.00     0.002 A 
HETATM   33  C   UNL     1     -40.808  52.556 -54.068  1.00  0.00     0.031 A 
ENDBRANCH  23  28
ENDBRANCH   2  20
TORSDOF 7
ENDMDL
MODEL 4
REMARK VINA RESULT:      -8.2      3.659      5.688
REMARK  7 active torsions:
REMARK  status: ('A' for Active; 'I' for Inactive)
REMARK    1  A    between atoms: C_4  and  N_5 
REMARK    2  A    between atoms: N_5  and  C_6 
REMARK    3  A    between atoms: C_6  and  C_7 
REMARK    4  A    between atoms: C_7  and  N_8 
REMARK       I    between atoms: N_8  and  C_9 
REMARK    5  A    between atoms: C_9  and  C_10 
REMARK       I    between atoms: C_10  and  N_11 
REMARK    6  A    between atoms: N_11  and  C_12 
REMARK    7  A    between atoms: N_15  and  C_16 
ROOT
HETATM    1  C   UNL     1     -43.754  56.951 -51.531  1.00  0.00     0.314 C 
HETATM    2  N   UNL     1     -43.677  58.136 -50.843  1.00  0.00    -0.313 N 
HETATM    3  O   UNL     1     -44.163  56.739 -52.664  1.00  0.00    -0.262 OA
HETATM    4  H   UNL     1     -43.289  58.061 -49.898  1.00  0.00     0.169 HD
ENDROOT
BRANCH   1   5
HETATM    5  C   UNL     1     -43.206  55.761 -50.710  1.00  0.00     0.309 C 
HETATM    6  N   UNL     1     -41.990  56.010 -50.117  1.00  0.00    -0.351 N 
HETATM    7  H   UNL     1     -41.566  56.916 -50.309  1.00  0.00     0.162 HD
HETATM    8  O   UNL     1     -43.856  54.731 -50.618  1.00  0.00    -0.262 OA
BRANCH   6   9
HETATM    9  C   UNL     1     -41.338  55.063 -49.238  1.00  0.00     0.142 C 
BRANCH   9  10
HETATM   10  C   UNL     1     -40.019  54.511 -49.803  1.00  0.00     0.139 C 
BRANCH  10  11
HETATM   11  N   UNL     1     -40.200  53.126 -50.236  1.00  0.00    -0.388 N 
HETATM   12  H   UNL     1     -39.640  52.454 -49.717  1.00  0.00     0.159 HD
BRANCH  11  13
HETATM   13  C   UNL     1     -40.230  52.809 -51.598  1.00  0.00     0.028 A 
HETATM   14  C   UNL     1     -39.811  51.582 -52.126  1.00  0.00     0.035 A 
HETATM   15  C   UNL     1     -39.800  51.342 -53.511  1.00  0.00    -0.060 A 
HETATM   16  C   UNL     1     -39.388  50.008 -54.060  1.00  0.00     0.048 C 
HETATM   17  C   UNL     1     -40.192  52.360 -54.385  1.00  0.00     0.007 A 
HETATM   18  C   UNL     1     -40.567  53.602 -53.884  1.00  0.00     0.003 A 
HETATM   19  C   UNL     1     -40.572  53.824 -52.505  1.00  0.00     0.029 A 
ENDBRANCH  11  13
ENDBRANCH  10  11
ENDBRANCH   9  10
ENDBRANCH   6   9
ENDBRANCH   1   5
BRANCH   2  20
HETATM   20  C   UNL     1     -44.029  59.403 -51.215  1.00  0.00     0.124 A 
HETATM   21  C   UNL     1     -45.291  59.995 -50.660  1.00  0.00     0.291 A 
HETATM   22  O   UNL     1     -46.028  59.368 -49.913  1.00  0.00    -0.264 OA
HETATM   23  N   UNL     1     -45.417  61.267 -51.221  1.00  0.00    -0.234 N 
HETATM   24  N   UNL     1     -44.284  61.526 -52.043  1.00  0.00    -0.193 NA
HETATM   25  C   UNL     1     -43.613  62.800 -51.729  1.00  0.00     0.143 C 
HETATM   26  C   UNL     1     -43.509  60.346 -52.020  1.00  0.00     0.037 A 
HETATM   27  C   UNL     1     -42.256  60.271 -52.830  1.00  0.00     0.066 C 
BRANCH  23  28
HETATM   28  C   UNL     1     -46.634  61.981 -51.375  1.00  0.00     0.055 A 
HETATM   29  C   UNL     1     -47.042  62.918 -50.417  1.00  0.00     0.031 A 
HETATM   30  C   UNL     1     -48.239  63.627 -50.565  1.00  0.00     0.002 A 
HETATM   31  C   UNL     1     -49.052  63.402 -51.672  1.00  0.00     0.000 A 
HETATM   32  C   UNL     1     -48.669  62.469 -52.630  1.00  0.00     0.002 A 
HETATM   33  C   UNL     1     -47.469  61.765 -52.482  1.00  0.00     0.031 A 
ENDBRANCH  23  28
ENDBRANCH   2  20
TORSDOF 7
ENDMDL
MODEL 5
REMARK VINA RESULT:      -7.8      3.358      4.627
REMARK  7 active torsions:
REMARK  status: ('A' for Active; 'I' for Inactive)
REMARK    1  A    between atoms: C_4  and  N_5 
REMARK    2  A    between atoms: N_5  and  C_6 
REMARK    3  A    between atoms: C_6  and  C_7 
REMARK    4  A    between atoms: C_7  and  N_8 
REMARK       I    between atoms: N_8  and  C_9 
REMARK    5  A    between atoms: C_9  and  C_10 
REMARK       I    between atoms: C_10  and  N_11 
REMARK    6  A    between atoms: N_11  and  C_12 
REMARK    7  A    between atoms: N_15  and  C_16 
ROOT
HETATM    1  C   UNL     1     -43.301  57.585 -55.605  1.00  0.00     0.314 C 
HETATM    2  N   UNL     1     -44.177  57.096 -56.541  1.00  0.00    -0.313 N 
HETATM    3  O   UNL     1     -42.487  58.493 -55.706  1.00  0.00    -0.262 OA
HETATM    4  H   UNL     1     -44.768  56.326 -56.216  1.00  0.00     0.169 HD
ENDROOT
BRANCH   1   5
HETATM    5  C   UNL     1     -43.431  56.859 -54.246  1.00  0.00     0.309 C 
HETATM    6  N   UNL     1     -43.021  55.547 -54.277  1.00  0.00    -0.351 N 
HETATM    7  H   UNL     1     -42.720  55.184 -55.179  1.00  0.00     0.162 HD
HETATM    8  O   UNL     1     -43.845  57.463 -53.268  1.00  0.00    -0.262 OA
BRANCH   6   9
HETATM    9  C   UNL     1     -42.981  54.710 -53.097  1.00  0.00     0.142 C 
BRANCH   9  10
HETATM   10  C   UNL     1     -41.627  54.745 -52.367  1.00  0.00     0.139 C 
BRANCH  10  11
HETATM   11  N   UNL     1     -40.588  54.156 -53.211  1.00  0.00    -0.388 N 
HETATM   12  H   UNL     1     -40.579  54.513 -54.164  1.00  0.00     0.159 HD
BRANCH  11  13
HETATM   13  C   UNL     1     -40.356  52.777 -53.189  1.00  0.00     0.028 A 
HETATM   14  C   UNL     1     -39.967  52.066 -52.047  1.00  0.00     0.035 A 
HETATM   15  C   UNL     1     -39.683  50.691 -52.098  1.00  0.00    -0.060 A 
HETATM   16  C   UNL     1     -39.308  49.934 -50.858  1.00  0.00     0.048 C 
HETATM   17  C   UNL     1     -39.765  50.020 -53.322  1.00  0.00     0.007 A 
HETATM   18  C   UNL     1     -40.103  50.717 -54.477  1.00  0.00     0.003 A 
HETATM   19  C   UNL     1     -40.382  52.084 -54.408  1.00  0.00     0.029 A 
ENDBRANCH  11  13
ENDBRANCH  10  11
ENDBRANCH   9  10
ENDBRANCH   6   9
ENDBRANCH   1   5
BRANCH   2  20
HETATM   20  C   UNL     1     -44.392  57.473 -57.837  1.00  0.00     0.124 A 
HETATM   21  C   UNL     1     -45.787  57.818 -58.267  1.00  0.00     0.291 A 
HETATM   22  O   UNL     1     -46.739  57.741 -57.504  1.00  0.00    -0.264 OA
HETATM   23  N   UNL     1     -45.722  58.134 -59.625  1.00  0.00    -0.234 N 
HETATM   24  N   UNL     1     -44.365  58.064 -60.053  1.00  0.00    -0.193 NA
HETATM   25  C   UNL     1     -43.908  59.281 -60.748  1.00  0.00     0.143 C 
HETATM   26  C   UNL     1     -43.627  57.625 -58.932  1.00  0.00     0.037 A 
HETATM   27  C   UNL     1     -42.155  57.403 -59.060  1.00  0.00     0.066 C 
BRANCH  23  28
HETATM   28  C   UNL     1     -46.801  58.052 -60.542  1.00  0.00     0.055 A 
HETATM   29  C   UNL     1     -47.487  59.205 -60.949  1.00  0.00     0.031 A 
HETATM   30  C   UNL     1     -48.550  59.130 -61.855  1.00  0.00     0.002 A 
HETATM   31  C   UNL     1     -48.951  57.898 -62.361  1.00  0.00     0.000 A 
HETATM   32  C   UNL     1     -48.290  56.740 -61.963  1.00  0.00     0.002 A 
HETATM   33  C   UNL     1     -47.223  56.819 -61.061  1.00  0.00     0.031 A 
ENDBRANCH  23  28
ENDBRANCH   2  20
TORSDOF 7
ENDMDL
MODEL 6
REMARK VINA RESULT:      -7.8      3.071      9.365
REMARK  7 active torsions:
REMARK  status: ('A' for Active; 'I' for Inactive)
REMARK    1  A    between atoms: C_4  and  N_5 
REMARK    2  A    between atoms: N_5  and  C_6 
REMARK    3  A    between atoms: C_6  and  C_7 
REMARK    4  A    between atoms: C_7  and  N_8 
REMARK       I    between atoms: N_8  and  C_9 
REMARK    5  A    between atoms: C_9  and  C_10 
REMARK       I    between atoms: C_10  and  N_11 
REMARK    6  A    between atoms: N_11  and  C_12 
REMARK    7  A    between atoms: N_15  and  C_16 
ROOT
HETATM    1  C   UNL     1     -42.590  56.627 -56.888  1.00  0.00     0.314 C 
HETATM    2  N   UNL     1     -41.732  56.437 -55.835  1.00  0.00    -0.313 N 
HETATM    3  O   UNL     1     -43.627  56.038 -57.158  1.00  0.00    -0.262 OA
HETATM    4  H   UNL     1     -40.923  57.065 -55.820  1.00  0.00     0.169 HD
ENDROOT
BRANCH   1   5
HETATM    5  C   UNL     1     -42.137  57.782 -57.811  1.00  0.00     0.309 C 
HETATM    6  N   UNL     1     -42.045  57.428 -59.138  1.00  0.00    -0.351 N 
HETATM    7  H   UNL     1     -42.240  56.455 -59.364  1.00  0.00     0.162 HD
HETATM    8  O   UNL     1     -41.922  58.890 -57.343  1.00  0.00    -0.262 OA
BRANCH   6   9
HETATM    9  C   UNL     1     -41.720  58.377 -60.181  1.00  0.00     0.142 C 
BRANCH   9  10
HETATM   10  C   UNL     1     -42.870  59.344 -60.509  1.00  0.00     0.139 C 
BRANCH  10  11
HETATM   11  N   UNL     1     -42.605  60.656 -59.921  1.00  0.00    -0.388 N 
HETATM   12  H   UNL     1     -43.444  61.196 -59.721  1.00  0.00     0.159 HD
BRANCH  11  13
HETATM   13  C   UNL     1     -41.595  61.472 -60.440  1.00  0.00     0.028 A 
HETATM   14  C   UNL     1     -40.703  62.211 -59.653  1.00  0.00     0.035 A 
HETATM   15  C   UNL     1     -39.749  63.068 -60.229  1.00  0.00    -0.060 A 
HETATM   16  C   UNL     1     -38.774  63.822 -59.375  1.00  0.00     0.048 C 
HETATM   17  C   UNL     1     -39.704  63.206 -61.620  1.00  0.00     0.007 A 
HETATM   18  C   UNL     1     -40.612  62.517 -62.417  1.00  0.00     0.003 A 
HETATM   19  C   UNL     1     -41.553  61.670 -61.828  1.00  0.00     0.029 A 
ENDBRANCH  11  13
ENDBRANCH  10  11
ENDBRANCH   9  10
ENDBRANCH   6   9
ENDBRANCH   1   5
BRANCH   2  20
HETATM   20  C   UNL     1     -41.783  55.549 -54.797  1.00  0.00     0.124 A 
HETATM   21  C   UNL     1     -40.661  54.567 -54.630  1.00  0.00     0.291 A 
HETATM   22  O   UNL     1     -39.722  54.517 -55.411  1.00  0.00    -0.264 OA
HETATM   23  N   UNL     1     -40.982  53.776 -53.526  1.00  0.00    -0.234 N 
HETATM   24  N   UNL     1     -42.203  54.242 -52.961  1.00  0.00    -0.193 NA
HETATM   25  C   UNL     1     -42.114  54.508 -51.513  1.00  0.00     0.143 C 
HETATM   26  C   UNL     1     -42.646  55.288 -53.800  1.00  0.00     0.037 A 
HETATM   27  C   UNL     1     -43.942  55.971 -53.505  1.00  0.00     0.066 C 
BRANCH  23  28
HETATM   28  C   UNL     1     -40.497  52.465 -53.284  1.00  0.00     0.055 A 
HETATM   29  C   UNL     1     -40.602  51.468 -54.264  1.00  0.00     0.031 A 
HETATM   30  C   UNL     1     -40.122  50.175 -54.031  1.00  0.00     0.002 A 
HETATM   31  C   UNL     1     -39.537  49.856 -52.809  1.00  0.00     0.000 A 
HETATM   32  C   UNL     1     -39.431  50.829 -51.820  1.00  0.00     0.002 A 
HETATM   33  C   UNL     1     -39.907  52.122 -52.057  1.00  0.00     0.031 A 
ENDBRANCH  23  28
ENDBRANCH   2  20
TORSDOF 7
ENDMDL
MODEL 7
REMARK VINA RESULT:      -7.7      2.423      3.743
REMARK  7 active torsions:
REMARK  status: ('A' for Active; 'I' for Inactive)
REMARK    1  A    between atoms: C_4  and  N_5 
REMARK    2  A    between atoms: N_5  and  C_6 
REMARK    3  A    between atoms: C_6  and  C_7 
REMARK    4  A    between atoms: C_7  and  N_8 
REMARK       I    between atoms: N_8  and  C_9 
REMARK    5  A    between atoms: C_9  and  C_10 
REMARK       I    between atoms: C_10  and  N_11 
REMARK    6  A    between atoms: N_11  and  C_12 
REMARK    7  A    between atoms: N_15  and  C_16 
ROOT
HETATM    1  C   UNL     1     -43.671  56.900 -55.230  1.00  0.00     0.314 C 
HETATM    2  N   UNL     1     -43.955  56.721 -56.560  1.00  0.00    -0.313 N 
HETATM    3  O   UNL     1     -43.598  57.938 -54.587  1.00  0.00    -0.262 OA
HETATM    4  H   UNL     1     -43.964  55.745 -56.871  1.00  0.00     0.169 HD
ENDROOT
BRANCH   1   5
HETATM    5  C   UNL     1     -43.449  55.559 -54.493  1.00  0.00     0.309 C 
HETATM    6  N   UNL     1     -43.342  55.688 -53.128  1.00  0.00    -0.351 N 
HETATM    7  H   UNL     1     -43.377  56.635 -52.755  1.00  0.00     0.162 HD
HETATM    8  O   UNL     1     -43.409  54.514 -55.125  1.00  0.00    -0.262 OA
BRANCH   6   9
HETATM    9  C   UNL     1     -43.215  54.552 -52.241  1.00  0.00     0.142 C 
BRANCH   9  10
HETATM   10  C   UNL     1     -41.950  54.595 -51.367  1.00  0.00     0.139 C 
BRANCH  10  11
HETATM   11  N   UNL     1     -40.771  54.290 -52.177  1.00  0.00    -0.388 N 
HETATM   12  H   UNL     1     -40.659  54.897 -52.987  1.00  0.00     0.159 HD
BRANCH  11  13
HETATM   13  C   UNL     1     -40.453  52.966 -52.494  1.00  0.00     0.028 A 
HETATM   14  C   UNL     1     -40.038  52.014 -51.555  1.00  0.00     0.035 A 
HETATM   15  C   UNL     1     -39.666  50.714 -51.940  1.00  0.00    -0.060 A 
HETATM   16  C   UNL     1     -39.262  49.693 -50.919  1.00  0.00     0.048 C 
HETATM   17  C   UNL     1     -39.688  50.369 -53.295  1.00  0.00     0.007 A 
HETATM   18  C   UNL     1     -40.053  51.314 -54.248  1.00  0.00     0.003 A 
HETATM   19  C   UNL     1     -40.418  52.601 -53.848  1.00  0.00     0.029 A 
ENDBRANCH  11  13
ENDBRANCH  10  11
ENDBRANCH   9  10
ENDBRANCH   6   9
ENDBRANCH   1   5
BRANCH   2  20
HETATM   20  C   UNL     1     -44.234  57.633 -57.540  1.00  0.00     0.124 A 
HETATM   21  C   UNL     1     -43.105  58.174 -58.366  1.00  0.00     0.291 A 
HETATM   22  O   UNL     1     -41.942  57.848 -58.169  1.00  0.00    -0.264 OA
HETATM   23  N   UNL     1     -43.663  59.092 -59.255  1.00  0.00    -0.234 N 
HETATM   24  N   UNL     1     -45.075  59.114 -59.075  1.00  0.00    -0.193 NA
HETATM   25  C   UNL     1     -45.828  58.922 -60.328  1.00  0.00     0.143 C 
HETATM   26  C   UNL     1     -45.342  58.237 -58.001  1.00  0.00     0.037 A 
HETATM   27  C   UNL     1     -46.748  58.064 -57.522  1.00  0.00     0.066 C 
BRANCH  23  28
HETATM   28  C   UNL     1     -42.971  60.166 -59.872  1.00  0.00     0.055 A 
HETATM   29  C   UNL     1     -42.417  60.023 -61.151  1.00  0.00     0.031 A 
HETATM   30  C   UNL     1     -41.735  61.080 -61.765  1.00  0.00     0.002 A 
HETATM   31  C   UNL     1     -41.589  62.295 -61.103  1.00  0.00     0.000 A 
HETATM   32  C   UNL     1     -42.123  62.455 -59.828  1.00  0.00     0.002 A 
HETATM   33  C   UNL     1     -42.809  61.398 -59.219  1.00  0.00     0.031 A 
ENDBRANCH  23  28
ENDBRANCH   2  20
TORSDOF 7
ENDMDL
MODEL 8
REMARK VINA RESULT:      -7.7      3.410      4.626
REMARK  7 active torsions:
REMARK  status: ('A' for Active; 'I' for Inactive)
REMARK    1  A    between atoms: C_4  and  N_5 
REMARK    2  A    between atoms: N_5  and  C_6 
REMARK    3  A    between atoms: C_6  and  C_7 
REMARK    4  A    between atoms: C_7  and  N_8 
REMARK       I    between atoms: N_8  and  C_9 
REMARK    5  A    between atoms: C_9  and  C_10 
REMARK       I    between atoms: C_10  and  N_11 
REMARK    6  A    between atoms: N_11  and  C_12 
REMARK    7  A    between atoms: N_15  and  C_16 
ROOT
HETATM    1  C   UNL     1     -44.145  58.274 -55.337  1.00  0.00     0.314 C 
HETATM    2  N   UNL     1     -44.347  57.445 -56.412  1.00  0.00    -0.313 N 
HETATM    3  O   UNL     1     -44.101  59.495 -55.299  1.00  0.00    -0.262 OA
HETATM    4  H   UNL     1     -44.347  56.445 -56.190  1.00  0.00     0.169 HD
ENDROOT
BRANCH   1   5
HETATM    5  C   UNL     1     -43.984  57.489 -54.015  1.00  0.00     0.309 C 
HETATM    6  N   UNL     1     -43.291  58.174 -53.044  1.00  0.00    -0.351 N 
HETATM    7  H   UNL     1     -42.928  59.089 -53.303  1.00  0.00     0.162 HD
HETATM    8  O   UNL     1     -44.474  56.375 -53.902  1.00  0.00    -0.262 OA
BRANCH   6   9
HETATM    9  C   UNL     1     -43.100  57.658 -51.705  1.00  0.00     0.142 C 
BRANCH   9  10
HETATM   10  C   UNL     1     -41.816  56.826 -51.548  1.00  0.00     0.139 C 
BRANCH  10  11
HETATM   11  N   UNL     1     -42.097  55.416 -51.816  1.00  0.00    -0.388 N 
HETATM   12  H   UNL     1     -42.104  54.831 -50.984  1.00  0.00     0.159 HD
BRANCH  11  13
HETATM   13  C   UNL     1     -41.476  54.761 -52.885  1.00  0.00     0.028 A 
HETATM   14  C   UNL     1     -41.289  53.375 -52.953  1.00  0.00     0.035 A 
HETATM   15  C   UNL     1     -40.598  52.778 -54.021  1.00  0.00    -0.060 A 
HETATM   16  C   UNL     1     -40.441  51.288 -54.102  1.00  0.00     0.048 C 
HETATM   17  C   UNL     1     -40.061  53.587 -55.028  1.00  0.00     0.007 A 
HETATM   18  C   UNL     1     -40.195  54.970 -54.954  1.00  0.00     0.003 A 
HETATM   19  C   UNL     1     -40.884  55.547 -53.886  1.00  0.00     0.029 A 
ENDBRANCH  11  13
ENDBRANCH  10  11
ENDBRANCH   9  10
ENDBRANCH   6   9
ENDBRANCH   1   5
BRANCH   2  20
HETATM   20  C   UNL     1     -44.554  57.737 -57.731  1.00  0.00     0.124 A 
HETATM   21  C   UNL     1     -45.954  57.991 -58.204  1.00  0.00     0.291 A 
HETATM   22  O   UNL     1     -46.917  57.914 -57.454  1.00  0.00    -0.264 OA
HETATM   23  N   UNL     1     -45.876  58.232 -59.577  1.00  0.00    -0.234 N 
HETATM   24  N   UNL     1     -44.509  58.201 -59.976  1.00  0.00    -0.193 NA
HETATM   25  C   UNL     1     -44.095  59.397 -60.733  1.00  0.00     0.143 C 
HETATM   26  C   UNL     1     -43.775  57.862 -58.819  1.00  0.00     0.037 A 
HETATM   27  C   UNL     1     -42.291  57.702 -58.909  1.00  0.00     0.066 C 
BRANCH  23  28
HETATM   28  C   UNL     1     -46.932  58.048 -60.506  1.00  0.00     0.055 A 
HETATM   29  C   UNL     1     -47.252  56.771 -60.987  1.00  0.00     0.031 A 
HETATM   30  C   UNL     1     -48.294  56.584 -61.901  1.00  0.00     0.002 A 
HETATM   31  C   UNL     1     -49.028  57.674 -62.356  1.00  0.00     0.000 A 
HETATM   32  C   UNL     1     -48.721  58.952 -61.898  1.00  0.00     0.002 A 
HETATM   33  C   UNL     1     -47.682  59.135 -60.980  1.00  0.00     0.031 A 
ENDBRANCH  23  28
ENDBRANCH   2  20
TORSDOF 7
ENDMDL
MODEL 9
REMARK VINA RESULT:      -7.6      3.857      5.266
REMARK  7 active torsions:
REMARK  status: ('A' for Active; 'I' for Inactive)
REMARK    1  A    between atoms: C_4  and  N_5 
REMARK    2  A    between atoms: N_5  and  C_6 
REMARK    3  A    between atoms: C_6  and  C_7 
REMARK    4  A    between atoms: C_7  and  N_8 
REMARK       I    between atoms: N_8  and  C_9 
REMARK    5  A    between atoms: C_9  and  C_10 
REMARK       I    between atoms: C_10  and  N_11 
REMARK    6  A    between atoms: N_11  and  C_12 
REMARK    7  A    between atoms: N_15  and  C_16 
ROOT
HETATM    1  C   UNL     1     -44.089  58.270 -56.255  1.00  0.00     0.314 C 
HETATM    2  N   UNL     1     -44.319  57.636 -57.449  1.00  0.00    -0.313 N 
HETATM    3  O   UNL     1     -44.244  59.447 -55.960  1.00  0.00    -0.262 OA
HETATM    4  H   UNL     1     -44.118  56.631 -57.450  1.00  0.00     0.169 HD
ENDROOT
BRANCH   1   5
HETATM    5  C   UNL     1     -43.592  57.296 -55.161  1.00  0.00     0.309 C 
HETATM    6  N   UNL     1     -44.117  56.029 -55.267  1.00  0.00    -0.351 N 
HETATM    7  H   UNL     1     -44.796  55.878 -56.010  1.00  0.00     0.162 HD
HETATM    8  O   UNL     1     -42.785  57.676 -54.326  1.00  0.00    -0.262 OA
BRANCH   6   9
HETATM    9  C   UNL     1     -43.721  54.942 -54.397  1.00  0.00     0.142 C 
BRANCH   9  10
HETATM   10  C   UNL     1     -42.378  54.304 -54.788  1.00  0.00     0.139 C 
BRANCH  10  11
HETATM   11  N   UNL     1     -41.443  54.376 -53.666  1.00  0.00    -0.388 N 
HETATM   12  H   UNL     1     -40.829  55.187 -53.693  1.00  0.00     0.159 HD
BRANCH  11  13
HETATM   13  C   UNL     1     -40.752  53.235 -53.247  1.00  0.00     0.028 A 
HETATM   14  C   UNL     1     -40.475  52.138 -54.072  1.00  0.00     0.035 A 
HETATM   15  C   UNL     1     -39.835  50.989 -53.578  1.00  0.00    -0.060 A 
HETATM   16  C   UNL     1     -39.508  49.839 -54.483  1.00  0.00     0.048 C 
HETATM   17  C   UNL     1     -39.487  50.927 -52.225  1.00  0.00     0.007 A 
HETATM   18  C   UNL     1     -39.794  51.987 -51.378  1.00  0.00     0.003 A 
HETATM   19  C   UNL     1     -40.432  53.121 -51.885  1.00  0.00     0.029 A 
ENDBRANCH  11  13
ENDBRANCH  10  11
ENDBRANCH   9  10
ENDBRANCH   6   9
ENDBRANCH   1   5
BRANCH   2  20
HETATM   20  C   UNL     1     -44.779  58.125 -58.640  1.00  0.00     0.124 A 
HETATM   21  C   UNL     1     -46.258  58.141 -58.892  1.00  0.00     0.291 A 
HETATM   22  O   UNL     1     -47.059  57.702 -58.080  1.00  0.00    -0.264 OA
HETATM   23  N   UNL     1     -46.440  58.657 -60.176  1.00  0.00    -0.234 N 
HETATM   24  N   UNL     1     -45.172  59.018 -60.715  1.00  0.00    -0.193 NA
HETATM   25  C   UNL     1     -45.125  60.401 -61.224  1.00  0.00     0.143 C 
HETATM   26  C   UNL     1     -44.217  58.635 -59.749  1.00  0.00     0.037 A 
HETATM   27  C   UNL     1     -42.762  58.837 -60.030  1.00  0.00     0.066 C 
BRANCH  23  28
HETATM   28  C   UNL     1     -47.567  58.423 -61.005  1.00  0.00     0.055 A 
HETATM   29  C   UNL     1     -47.779  57.168 -61.591  1.00  0.00     0.031 A 
HETATM   30  C   UNL     1     -48.891  56.932 -62.407  1.00  0.00     0.002 A 
HETATM   31  C   UNL     1     -49.805  57.951 -62.656  1.00  0.00     0.000 A 
HETATM   32  C   UNL     1     -49.608  59.207 -62.091  1.00  0.00     0.002 A 
HETATM   33  C   UNL     1     -48.498  59.440 -61.271  1.00  0.00     0.031 A 
ENDBRANCH  23  28
ENDBRANCH   2  20
TORSDOF 7
ENDMDL
MODEL 10
REMARK VINA RESULT:      -7.4      2.978      4.257
REMARK  7 active torsions:
REMARK  status: ('A' for Active; 'I' for Inactive)
REMARK    1  A    between atoms: C_4  and  N_5 
REMARK    2  A    between atoms: N_5  and  C_6 
REMARK    3  A    between atoms: C_6  and  C_7 
REMARK    4  A    between atoms: C_7  and  N_8 
REMARK       I    between atoms: N_8  and  C_9 
REMARK    5  A    between atoms: C_9  and  C_10 
REMARK       I    between atoms: C_10  and  N_11 
REMARK    6  A    between atoms: N_11  and  C_12 
REMARK    7  A    between atoms: N_15  and  C_16 
ROOT
HETATM    1  C   UNL     1     -43.800  56.973 -55.033  1.00  0.00     0.314 C 
HETATM    2  N   UNL     1     -44.263  58.025 -55.782  1.00  0.00    -0.313 N 
HETATM    3  O   UNL     1     -43.363  55.893 -55.403  1.00  0.00    -0.262 OA
HETATM    4  H   UNL     1     -44.576  58.836 -55.240  1.00  0.00     0.169 HD
ENDROOT
BRANCH   1   5
HETATM    5  C   UNL     1     -43.839  57.273 -53.517  1.00  0.00     0.309 C 
HETATM    6  N   UNL     1     -43.876  56.145 -52.730  1.00  0.00    -0.351 N 
HETATM    7  H   UNL     1     -43.914  55.251 -53.216  1.00  0.00     0.162 HD
HETATM    8  O   UNL     1     -43.813  58.428 -53.121  1.00  0.00    -0.262 OA
BRANCH   6   9
HETATM    9  C   UNL     1     -43.832  56.196 -51.284  1.00  0.00     0.142 C 
BRANCH   9  10
HETATM   10  C   UNL     1     -42.410  56.078 -50.710  1.00  0.00     0.139 C 
BRANCH  10  11
HETATM   11  N   UNL     1     -42.141  54.695 -50.320  1.00  0.00    -0.388 N 
HETATM   12  H   UNL     1     -41.919  54.580 -49.333  1.00  0.00     0.159 HD
BRANCH  11  13
HETATM   13  C   UNL     1     -41.328  53.881 -51.116  1.00  0.00     0.028 A 
HETATM   14  C   UNL     1     -41.209  54.011 -52.505  1.00  0.00     0.035 A 
HETATM   15  C   UNL     1     -40.428  53.121 -53.263  1.00  0.00    -0.060 A 
HETATM   16  C   UNL     1     -40.277  53.298 -54.745  1.00  0.00     0.048 C 
HETATM   17  C   UNL     1     -39.775  52.066 -52.620  1.00  0.00     0.007 A 
HETATM   18  C   UNL     1     -39.918  51.890 -51.248  1.00  0.00     0.003 A 
HETATM   19  C   UNL     1     -40.698  52.783 -50.510  1.00  0.00     0.029 A 
ENDBRANCH  11  13
ENDBRANCH  10  11
ENDBRANCH   9  10
ENDBRANCH   6   9
ENDBRANCH   1   5
BRANCH   2  20
HETATM   20  C   UNL     1     -44.370  58.171 -57.137  1.00  0.00     0.124 A 
HETATM   21  C   UNL     1     -45.736  58.299 -57.745  1.00  0.00     0.291 A 
HETATM   22  O   UNL     1     -46.754  58.244 -57.070  1.00  0.00    -0.264 OA
HETATM   23  N   UNL     1     -45.552  58.404 -59.124  1.00  0.00    -0.234 N 
HETATM   24  N   UNL     1     -44.157  58.410 -59.408  1.00  0.00    -0.193 NA
HETATM   25  C   UNL     1     -43.736  59.544 -60.250  1.00  0.00     0.143 C 
HETATM   26  C   UNL     1     -43.508  58.229 -58.167  1.00  0.00     0.037 A 
HETATM   27  C   UNL     1     -42.017  58.143 -58.120  1.00  0.00     0.066 C 
BRANCH  23  28
HETATM   28  C   UNL     1     -46.516  58.070 -60.110  1.00  0.00     0.055 A 
HETATM   29  C   UNL     1     -47.334  59.055 -60.679  1.00  0.00     0.031 A 
HETATM   30  C   UNL     1     -48.284  58.731 -61.653  1.00  0.00     0.002 A 
HETATM   31  C   UNL     1     -48.437  57.412 -62.068  1.00  0.00     0.000 A 
HETATM   32  C   UNL     1     -47.641  56.417 -61.510  1.00  0.00     0.002 A 
HETATM   33  C   UNL     1     -46.688  56.744 -60.540  1.00  0.00     0.031 A 
ENDBRANCH  23  28
ENDBRANCH   2  20
TORSDOF 7
ENDMDL
