MODEL 1
REMARK VINA RESULT:      -8.4      0.000      0.000
REMARK  11 active torsions:
REMARK  status: ('A' for Active; 'I' for Inactive)
REMARK    1  A    between atoms: C_2  and  C_3 
REMARK    2  A    between atoms: C_3  and  C_4 
REMARK    3  A    between atoms: C_4  and  O_5 
REMARK    4  A    between atoms: O_5  and  C_6 
REMARK    5  A    between atoms: C_8  and  C_9 
REMARK       I    between atoms: C_9  and  N_10 
REMARK    6  A    between atoms: N_10  and  C_11 
REMARK    7  A    between atoms: C_11  and  N_12 
REMARK    8  A    between atoms: N_12  and  C_13 
REMARK    9  A    between atoms: C_15  and  O_16 
REMARK   10  A    between atoms: C_17  and  C_18 
REMARK   11  A    between atoms: C_25  and  C_26 
ROOT
HETATM    1  C   UNL     1     -44.436  58.758 -54.183  1.00  0.00     0.036 C 
HETATM    2  C   UNL     1     -44.859  57.472 -54.517  1.00  0.00     0.067 C 
HETATM    3  C   UNL     1     -44.082  56.359 -54.191  1.00  0.00     0.082 C 
HETATM    4  C   UNL     1     -42.869  56.511 -53.507  1.00  0.00     0.050 C 
HETATM    5  C   UNL     1     -42.551  57.791 -53.018  1.00  0.00     0.021 C 
HETATM    6  C   UNL     1     -43.336  58.906 -53.340  1.00  0.00     0.030 C 
ENDROOT
BRANCH   1   7
HETATM    7  N   UNL     1     -45.052  59.922 -54.691  1.00  0.00    -0.333 N 
HETATM    8  H   UNL     1     -45.874  60.255 -54.185  1.00  0.00     0.168 HD
BRANCH   7   9
HETATM    9  C   UNL     1     -44.505  60.860 -55.541  1.00  0.00     0.179 C 
HETATM   10  S   UNL     1     -44.530  62.534 -55.453  1.00  0.00    -0.040 SA
BRANCH   9  11
HETATM   11  N   UNL     1     -43.883  60.359 -56.663  1.00  0.00    -0.299 N 
HETATM   12  C   UNL     1     -42.561  60.007 -56.888  1.00  0.00     0.257 C 
HETATM   13  O   UNL     1     -41.647  60.164 -56.088  1.00  0.00    -0.267 OA
HETATM   14  H   UNL     1     -44.538  60.230 -57.423  1.00  0.00     0.171 HD
BRANCH  12  15
HETATM   15  C   UNL     1     -42.323  59.443 -58.245  1.00  0.00     0.035 A 
HETATM   16  C   UNL     1     -42.360  58.057 -58.448  1.00  0.00     0.053 A 
HETATM   17  C   UNL     1     -42.271  57.550 -59.743  1.00  0.00     0.069 A 
HETATM   18  C   UNL     1     -42.070  58.407 -60.822  1.00  0.00     0.037 A 
HETATM   19  C   UNL     1     -41.995  59.786 -60.612  1.00  0.00     0.004 A 
HETATM   20  C   UNL     1     -42.123  60.309 -59.322  1.00  0.00     0.017 A 
BRANCH  17  21
HETATM   21  O   UNL     1     -42.328  56.205 -59.979  1.00  0.00    -0.351 OA
BRANCH  21  22
HETATM   22  C   UNL     1     -43.547  55.618 -59.499  1.00  0.00     0.175 C 
BRANCH  22  23
HETATM   23  C   UNL     1     -44.546  55.429 -60.641  1.00  0.00     0.026 C 
BRANCH  23  24
HETATM   24  C   UNL     1     -45.963  55.856 -60.255  1.00  0.00    -0.002 C 
HETATM   25  C   UNL     1     -45.948  57.112 -59.397  1.00  0.00     0.005 C 
ENDBRANCH  23  24
ENDBRANCH  22  23
ENDBRANCH  21  22
ENDBRANCH  17  21
ENDBRANCH  12  15
ENDBRANCH   9  11
ENDBRANCH   7   9
ENDBRANCH   1   7
BRANCH   3  26
HETATM   26  O   UNL     1     -44.518  55.123 -54.585  1.00  0.00    -0.360 OA
HETATM   27  H   UNL     1     -44.244  54.461 -53.929  1.00  0.00     0.217 HD
ENDBRANCH   3  26
BRANCH   4  28
HETATM   28  C   UNL     1     -41.853  55.459 -53.419  1.00  0.00     0.183 A 
HETATM   29  O   UNL     1     -41.339  55.207 -52.172  1.00  0.00    -0.289 OA
HETATM   30  C   UNL     1     -40.726  54.002 -52.294  1.00  0.00     0.106 A 
HETATM   31  C   UNL     1     -40.857  53.594 -53.608  1.00  0.00     0.094 A 
HETATM   32  C   UNL     1     -40.129  53.262 -51.283  1.00  0.00     0.040 A 
HETATM   33  N   UNL     1     -41.539  54.546 -54.327  1.00  0.00    -0.221 NA
HETATM   34  C   UNL     1     -40.368  52.334 -53.974  1.00  0.00     0.041 A 
HETATM   35  C   UNL     1     -39.795  51.519 -52.976  1.00  0.00    -0.056 A 
HETATM   36  C   UNL     1     -39.676  51.992 -51.654  1.00  0.00     0.010 A 
BRANCH  35  37
HETATM   37  C   UNL     1     -39.382  50.107 -53.311  1.00  0.00     0.034 C 
HETATM   38  C   UNL     1     -39.857  49.707 -54.701  1.00  0.00     0.010 C 
ENDBRANCH  35  37
ENDBRANCH   4  28
TORSDOF 11
ENDMDL
MODEL 2
REMARK VINA RESULT:      -8.2      1.254      1.439
REMARK  11 active torsions:
REMARK  status: ('A' for Active; 'I' for Inactive)
REMARK    1  A    between atoms: C_2  and  C_3 
REMARK    2  A    between atoms: C_3  and  C_4 
REMARK    3  A    between atoms: C_4  and  O_5 
REMARK    4  A    between atoms: O_5  and  C_6 
REMARK    5  A    between atoms: C_8  and  C_9 
REMARK       I    between atoms: C_9  and  N_10 
REMARK    6  A    between atoms: N_10  and  C_11 
REMARK    7  A    between atoms: C_11  and  N_12 
REMARK    8  A    between atoms: N_12  and  C_13 
REMARK    9  A    between atoms: C_15  and  O_16 
REMARK   10  A    between atoms: C_17  and  C_18 
REMARK   11  A    between atoms: C_25  and  C_26 
ROOT
HETATM    1  C   UNL     1     -43.761  58.824 -52.389  1.00  0.00     0.036 C 
HETATM    2  C   UNL     1     -44.276  57.664 -52.968  1.00  0.00     0.067 C 
HETATM    3  C   UNL     1     -43.603  56.448 -52.843  1.00  0.00     0.082 C 
HETATM    4  C   UNL     1     -42.406  56.363 -52.122  1.00  0.00     0.050 C 
HETATM    5  C   UNL     1     -42.001  57.498 -51.394  1.00  0.00     0.021 C 
HETATM    6  C   UNL     1     -42.682  58.717 -51.514  1.00  0.00     0.030 C 
ENDROOT
BRANCH   1   7
HETATM    7  N   UNL     1     -44.264  60.111 -52.679  1.00  0.00    -0.333 N 
HETATM    8  H   UNL     1     -44.791  60.568 -51.934  1.00  0.00     0.168 HD
BRANCH   7   9
HETATM    9  C   UNL     1     -43.848  60.971 -53.673  1.00  0.00     0.179 C 
HETATM   10  S   UNL     1     -43.828  62.647 -53.705  1.00  0.00    -0.040 SA
BRANCH   9  11
HETATM   11  N   UNL     1     -43.429  60.375 -54.842  1.00  0.00    -0.299 N 
HETATM   12  C   UNL     1     -42.205  59.829 -55.196  1.00  0.00     0.257 C 
HETATM   13  O   UNL     1     -41.198  59.853 -54.498  1.00  0.00    -0.267 OA
HETATM   14  H   UNL     1     -44.173  60.340 -55.527  1.00  0.00     0.171 HD
BRANCH  12  15
HETATM   15  C   UNL     1     -42.198  59.226 -56.556  1.00  0.00     0.035 A 
HETATM   16  C   UNL     1     -42.461  57.861 -56.724  1.00  0.00     0.053 A 
HETATM   17  C   UNL     1     -42.586  57.337 -58.008  1.00  0.00     0.069 A 
HETATM   18  C   UNL     1     -42.376  58.147 -59.122  1.00  0.00     0.037 A 
HETATM   19  C   UNL     1     -42.076  59.501 -58.952  1.00  0.00     0.004 A 
HETATM   20  C   UNL     1     -41.987  60.046 -57.668  1.00  0.00     0.017 A 
BRANCH  17  21
HETATM   21  O   UNL     1     -42.866  56.014 -58.207  1.00  0.00    -0.351 OA
BRANCH  21  22
HETATM   22  C   UNL     1     -43.058  55.699 -59.595  1.00  0.00     0.175 C 
BRANCH  22  23
HETATM   23  C   UNL     1     -44.422  55.048 -59.820  1.00  0.00     0.026 C 
BRANCH  23  24
HETATM   24  C   UNL     1     -45.412  55.988 -60.510  1.00  0.00    -0.002 C 
HETATM   25  C   UNL     1     -46.088  56.912 -59.508  1.00  0.00     0.005 C 
ENDBRANCH  23  24
ENDBRANCH  22  23
ENDBRANCH  21  22
ENDBRANCH  17  21
ENDBRANCH  12  15
ENDBRANCH   9  11
ENDBRANCH   7   9
ENDBRANCH   1   7
BRANCH   3  26
HETATM   26  O   UNL     1     -44.125  55.348 -53.472  1.00  0.00    -0.360 OA
HETATM   27  H   UNL     1     -43.643  55.193 -54.301  1.00  0.00     0.217 HD
ENDBRANCH   3  26
BRANCH   4  28
HETATM   28  C   UNL     1     -41.481  55.230 -52.217  1.00  0.00     0.183 A 
HETATM   29  O   UNL     1     -41.156  54.606 -51.038  1.00  0.00    -0.289 OA
HETATM   30  C   UNL     1     -40.614  53.422 -51.420  1.00  0.00     0.106 A 
HETATM   31  C   UNL     1     -40.595  53.394 -52.802  1.00  0.00     0.094 A 
HETATM   32  C   UNL     1     -40.207  52.384 -50.594  1.00  0.00     0.040 A 
HETATM   33  N   UNL     1     -41.110  54.565 -53.301  1.00  0.00    -0.221 NA
HETATM   34  C   UNL     1     -40.145  52.233 -53.445  1.00  0.00     0.041 A 
HETATM   35  C   UNL     1     -39.765  51.129 -52.654  1.00  0.00    -0.056 A 
HETATM   36  C   UNL     1     -39.792  51.219 -51.249  1.00  0.00     0.010 A 
BRANCH  35  37
HETATM   37  C   UNL     1     -39.405  49.823 -53.318  1.00  0.00     0.034 C 
HETATM   38  C   UNL     1     -39.818  49.816 -54.784  1.00  0.00     0.010 C 
ENDBRANCH  35  37
ENDBRANCH   4  28
TORSDOF 11
ENDMDL
MODEL 3
REMARK VINA RESULT:      -7.9      1.984      2.681
REMARK  11 active torsions:
REMARK  status: ('A' for Active; 'I' for Inactive)
REMARK    1  A    between atoms: C_2  and  C_3 
REMARK    2  A    between atoms: C_3  and  C_4 
REMARK    3  A    between atoms: C_4  and  O_5 
REMARK    4  A    between atoms: O_5  and  C_6 
REMARK    5  A    between atoms: C_8  and  C_9 
REMARK       I    between atoms: C_9  and  N_10 
REMARK    6  A    between atoms: N_10  and  C_11 
REMARK    7  A    between atoms: C_11  and  N_12 
REMARK    8  A    between atoms: N_12  and  C_13 
REMARK    9  A    between atoms: C_15  and  O_16 
REMARK   10  A    between atoms: C_17  and  C_18 
REMARK   11  A    between atoms: C_25  and  C_26 
ROOT
HETATM    1  C   UNL     1     -43.731  58.315 -51.397  1.00  0.00     0.036 C 
HETATM    2  C   UNL     1     -44.306  57.069 -51.147  1.00  0.00     0.067 C 
HETATM    3  C   UNL     1     -43.510  55.929 -51.026  1.00  0.00     0.082 C 
HETATM    4  C   UNL     1     -42.117  56.014 -51.137  1.00  0.00     0.050 C 
HETATM    5  C   UNL     1     -41.545  57.298 -51.205  1.00  0.00     0.021 C 
HETATM    6  C   UNL     1     -42.346  58.443 -51.318  1.00  0.00     0.030 C 
ENDROOT
BRANCH   1   7
HETATM    7  N   UNL     1     -44.490  59.448 -51.764  1.00  0.00    -0.333 N 
HETATM    8  H   UNL     1     -44.524  60.208 -51.082  1.00  0.00     0.168 HD
BRANCH   7   9
HETATM    9  C   UNL     1     -44.886  59.819 -53.030  1.00  0.00     0.179 C 
HETATM   10  S   UNL     1     -45.826  61.117 -53.524  1.00  0.00    -0.040 SA
BRANCH   9  11
HETATM   11  N   UNL     1     -44.499  58.978 -54.050  1.00  0.00    -0.299 N 
HETATM   12  C   UNL     1     -43.448  59.064 -54.949  1.00  0.00     0.257 C 
HETATM   13  O   UNL     1     -42.677  60.012 -55.038  1.00  0.00    -0.267 OA
HETATM   14  H   UNL     1     -45.101  58.167 -54.109  1.00  0.00     0.171 HD
BRANCH  12  15
HETATM   15  C   UNL     1     -43.354  57.892 -55.861  1.00  0.00     0.035 A 
HETATM   16  C   UNL     1     -43.458  58.066 -57.247  1.00  0.00     0.053 A 
HETATM   17  C   UNL     1     -43.233  56.984 -58.095  1.00  0.00     0.069 A 
HETATM   18  C   UNL     1     -42.980  55.719 -57.570  1.00  0.00     0.037 A 
HETATM   19  C   UNL     1     -42.914  55.540 -56.186  1.00  0.00     0.004 A 
HETATM   20  C   UNL     1     -43.099  56.626 -55.326  1.00  0.00     0.017 A 
BRANCH  17  21
HETATM   21  O   UNL     1     -43.304  57.125 -59.452  1.00  0.00    -0.351 OA
BRANCH  21  22
HETATM   22  C   UNL     1     -44.407  56.402 -60.019  1.00  0.00     0.175 C 
BRANCH  22  23
HETATM   23  C   UNL     1     -45.635  57.302 -60.154  1.00  0.00     0.026 C 
BRANCH  23  24
HETATM   24  C   UNL     1     -46.946  56.519 -60.070  1.00  0.00    -0.002 C 
HETATM   25  C   UNL     1     -47.682  56.527 -61.402  1.00  0.00     0.005 C 
ENDBRANCH  23  24
ENDBRANCH  22  23
ENDBRANCH  21  22
ENDBRANCH  17  21
ENDBRANCH  12  15
ENDBRANCH   9  11
ENDBRANCH   7   9
ENDBRANCH   1   7
BRANCH   3  26
HETATM   26  O   UNL     1     -44.128  54.722 -50.830  1.00  0.00    -0.360 OA
HETATM   27  H   UNL     1     -43.659  54.230 -50.137  1.00  0.00     0.217 HD
ENDBRANCH   3  26
BRANCH   4  28
HETATM   28  C   UNL     1     -41.249  54.853 -51.351  1.00  0.00     0.183 A 
HETATM   29  O   UNL     1     -41.104  53.995 -50.290  1.00  0.00    -0.289 OA
HETATM   30  C   UNL     1     -40.582  52.866 -50.836  1.00  0.00     0.106 A 
HETATM   31  C   UNL     1     -40.396  53.099 -52.186  1.00  0.00     0.094 A 
HETATM   32  C   UNL     1     -40.335  51.663 -50.191  1.00  0.00     0.040 A 
HETATM   33  N   UNL     1     -40.785  54.379 -52.498  1.00  0.00    -0.221 NA
HETATM   34  C   UNL     1     -39.934  52.051 -52.992  1.00  0.00     0.041 A 
HETATM   35  C   UNL     1     -39.712  50.791 -52.397  1.00  0.00    -0.056 A 
HETATM   36  C   UNL     1     -39.905  50.616 -51.013  1.00  0.00     0.010 A 
BRANCH  35  37
HETATM   37  C   UNL     1     -39.343  49.611 -53.262  1.00  0.00     0.034 C 
HETATM   38  C   UNL     1     -39.763  49.834 -54.708  1.00  0.00     0.010 C 
ENDBRANCH  35  37
ENDBRANCH   4  28
TORSDOF 11
ENDMDL
MODEL 4
REMARK VINA RESULT:      -7.9      2.464      8.451
REMARK  11 active torsions:
REMARK  status: ('A' for Active; 'I' for Inactive)
REMARK    1  A    between atoms: C_2  and  C_3 
REMARK    2  A    between atoms: C_3  and  C_4 
REMARK    3  A    between atoms: C_4  and  O_5 
REMARK    4  A    between atoms: O_5  and  C_6 
REMARK    5  A    between atoms: C_8  and  C_9 
REMARK       I    between atoms: C_9  and  N_10 
REMARK    6  A    between atoms: N_10  and  C_11 
REMARK    7  A    between atoms: C_11  and  N_12 
REMARK    8  A    between atoms: N_12  and  C_13 
REMARK    9  A    between atoms: C_15  and  O_16 
REMARK   10  A    between atoms: C_17  and  C_18 
REMARK   11  A    between atoms: C_25  and  C_26 
ROOT
HETATM    1  C   UNL     1     -42.998  59.376 -52.309  1.00  0.00     0.036 C 
HETATM    2  C   UNL     1     -42.166  59.904 -53.295  1.00  0.00     0.067 C 
HETATM    3  C   UNL     1     -42.530  59.844 -54.642  1.00  0.00     0.082 C 
HETATM    4  C   UNL     1     -43.745  59.267 -55.028  1.00  0.00     0.050 C 
HETATM    5  C   UNL     1     -44.650  58.908 -54.012  1.00  0.00     0.021 C 
HETATM    6  C   UNL     1     -44.287  58.977 -52.660  1.00  0.00     0.030 C 
ENDROOT
BRANCH   1   7
HETATM    7  N   UNL     1     -42.581  59.195 -50.972  1.00  0.00    -0.333 N 
HETATM    8  H   UNL     1     -43.322  59.073 -50.281  1.00  0.00     0.168 HD
BRANCH   7   9
HETATM    9  C   UNL     1     -41.336  58.806 -50.527  1.00  0.00     0.179 C 
HETATM   10  S   UNL     1     -39.919  59.693 -50.389  1.00  0.00    -0.040 SA
BRANCH   9  11
HETATM   11  N   UNL     1     -41.211  57.478 -50.185  1.00  0.00    -0.299 N 
HETATM   12  C   UNL     1     -41.296  56.329 -50.956  1.00  0.00     0.257 C 
HETATM   13  O   UNL     1     -41.593  56.302 -52.144  1.00  0.00    -0.267 OA
HETATM   14  H   UNL     1     -41.009  57.367 -49.200  1.00  0.00     0.171 HD
BRANCH  12  15
HETATM   15  C   UNL     1     -41.033  55.082 -50.189  1.00  0.00     0.035 A 
HETATM   16  C   UNL     1     -40.755  53.885 -50.862  1.00  0.00     0.053 A 
HETATM   17  C   UNL     1     -40.377  52.759 -50.135  1.00  0.00     0.069 A 
HETATM   18  C   UNL     1     -40.349  52.797 -48.743  1.00  0.00     0.037 A 
HETATM   19  C   UNL     1     -40.663  53.981 -48.071  1.00  0.00     0.004 A 
HETATM   20  C   UNL     1     -41.005  55.128 -48.792  1.00  0.00     0.017 A 
BRANCH  17  21
HETATM   21  O   UNL     1     -40.076  51.583 -50.762  1.00  0.00    -0.351 OA
BRANCH  21  22
HETATM   22  C   UNL     1     -39.518  51.788 -52.069  1.00  0.00     0.175 C 
BRANCH  22  23
HETATM   23  C   UNL     1     -39.607  50.511 -52.904  1.00  0.00     0.026 C 
BRANCH  23  24
HETATM   24  C   UNL     1     -40.211  50.757 -54.287  1.00  0.00    -0.002 C 
HETATM   25  C   UNL     1     -40.421  52.243 -54.543  1.00  0.00     0.005 C 
ENDBRANCH  23  24
ENDBRANCH  22  23
ENDBRANCH  21  22
ENDBRANCH  17  21
ENDBRANCH  12  15
ENDBRANCH   9  11
ENDBRANCH   7   9
ENDBRANCH   1   7
BRANCH   3  26
HETATM   26  O   UNL     1     -41.654  60.333 -55.575  1.00  0.00    -0.360 OA
HETATM   27  H   UNL     1     -40.751  60.292 -55.220  1.00  0.00     0.217 HD
ENDBRANCH   3  26
BRANCH   4  28
HETATM   28  C   UNL     1     -44.051  58.869 -56.405  1.00  0.00     0.183 A 
HETATM   29  O   UNL     1     -43.046  58.242 -57.097  1.00  0.00    -0.289 OA
HETATM   30  C   UNL     1     -43.670  57.671 -58.159  1.00  0.00     0.106 A 
HETATM   31  C   UNL     1     -45.009  58.006 -58.090  1.00  0.00     0.094 A 
HETATM   32  C   UNL     1     -43.102  56.842 -59.116  1.00  0.00     0.040 A 
HETATM   33  N   UNL     1     -45.236  58.803 -56.994  1.00  0.00    -0.221 NA
HETATM   34  C   UNL     1     -45.887  57.472 -59.042  1.00  0.00     0.041 A 
HETATM   35  C   UNL     1     -45.372  56.584 -60.009  1.00  0.00    -0.056 A 
HETATM   36  C   UNL     1     -43.995  56.288 -60.040  1.00  0.00     0.010 A 
BRANCH  35  37
HETATM   37  C   UNL     1     -46.313  55.889 -60.962  1.00  0.00     0.034 C 
HETATM   38  C   UNL     1     -47.579  56.706 -61.182  1.00  0.00     0.010 C 
ENDBRANCH  35  37
ENDBRANCH   4  28
TORSDOF 11
ENDMDL
MODEL 5
REMARK VINA RESULT:      -7.8      1.362      2.976
REMARK  11 active torsions:
REMARK  status: ('A' for Active; 'I' for Inactive)
REMARK    1  A    between atoms: C_2  and  C_3 
REMARK    2  A    between atoms: C_3  and  C_4 
REMARK    3  A    between atoms: C_4  and  O_5 
REMARK    4  A    between atoms: O_5  and  C_6 
REMARK    5  A    between atoms: C_8  and  C_9 
REMARK       I    between atoms: C_9  and  N_10 
REMARK    6  A    between atoms: N_10  and  C_11 
REMARK    7  A    between atoms: C_11  and  N_12 
REMARK    8  A    between atoms: N_12  and  C_13 
REMARK    9  A    between atoms: C_15  and  O_16 
REMARK   10  A    between atoms: C_17  and  C_18 
REMARK   11  A    between atoms: C_25  and  C_26 
ROOT
HETATM    1  C   UNL     1     -44.365  58.847 -53.819  1.00  0.00     0.036 C 
HETATM    2  C   UNL     1     -44.806  57.592 -54.236  1.00  0.00     0.067 C 
HETATM    3  C   UNL     1     -44.046  56.449 -53.981  1.00  0.00     0.082 C 
HETATM    4  C   UNL     1     -42.834  56.537 -53.287  1.00  0.00     0.050 C 
HETATM    5  C   UNL     1     -42.498  57.778 -52.715  1.00  0.00     0.021 C 
HETATM    6  C   UNL     1     -43.266  58.924 -52.966  1.00  0.00     0.030 C 
ENDROOT
BRANCH   1   7
HETATM    7  N   UNL     1     -44.963  60.051 -54.251  1.00  0.00    -0.333 N 
HETATM    8  H   UNL     1     -45.658  60.461 -53.625  1.00  0.00     0.168 HD
BRANCH   7   9
HETATM    9  C   UNL     1     -44.494  60.925 -55.208  1.00  0.00     0.179 C 
HETATM   10  S   UNL     1     -44.534  62.601 -55.245  1.00  0.00    -0.040 SA
BRANCH   9  11
HETATM   11  N   UNL     1     -43.951  60.345 -56.334  1.00  0.00    -0.299 N 
HETATM   12  C   UNL     1     -42.646  59.982 -56.630  1.00  0.00     0.257 C 
HETATM   13  O   UNL     1     -41.677  60.203 -55.913  1.00  0.00    -0.267 OA
HETATM   14  H   UNL     1     -44.660  60.156 -57.031  1.00  0.00     0.171 HD
BRANCH  12  15
HETATM   15  C   UNL     1     -42.504  59.320 -57.955  1.00  0.00     0.035 A 
HETATM   16  C   UNL     1     -42.259  60.084 -59.103  1.00  0.00     0.053 A 
HETATM   17  C   UNL     1     -41.993  59.444 -60.311  1.00  0.00     0.069 A 
HETATM   18  C   UNL     1     -42.044  58.055 -60.398  1.00  0.00     0.037 A 
HETATM   19  C   UNL     1     -42.327  57.296 -59.260  1.00  0.00     0.004 A 
HETATM   20  C   UNL     1     -42.556  57.926 -58.033  1.00  0.00     0.017 A 
BRANCH  17  21
HETATM   21  O   UNL     1     -41.726  60.160 -61.444  1.00  0.00    -0.351 OA
BRANCH  21  22
HETATM   22  C   UNL     1     -41.908  61.572 -61.254  1.00  0.00     0.175 C 
BRANCH  22  23
HETATM   23  C   UNL     1     -40.646  62.340 -61.645  1.00  0.00     0.026 C 
BRANCH  23  24
HETATM   24  C   UNL     1     -40.239  63.372 -60.593  1.00  0.00    -0.002 C 
HETATM   25  C   UNL     1     -39.622  62.704 -59.372  1.00  0.00     0.005 C 
ENDBRANCH  23  24
ENDBRANCH  22  23
ENDBRANCH  21  22
ENDBRANCH  17  21
ENDBRANCH  12  15
ENDBRANCH   9  11
ENDBRANCH   7   9
ENDBRANCH   1   7
BRANCH   3  26
HETATM   26  O   UNL     1     -44.500  55.247 -54.456  1.00  0.00    -0.360 OA
HETATM   27  H   UNL     1     -43.979  54.529 -54.061  1.00  0.00     0.217 HD
ENDBRANCH   3  26
BRANCH   4  28
HETATM   28  C   UNL     1     -41.833  55.467 -53.266  1.00  0.00     0.183 A 
HETATM   29  O   UNL     1     -41.262  55.187 -52.050  1.00  0.00    -0.289 OA
HETATM   30  C   UNL     1     -40.679  53.973 -52.220  1.00  0.00     0.106 A 
HETATM   31  C   UNL     1     -40.882  53.589 -53.532  1.00  0.00     0.094 A 
HETATM   32  C   UNL     1     -40.045  53.207 -51.252  1.00  0.00     0.040 A 
HETATM   33  N   UNL     1     -41.581  54.563 -54.202  1.00  0.00    -0.221 NA
HETATM   34  C   UNL     1     -40.434  52.326 -53.941  1.00  0.00     0.041 A 
HETATM   35  C   UNL     1     -39.826  51.486 -52.985  1.00  0.00    -0.056 A 
HETATM   36  C   UNL     1     -39.634  51.936 -51.664  1.00  0.00     0.010 A 
BRANCH  35  37
HETATM   37  C   UNL     1     -39.456  50.072 -53.361  1.00  0.00     0.034 C 
HETATM   38  C   UNL     1     -39.867  49.756 -54.793  1.00  0.00     0.010 C 
ENDBRANCH  35  37
ENDBRANCH   4  28
TORSDOF 11
ENDMDL
MODEL 6
REMARK VINA RESULT:      -7.7      1.891      2.435
REMARK  11 active torsions:
REMARK  status: ('A' for Active; 'I' for Inactive)
REMARK    1  A    between atoms: C_2  and  C_3 
REMARK    2  A    between atoms: C_3  and  C_4 
REMARK    3  A    between atoms: C_4  and  O_5 
REMARK    4  A    between atoms: O_5  and  C_6 
REMARK    5  A    between atoms: C_8  and  C_9 
REMARK       I    between atoms: C_9  and  N_10 
REMARK    6  A    between atoms: N_10  and  C_11 
REMARK    7  A    between atoms: C_11  and  N_12 
REMARK    8  A    between atoms: N_12  and  C_13 
REMARK    9  A    between atoms: C_15  and  O_16 
REMARK   10  A    between atoms: C_17  and  C_18 
REMARK   11  A    between atoms: C_25  and  C_26 
ROOT
HETATM    1  C   UNL     1     -42.783  60.038 -51.623  1.00  0.00     0.036 C 
HETATM    2  C   UNL     1     -43.874  59.170 -51.584  1.00  0.00     0.067 C 
HETATM    3  C   UNL     1     -43.685  57.787 -51.567  1.00  0.00     0.082 C 
HETATM    4  C   UNL     1     -42.395  57.242 -51.573  1.00  0.00     0.050 C 
HETATM    5  C   UNL     1     -41.312  58.128 -51.427  1.00  0.00     0.021 C 
HETATM    6  C   UNL     1     -41.504  59.516 -51.436  1.00  0.00     0.030 C 
ENDROOT
BRANCH   1   7
HETATM    7  N   UNL     1     -42.913  61.420 -51.880  1.00  0.00    -0.333 N 
HETATM    8  H   UNL     1     -42.690  62.046 -51.105  1.00  0.00     0.168 HD
BRANCH   7   9
HETATM    9  C   UNL     1     -42.949  62.046 -53.107  1.00  0.00     0.179 C 
HETATM   10  S   UNL     1     -43.269  63.647 -53.488  1.00  0.00    -0.040 SA
BRANCH   9  11
HETATM   11  N   UNL     1     -42.741  61.233 -54.200  1.00  0.00    -0.299 N 
HETATM   12  C   UNL     1     -43.637  60.568 -55.023  1.00  0.00     0.257 C 
HETATM   13  O   UNL     1     -44.850  60.534 -54.855  1.00  0.00    -0.267 OA
HETATM   14  H   UNL     1     -41.755  61.143 -54.412  1.00  0.00     0.171 HD
BRANCH  12  15
HETATM   15  C   UNL     1     -42.982  59.838 -56.141  1.00  0.00     0.035 A 
HETATM   16  C   UNL     1     -43.232  58.473 -56.334  1.00  0.00     0.053 A 
HETATM   17  C   UNL     1     -42.722  57.833 -57.461  1.00  0.00     0.069 A 
HETATM   18  C   UNL     1     -41.905  58.524 -58.353  1.00  0.00     0.037 A 
HETATM   19  C   UNL     1     -41.625  59.875 -58.138  1.00  0.00     0.004 A 
HETATM   20  C   UNL     1     -42.164  60.538 -57.032  1.00  0.00     0.017 A 
BRANCH  17  21
HETATM   21  O   UNL     1     -42.967  56.509 -57.692  1.00  0.00    -0.351 OA
BRANCH  21  22
HETATM   22  C   UNL     1     -42.896  56.175 -59.087  1.00  0.00     0.175 C 
BRANCH  22  23
HETATM   23  C   UNL     1     -44.233  55.625 -59.583  1.00  0.00     0.026 C 
BRANCH  23  24
HETATM   24  C   UNL     1     -45.112  56.704 -60.216  1.00  0.00    -0.002 C 
HETATM   25  C   UNL     1     -46.222  57.140 -59.271  1.00  0.00     0.005 C 
ENDBRANCH  23  24
ENDBRANCH  22  23
ENDBRANCH  21  22
ENDBRANCH  17  21
ENDBRANCH  12  15
ENDBRANCH   9  11
ENDBRANCH   7   9
ENDBRANCH   1   7
BRANCH   3  26
HETATM   26  O   UNL     1     -44.791  56.979 -51.578  1.00  0.00    -0.360 OA
HETATM   27  H   UNL     1     -45.540  57.466 -51.960  1.00  0.00     0.217 HD
ENDBRANCH   3  26
BRANCH   4  28
HETATM   28  C   UNL     1     -42.111  55.839 -51.887  1.00  0.00     0.183 A 
HETATM   29  O   UNL     1     -42.599  55.369 -53.080  1.00  0.00    -0.289 OA
HETATM   30  C   UNL     1     -41.916  54.215 -53.294  1.00  0.00     0.106 A 
HETATM   31  C   UNL     1     -41.079  54.014 -52.212  1.00  0.00     0.094 A 
HETATM   32  C   UNL     1     -41.978  53.403 -54.417  1.00  0.00     0.040 A 
HETATM   33  N   UNL     1     -41.239  55.030 -51.302  1.00  0.00    -0.221 NA
HETATM   34  C   UNL     1     -40.207  52.918 -52.230  1.00  0.00     0.041 A 
HETATM   35  C   UNL     1     -40.194  52.086 -53.369  1.00  0.00    -0.056 A 
HETATM   36  C   UNL     1     -41.079  52.332 -54.437  1.00  0.00     0.010 A 
BRANCH  35  37
HETATM   37  C   UNL     1     -39.174  50.980 -53.474  1.00  0.00     0.034 C 
HETATM   38  C   UNL     1     -39.612  49.917 -54.473  1.00  0.00     0.010 C 
ENDBRANCH  35  37
ENDBRANCH   4  28
TORSDOF 11
ENDMDL
MODEL 7
REMARK VINA RESULT:      -7.5      5.376      8.772
REMARK  11 active torsions:
REMARK  status: ('A' for Active; 'I' for Inactive)
REMARK    1  A    between atoms: C_2  and  C_3 
REMARK    2  A    between atoms: C_3  and  C_4 
REMARK    3  A    between atoms: C_4  and  O_5 
REMARK    4  A    between atoms: O_5  and  C_6 
REMARK    5  A    between atoms: C_8  and  C_9 
REMARK       I    between atoms: C_9  and  N_10 
REMARK    6  A    between atoms: N_10  and  C_11 
REMARK    7  A    between atoms: C_11  and  N_12 
REMARK    8  A    between atoms: N_12  and  C_13 
REMARK    9  A    between atoms: C_15  and  O_16 
REMARK   10  A    between atoms: C_17  and  C_18 
REMARK   11  A    between atoms: C_25  and  C_26 
ROOT
HETATM    1  C   UNL     1     -45.121  58.601 -53.333  1.00  0.00     0.036 C 
HETATM    2  C   UNL     1     -44.906  57.917 -54.529  1.00  0.00     0.067 C 
HETATM    3  C   UNL     1     -44.087  56.787 -54.566  1.00  0.00     0.082 C 
HETATM    4  C   UNL     1     -43.477  56.308 -53.400  1.00  0.00     0.050 C 
HETATM    5  C   UNL     1     -43.851  56.898 -52.179  1.00  0.00     0.021 C 
HETATM    6  C   UNL     1     -44.680  58.027 -52.142  1.00  0.00     0.030 C 
ENDROOT
BRANCH   1   7
HETATM    7  N   UNL     1     -45.736  59.871 -53.278  1.00  0.00    -0.333 N 
HETATM    8  H   UNL     1     -46.756  59.881 -53.329  1.00  0.00     0.168 HD
BRANCH   7   9
HETATM    9  C   UNL     1     -45.191  61.048 -52.814  1.00  0.00     0.179 C 
HETATM   10  S   UNL     1     -43.927  61.963 -53.427  1.00  0.00    -0.040 SA
BRANCH   9  11
HETATM   11  N   UNL     1     -45.726  61.533 -51.640  1.00  0.00    -0.299 N 
HETATM   12  C   UNL     1     -45.293  61.416 -50.328  1.00  0.00     0.257 C 
HETATM   13  O   UNL     1     -44.332  60.749 -49.963  1.00  0.00    -0.267 OA
HETATM   14  H   UNL     1     -46.566  62.069 -51.810  1.00  0.00     0.171 HD
BRANCH  12  15
HETATM   15  C   UNL     1     -46.146  62.154 -49.357  1.00  0.00     0.035 A 
HETATM   16  C   UNL     1     -45.857  62.106 -47.988  1.00  0.00     0.053 A 
HETATM   17  C   UNL     1     -46.577  62.909 -47.105  1.00  0.00     0.069 A 
HETATM   18  C   UNL     1     -47.628  63.697 -47.568  1.00  0.00     0.037 A 
HETATM   19  C   UNL     1     -47.939  63.714 -48.930  1.00  0.00     0.004 A 
HETATM   20  C   UNL     1     -47.197  62.944 -49.830  1.00  0.00     0.017 A 
BRANCH  17  21
HETATM   21  O   UNL     1     -46.306  62.904 -45.766  1.00  0.00    -0.351 OA
BRANCH  21  22
HETATM   22  C   UNL     1     -45.124  63.655 -45.446  1.00  0.00     0.175 C 
BRANCH  22  23
HETATM   23  C   UNL     1     -44.928  63.739 -43.932  1.00  0.00     0.026 C 
BRANCH  23  24
HETATM   24  C   UNL     1     -44.004  62.643 -43.401  1.00  0.00    -0.002 C 
HETATM   25  C   UNL     1     -43.080  63.176 -42.315  1.00  0.00     0.005 C 
ENDBRANCH  23  24
ENDBRANCH  22  23
ENDBRANCH  21  22
ENDBRANCH  17  21
ENDBRANCH  12  15
ENDBRANCH   9  11
ENDBRANCH   7   9
ENDBRANCH   1   7
BRANCH   3  26
HETATM   26  O   UNL     1     -43.869  56.181 -55.775  1.00  0.00    -0.360 OA
HETATM   27  H   UNL     1     -43.620  56.852 -56.431  1.00  0.00     0.217 HD
ENDBRANCH   3  26
BRANCH   4  28
HETATM   28  C   UNL     1     -42.365  55.354 -53.402  1.00  0.00     0.183 A 
HETATM   29  O   UNL     1     -41.681  55.210 -52.221  1.00  0.00    -0.289 OA
HETATM   30  C   UNL     1     -40.980  54.058 -52.373  1.00  0.00     0.106 A 
HETATM   31  C   UNL     1     -41.232  53.576 -53.643  1.00  0.00     0.094 A 
HETATM   32  C   UNL     1     -40.198  53.423 -51.418  1.00  0.00     0.040 A 
HETATM   33  N   UNL     1     -42.082  54.428 -54.306  1.00  0.00    -0.221 NA
HETATM   34  C   UNL     1     -40.677  52.346 -54.020  1.00  0.00     0.041 A 
HETATM   35  C   UNL     1     -39.913  51.634 -53.071  1.00  0.00    -0.056 A 
HETATM   36  C   UNL     1     -39.677  52.181 -51.795  1.00  0.00     0.010 A 
BRANCH  35  37
HETATM   37  C   UNL     1     -39.416  50.249 -53.402  1.00  0.00     0.034 C 
HETATM   38  C   UNL     1     -39.901  49.800 -54.773  1.00  0.00     0.010 C 
ENDBRANCH  35  37
ENDBRANCH   4  28
TORSDOF 11
ENDMDL
MODEL 8
REMARK VINA RESULT:      -7.5      2.824      9.372
REMARK  11 active torsions:
REMARK  status: ('A' for Active; 'I' for Inactive)
REMARK    1  A    between atoms: C_2  and  C_3 
REMARK    2  A    between atoms: C_3  and  C_4 
REMARK    3  A    between atoms: C_4  and  O_5 
REMARK    4  A    between atoms: O_5  and  C_6 
REMARK    5  A    between atoms: C_8  and  C_9 
REMARK       I    between atoms: C_9  and  N_10 
REMARK    6  A    between atoms: N_10  and  C_11 
REMARK    7  A    between atoms: C_11  and  N_12 
REMARK    8  A    between atoms: N_12  and  C_13 
REMARK    9  A    between atoms: C_15  and  O_16 
REMARK   10  A    between atoms: C_17  and  C_18 
REMARK   11  A    between atoms: C_25  and  C_26 
ROOT
HETATM    1  C   UNL     1     -43.377  59.004 -53.571  1.00  0.00     0.036 C 
HETATM    2  C   UNL     1     -43.267  60.368 -53.838  1.00  0.00     0.067 C 
HETATM    3  C   UNL     1     -42.914  60.819 -55.111  1.00  0.00     0.082 C 
HETATM    4  C   UNL     1     -42.680  59.912 -56.151  1.00  0.00     0.050 C 
HETATM    5  C   UNL     1     -42.974  58.556 -55.913  1.00  0.00     0.021 C 
HETATM    6  C   UNL     1     -43.336  58.106 -54.637  1.00  0.00     0.030 C 
ENDROOT
BRANCH   1   7
HETATM    7  N   UNL     1     -43.494  58.486 -52.263  1.00  0.00    -0.333 N 
HETATM    8  H   UNL     1     -44.231  57.796 -52.115  1.00  0.00     0.168 HD
BRANCH   7   9
HETATM    9  C   UNL     1     -42.546  58.511 -51.263  1.00  0.00     0.179 C 
HETATM   10  S   UNL     1     -41.762  59.814 -50.557  1.00  0.00    -0.040 SA
BRANCH   9  11
HETATM   11  N   UNL     1     -42.135  57.281 -50.797  1.00  0.00    -0.299 N 
HETATM   12  C   UNL     1     -41.522  56.222 -51.448  1.00  0.00     0.257 C 
HETATM   13  O   UNL     1     -41.293  56.175 -52.650  1.00  0.00    -0.267 OA
HETATM   14  H   UNL     1     -42.319  57.180 -49.807  1.00  0.00     0.171 HD
BRANCH  12  15
HETATM   15  C   UNL     1     -41.189  55.087 -50.544  1.00  0.00     0.035 A 
HETATM   16  C   UNL     1     -40.925  53.818 -51.075  1.00  0.00     0.053 A 
HETATM   17  C   UNL     1     -40.483  52.799 -50.234  1.00  0.00     0.069 A 
HETATM   18  C   UNL     1     -40.378  53.016 -48.862  1.00  0.00     0.037 A 
HETATM   19  C   UNL     1     -40.680  54.271 -48.329  1.00  0.00     0.004 A 
HETATM   20  C   UNL     1     -41.085  55.312 -49.170  1.00  0.00     0.017 A 
BRANCH  17  21
HETATM   21  O   UNL     1     -40.192  51.557 -50.722  1.00  0.00    -0.351 OA
BRANCH  21  22
HETATM   22  C   UNL     1     -39.397  51.612 -51.917  1.00  0.00     0.175 C 
BRANCH  22  23
HETATM   23  C   UNL     1     -39.585  50.347 -52.754  1.00  0.00     0.026 C 
BRANCH  23  24
HETATM   24  C   UNL     1     -39.912  50.655 -54.215  1.00  0.00    -0.002 C 
HETATM   25  C   UNL     1     -40.588  52.011 -54.357  1.00  0.00     0.005 C 
ENDBRANCH  23  24
ENDBRANCH  22  23
ENDBRANCH  21  22
ENDBRANCH  17  21
ENDBRANCH  12  15
ENDBRANCH   9  11
ENDBRANCH   7   9
ENDBRANCH   1   7
BRANCH   3  26
HETATM   26  O   UNL     1     -42.772  62.167 -55.307  1.00  0.00    -0.360 OA
HETATM   27  H   UNL     1     -43.128  62.404 -56.179  1.00  0.00     0.217 HD
ENDBRANCH   3  26
BRANCH   4  28
HETATM   28  C   UNL     1     -41.997  60.268 -57.398  1.00  0.00     0.183 A 
HETATM   29  O   UNL     1     -42.525  59.750 -58.553  1.00  0.00    -0.289 OA
HETATM   30  C   UNL     1     -41.969  60.494 -59.544  1.00  0.00     0.106 A 
HETATM   31  C   UNL     1     -41.102  61.396 -58.956  1.00  0.00     0.094 A 
HETATM   32  C   UNL     1     -42.252  60.424 -60.900  1.00  0.00     0.040 A 
HETATM   33  N   UNL     1     -41.095  61.219 -57.594  1.00  0.00    -0.221 NA
HETATM   34  C   UNL     1     -40.454  62.335 -59.770  1.00  0.00     0.041 A 
HETATM   35  C   UNL     1     -40.742  62.341 -61.151  1.00  0.00    -0.056 A 
HETATM   36  C   UNL     1     -41.624  61.388 -61.697  1.00  0.00     0.010 A 
BRANCH  35  37
HETATM   37  C   UNL     1     -40.164  63.423 -62.029  1.00  0.00     0.034 C 
HETATM   38  C   UNL     1     -38.848  63.945 -61.468  1.00  0.00     0.010 C 
ENDBRANCH  35  37
ENDBRANCH   4  28
TORSDOF 11
ENDMDL
MODEL 9
REMARK VINA RESULT:      -7.5      1.903      2.895
REMARK  11 active torsions:
REMARK  status: ('A' for Active; 'I' for Inactive)
REMARK    1  A    between atoms: C_2  and  C_3 
REMARK    2  A    between atoms: C_3  and  C_4 
REMARK    3  A    between atoms: C_4  and  O_5 
REMARK    4  A    between atoms: O_5  and  C_6 
REMARK    5  A    between atoms: C_8  and  C_9 
REMARK       I    between atoms: C_9  and  N_10 
REMARK    6  A    between atoms: N_10  and  C_11 
REMARK    7  A    between atoms: C_11  and  N_12 
REMARK    8  A    between atoms: N_12  and  C_13 
REMARK    9  A    between atoms: C_15  and  O_16 
REMARK   10  A    between atoms: C_17  and  C_18 
REMARK   11  A    between atoms: C_25  and  C_26 
ROOT
HETATM    1  C   UNL     1     -42.105  59.837 -53.185  1.00  0.00     0.036 C 
HETATM    2  C   UNL     1     -42.323  59.266 -51.932  1.00  0.00     0.067 C 
HETATM    3  C   UNL     1     -41.976  57.936 -51.685  1.00  0.00     0.082 C 
HETATM    4  C   UNL     1     -41.387  57.154 -52.686  1.00  0.00     0.050 C 
HETATM    5  C   UNL     1     -41.008  57.796 -53.878  1.00  0.00     0.021 C 
HETATM    6  C   UNL     1     -41.350  59.133 -54.122  1.00  0.00     0.030 C 
ENDROOT
BRANCH   1   7
HETATM    7  N   UNL     1     -42.647  61.085 -53.562  1.00  0.00    -0.333 N 
HETATM    8  H   UNL     1     -41.975  61.825 -53.770  1.00  0.00     0.168 HD
BRANCH   7   9
HETATM    9  C   UNL     1     -43.918  61.342 -54.029  1.00  0.00     0.179 C 
HETATM   10  S   UNL     1     -45.153  62.245 -53.342  1.00  0.00    -0.040 SA
BRANCH   9  11
HETATM   11  N   UNL     1     -44.255  60.730 -55.216  1.00  0.00    -0.299 N 
HETATM   12  C   UNL     1     -44.947  59.556 -55.469  1.00  0.00     0.257 C 
HETATM   13  O   UNL     1     -45.339  58.774 -54.611  1.00  0.00    -0.267 OA
HETATM   14  H   UNL     1     -43.936  61.266 -56.013  1.00  0.00     0.171 HD
BRANCH  12  15
HETATM   15  C   UNL     1     -45.146  59.288 -56.919  1.00  0.00     0.035 A 
HETATM   16  C   UNL     1     -44.041  59.131 -57.765  1.00  0.00     0.053 A 
HETATM   17  C   UNL     1     -44.238  58.747 -59.090  1.00  0.00     0.069 A 
HETATM   18  C   UNL     1     -45.528  58.594 -59.593  1.00  0.00     0.037 A 
HETATM   19  C   UNL     1     -46.630  58.789 -58.758  1.00  0.00     0.004 A 
HETATM   20  C   UNL     1     -46.443  59.135 -57.417  1.00  0.00     0.017 A 
BRANCH  17  21
HETATM   21  O   UNL     1     -43.181  58.562 -59.935  1.00  0.00    -0.351 OA
BRANCH  21  22
HETATM   22  C   UNL     1     -42.251  57.585 -59.441  1.00  0.00     0.175 C 
BRANCH  22  23
HETATM   23  C   UNL     1     -42.623  56.185 -59.931  1.00  0.00     0.026 C 
BRANCH  23  24
HETATM   24  C   UNL     1     -43.545  55.450 -58.956  1.00  0.00    -0.002 C 
HETATM   25  C   UNL     1     -44.477  54.496 -59.689  1.00  0.00     0.005 C 
ENDBRANCH  23  24
ENDBRANCH  22  23
ENDBRANCH  21  22
ENDBRANCH  17  21
ENDBRANCH  12  15
ENDBRANCH   9  11
ENDBRANCH   7   9
ENDBRANCH   1   7
BRANCH   3  26
HETATM   26  O   UNL     1     -42.257  57.409 -50.453  1.00  0.00    -0.360 OA
HETATM   27  H   UNL     1     -42.732  56.569 -50.563  1.00  0.00     0.217 HD
ENDBRANCH   3  26
BRANCH   4  28
HETATM   28  C   UNL     1     -41.299  55.692 -52.623  1.00  0.00     0.183 A 
HETATM   29  O   UNL     1     -41.122  55.039 -53.817  1.00  0.00    -0.289 OA
HETATM   30  C   UNL     1     -40.716  53.792 -53.465  1.00  0.00     0.106 A 
HETATM   31  C   UNL     1     -40.703  53.729 -52.084  1.00  0.00     0.094 A 
HETATM   32  C   UNL     1     -40.317  52.772 -54.316  1.00  0.00     0.040 A 
HETATM   33  N   UNL     1     -41.114  54.928 -51.556  1.00  0.00    -0.221 NA
HETATM   34  C   UNL     1     -40.243  52.557 -51.469  1.00  0.00     0.041 A 
HETATM   35  C   UNL     1     -39.779  51.505 -52.286  1.00  0.00    -0.056 A 
HETATM   36  C   UNL     1     -39.829  51.620 -53.689  1.00  0.00     0.010 A 
BRANCH  35  37
HETATM   37  C   UNL     1     -39.155  50.286 -51.652  1.00  0.00     0.034 C 
HETATM   38  C   UNL     1     -39.962  49.814 -50.450  1.00  0.00     0.010 C 
ENDBRANCH  35  37
ENDBRANCH   4  28
TORSDOF 11
ENDMDL
MODEL 10
REMARK VINA RESULT:      -7.4      2.601      7.638
REMARK  11 active torsions:
REMARK  status: ('A' for Active; 'I' for Inactive)
REMARK    1  A    between atoms: C_2  and  C_3 
REMARK    2  A    between atoms: C_3  and  C_4 
REMARK    3  A    between atoms: C_4  and  O_5 
REMARK    4  A    between atoms: O_5  and  C_6 
REMARK    5  A    between atoms: C_8  and  C_9 
REMARK       I    between atoms: C_9  and  N_10 
REMARK    6  A    between atoms: N_10  and  C_11 
REMARK    7  A    between atoms: C_11  and  N_12 
REMARK    8  A    between atoms: N_12  and  C_13 
REMARK    9  A    between atoms: C_15  and  O_16 
REMARK   10  A    between atoms: C_17  and  C_18 
REMARK   11  A    between atoms: C_25  and  C_26 
ROOT
HETATM    1  C   UNL     1     -43.211  59.127 -51.949  1.00  0.00     0.036 C 
HETATM    2  C   UNL     1     -43.080  60.234 -52.788  1.00  0.00     0.067 C 
HETATM    3  C   UNL     1     -43.746  60.282 -54.013  1.00  0.00     0.082 C 
HETATM    4  C   UNL     1     -44.573  59.227 -54.419  1.00  0.00     0.050 C 
HETATM    5  C   UNL     1     -44.838  58.209 -53.485  1.00  0.00     0.021 C 
HETATM    6  C   UNL     1     -44.174  58.166 -52.251  1.00  0.00     0.030 C 
ENDROOT
BRANCH   1   7
HETATM    7  N   UNL     1     -42.385  58.918 -50.824  1.00  0.00    -0.333 N 
HETATM    8  H   UNL     1     -42.860  58.838 -49.924  1.00  0.00     0.168 HD
BRANCH   7   9
HETATM    9  C   UNL     1     -41.086  58.457 -50.809  1.00  0.00     0.179 C 
HETATM   10  S   UNL     1     -39.653  59.288 -50.546  1.00  0.00    -0.040 SA
BRANCH   9  11
HETATM   11  N   UNL     1     -40.922  57.121 -51.103  1.00  0.00    -0.299 N 
HETATM   12  C   UNL     1     -41.039  55.994 -50.304  1.00  0.00     0.257 C 
HETATM   13  O   UNL     1     -41.251  56.008 -49.098  1.00  0.00    -0.267 OA
HETATM   14  H   UNL     1     -40.691  56.982 -52.078  1.00  0.00     0.171 HD
BRANCH  12  15
HETATM   15  C   UNL     1     -40.835  54.721 -51.047  1.00  0.00     0.035 A 
HETATM   16  C   UNL     1     -41.486  54.505 -52.268  1.00  0.00     0.053 A 
HETATM   17  C   UNL     1     -41.182  53.370 -53.017  1.00  0.00     0.069 A 
HETATM   18  C   UNL     1     -40.295  52.417 -52.523  1.00  0.00     0.037 A 
HETATM   19  C   UNL     1     -39.676  52.616 -51.287  1.00  0.00     0.004 A 
HETATM   20  C   UNL     1     -39.942  53.770 -50.545  1.00  0.00     0.017 A 
BRANCH  17  21
HETATM   21  O   UNL     1     -41.782  53.141 -54.224  1.00  0.00    -0.351 OA
BRANCH  21  22
HETATM   22  C   UNL     1     -42.592  54.248 -54.650  1.00  0.00     0.175 C 
BRANCH  22  23
HETATM   23  C   UNL     1     -41.969  54.943 -55.861  1.00  0.00     0.026 C 
BRANCH  23  24
HETATM   24  C   UNL     1     -42.941  55.902 -56.549  1.00  0.00    -0.002 C 
HETATM   25  C   UNL     1     -43.106  55.560 -58.022  1.00  0.00     0.005 C 
ENDBRANCH  23  24
ENDBRANCH  22  23
ENDBRANCH  21  22
ENDBRANCH  17  21
ENDBRANCH  12  15
ENDBRANCH   9  11
ENDBRANCH   7   9
ENDBRANCH   1   7
BRANCH   3  26
HETATM   26  O   UNL     1     -43.545  61.370 -54.821  1.00  0.00    -0.360 OA
HETATM   27  H   UNL     1     -42.598  61.449 -55.024  1.00  0.00     0.217 HD
ENDBRANCH   3  26
BRANCH   4  28
HETATM   28  C   UNL     1     -45.035  59.045 -55.798  1.00  0.00     0.183 A 
HETATM   29  O   UNL     1     -44.216  59.530 -56.786  1.00  0.00    -0.289 OA
HETATM   30  C   UNL     1     -44.663  58.934 -57.921  1.00  0.00     0.106 A 
HETATM   31  C   UNL     1     -45.752  58.152 -57.584  1.00  0.00     0.094 A 
HETATM   32  C   UNL     1     -44.106  59.026 -59.188  1.00  0.00     0.040 A 
HETATM   33  N   UNL     1     -46.007  58.260 -56.239  1.00  0.00    -0.221 NA
HETATM   34  C   UNL     1     -46.352  57.369 -58.579  1.00  0.00     0.041 A 
HETATM   35  C   UNL     1     -45.796  57.386 -59.875  1.00  0.00    -0.056 A 
HETATM   36  C   UNL     1     -44.694  58.214 -60.164  1.00  0.00     0.010 A 
BRANCH  35  37
HETATM   37  C   UNL     1     -46.337  56.454 -60.931  1.00  0.00     0.034 C 
HETATM   38  C   UNL     1     -45.384  55.294 -61.184  1.00  0.00     0.010 C 
ENDBRANCH  35  37
ENDBRANCH   4  28
TORSDOF 11
ENDMDL
