MODEL 1
REMARK VINA RESULT:      -8.6      0.000      0.000
REMARK  6 active torsions:
REMARK  status: ('A' for Active; 'I' for Inactive)
REMARK    1  A    between atoms: N_6  and  C_7 
REMARK    2  A    between atoms: C_10  and  N_11 
REMARK    3  A    between atoms: N_11  and  C_12 
REMARK    4  A    between atoms: C_12  and  N_13 
REMARK       I    between atoms: N_13  and  C_14 
REMARK    5  A    between atoms: C_14  and  C_15 
REMARK    6  A    between atoms: C_16  and  O_17 
ROOT
HETATM    1  C   UNL     1     -44.083  58.333 -52.622  1.00  0.00     0.179 C 
HETATM    2  S   UNL     1     -45.130  58.670 -51.362  1.00  0.00    -0.040 SA
ENDROOT
BRANCH   1   3
HETATM    3  N   UNL     1     -44.018  59.188 -53.671  1.00  0.00    -0.333 N 
HETATM    4  H   UNL     1     -43.884  60.160 -53.412  1.00  0.00     0.168 HD
BRANCH   3   5
HETATM    5  C   UNL     1     -44.277  58.946 -55.033  1.00  0.00     0.034 C 
HETATM    6  C   UNL     1     -45.516  58.423 -55.393  1.00  0.00     0.032 C 
HETATM    7  C   UNL     1     -45.859  58.280 -56.748  1.00  0.00     0.031 C 
HETATM    8  C   UNL     1     -44.975  58.660 -57.766  1.00  0.00     0.030 C 
HETATM    9  C   UNL     1     -43.683  59.036 -57.371  1.00  0.00     0.031 C 
HETATM   10  C   UNL     1     -43.335  59.174 -56.026  1.00  0.00     0.032 C 
BRANCH   8  11
HETATM   11  N   UNL     1     -45.309  58.705 -59.126  1.00  0.00    -0.378 N 
HETATM   12  C   UNL     1     -46.560  57.972 -59.451  1.00  0.00     0.150 C 
HETATM   13  C   UNL     1     -46.261  56.483 -59.724  1.00  0.00     0.254 C 
HETATM   14  N   UNL     1     -45.249  56.363 -60.868  1.00  0.00    -0.072 N 
HETATM   15  C   UNL     1     -44.982  54.935 -61.232  1.00  0.00     0.269 C 
HETATM   16  H   UNL     1     -45.670  56.822 -61.685  1.00  0.00     0.279 HD
HETATM   17  C   UNL     1     -43.964  57.120 -60.536  1.00  0.00     0.254 C 
HETATM   18  C   UNL     1     -44.261  58.589 -60.155  1.00  0.00     0.150 C 
ENDBRANCH   8  11
ENDBRANCH   3   5
ENDBRANCH   1   3
BRANCH   1  19
HETATM   19  N   UNL     1     -43.286  57.228 -52.517  1.00  0.00    -0.299 N 
HETATM   20  C   UNL     1     -42.005  57.009 -53.021  1.00  0.00     0.260 C 
HETATM   21  O   UNL     1     -41.326  57.753 -53.718  1.00  0.00    -0.267 OA
HETATM   22  H   UNL     1     -43.547  56.641 -51.734  1.00  0.00     0.171 HD
BRANCH  20  23
HETATM   23  C   UNL     1     -41.385  55.759 -52.545  1.00  0.00     0.068 A 
HETATM   24  C   UNL     1     -41.180  55.516 -51.187  1.00  0.00     0.102 A 
HETATM   25  C   UNL     1     -40.714  54.252 -50.781  1.00  0.00     0.056 A 
HETATM   26 BR   UNL     1     -40.615  53.864 -48.905  1.00  0.00    -0.047 Br
HETATM   27  C   UNL     1     -40.367  53.255 -51.740  1.00  0.00    -0.006 A 
HETATM   28  C   UNL     1     -40.548  53.555 -53.117  1.00  0.00    -0.024 A 
HETATM   29  C   UNL     1     -39.854  51.971 -51.425  1.00  0.00     0.014 A 
HETATM   30  C   UNL     1     -41.070  54.794 -53.503  1.00  0.00     0.032 A 
HETATM   31  C   UNL     1     -40.223  52.607 -54.100  1.00  0.00     0.012 A 
HETATM   32  C   UNL     1     -39.716  51.358 -53.752  1.00  0.00     0.001 A 
HETATM   33  C   UNL     1     -39.532  51.039 -52.414  1.00  0.00     0.001 A 
BRANCH  24  34
HETATM   34  O   UNL     1     -41.510  56.494 -50.283  1.00  0.00    -0.353 OA
HETATM   35  C   UNL     1     -40.536  57.544 -50.258  1.00  0.00     0.210 C 
ENDBRANCH  24  34
ENDBRANCH  20  23
ENDBRANCH   1  19
TORSDOF 6
ENDMDL
MODEL 2
REMARK VINA RESULT:      -8.5      1.618      2.079
REMARK  6 active torsions:
REMARK  status: ('A' for Active; 'I' for Inactive)
REMARK    1  A    between atoms: N_6  and  C_7 
REMARK    2  A    between atoms: C_10  and  N_11 
REMARK    3  A    between atoms: N_11  and  C_12 
REMARK    4  A    between atoms: C_12  and  N_13 
REMARK       I    between atoms: N_13  and  C_14 
REMARK    5  A    between atoms: C_14  and  C_15 
REMARK    6  A    between atoms: C_16  and  O_17 
ROOT
HETATM    1  C   UNL     1     -43.482  60.246 -53.670  1.00  0.00     0.179 C 
HETATM    2  S   UNL     1     -44.369  60.856 -52.390  1.00  0.00    -0.040 SA
ENDROOT
BRANCH   1   3
HETATM    3  N   UNL     1     -43.326  61.001 -54.784  1.00  0.00    -0.333 N 
HETATM    4  H   UNL     1     -43.361  62.002 -54.620  1.00  0.00     0.168 HD
BRANCH   3   5
HETATM    5  C   UNL     1     -43.297  60.602 -56.132  1.00  0.00     0.034 C 
HETATM    6  C   UNL     1     -42.072  60.265 -56.702  1.00  0.00     0.032 C 
HETATM    7  C   UNL     1     -42.013  59.747 -58.006  1.00  0.00     0.031 C 
HETATM    8  C   UNL     1     -43.176  59.550 -58.763  1.00  0.00     0.030 C 
HETATM    9  C   UNL     1     -44.372  60.043 -58.220  1.00  0.00     0.031 C 
HETATM   10  C   UNL     1     -44.434  60.564 -56.927  1.00  0.00     0.032 C 
BRANCH   8  11
HETATM   11  N   UNL     1     -43.212  58.886 -59.996  1.00  0.00    -0.378 N 
HETATM   12  C   UNL     1     -44.584  58.508 -60.423  1.00  0.00     0.150 C 
HETATM   13  C   UNL     1     -44.976  57.135 -59.839  1.00  0.00     0.254 C 
HETATM   14  N   UNL     1     -43.960  56.078 -60.282  1.00  0.00    -0.072 N 
HETATM   15  C   UNL     1     -44.334  54.707 -59.811  1.00  0.00     0.269 C 
HETATM   16  H   UNL     1     -43.969  56.071 -61.310  1.00  0.00     0.279 HD
HETATM   17  C   UNL     1     -42.547  56.468 -59.847  1.00  0.00     0.254 C 
HETATM   18  C   UNL     1     -42.182  57.889 -60.336  1.00  0.00     0.150 C 
ENDBRANCH   8  11
ENDBRANCH   3   5
ENDBRANCH   1   3
BRANCH   1  19
HETATM   19  N   UNL     1     -42.894  59.021 -53.519  1.00  0.00    -0.299 N 
HETATM   20  C   UNL     1     -41.543  58.681 -53.512  1.00  0.00     0.260 C 
HETATM   21  O   UNL     1     -40.576  59.412 -53.690  1.00  0.00    -0.267 OA
HETATM   22  H   UNL     1     -43.508  58.357 -53.062  1.00  0.00     0.171 HD
BRANCH  20  23
HETATM   23  C   UNL     1     -41.284  57.280 -53.135  1.00  0.00     0.068 A 
HETATM   24  C   UNL     1     -41.488  56.824 -51.833  1.00  0.00     0.102 A 
HETATM   25  C   UNL     1     -41.360  55.449 -51.561  1.00  0.00     0.056 A 
HETATM   26 BR   UNL     1     -41.824  54.806 -49.815  1.00  0.00    -0.047 Br
HETATM   27  C   UNL     1     -40.939  54.537 -52.574  1.00  0.00    -0.006 A 
HETATM   28  C   UNL     1     -40.698  55.046 -53.879  1.00  0.00    -0.024 A 
HETATM   29  C   UNL     1     -40.746  53.146 -52.381  1.00  0.00     0.014 A 
HETATM   30  C   UNL     1     -40.889  56.405 -54.148  1.00  0.00     0.032 A 
HETATM   31  C   UNL     1     -40.285  54.189 -54.911  1.00  0.00     0.012 A 
HETATM   32  C   UNL     1     -40.099  52.829 -54.682  1.00  0.00     0.001 A 
HETATM   33  C   UNL     1     -40.331  52.306 -53.418  1.00  0.00     0.001 A 
BRANCH  24  34
HETATM   34  O   UNL     1     -41.880  57.722 -50.871  1.00  0.00    -0.353 OA
HETATM   35  C   UNL     1     -40.759  58.383 -50.274  1.00  0.00     0.210 C 
ENDBRANCH  24  34
ENDBRANCH  20  23
ENDBRANCH   1  19
TORSDOF 6
ENDMDL
MODEL 3
REMARK VINA RESULT:      -8.5      1.568      1.795
REMARK  6 active torsions:
REMARK  status: ('A' for Active; 'I' for Inactive)
REMARK    1  A    between atoms: N_6  and  C_7 
REMARK    2  A    between atoms: C_10  and  N_11 
REMARK    3  A    between atoms: N_11  and  C_12 
REMARK    4  A    between atoms: C_12  and  N_13 
REMARK       I    between atoms: N_13  and  C_14 
REMARK    5  A    between atoms: C_14  and  C_15 
REMARK    6  A    between atoms: C_16  and  O_17 
ROOT
HETATM    1  C   UNL     1     -42.638  59.058 -53.587  1.00  0.00     0.179 C 
HETATM    2  S   UNL     1     -43.818  59.871 -52.725  1.00  0.00    -0.040 SA
ENDROOT
BRANCH   1   3
HETATM    3  N   UNL     1     -42.118  59.635 -54.697  1.00  0.00    -0.333 N 
HETATM    4  H   UNL     1     -41.707  60.550 -54.541  1.00  0.00     0.168 HD
BRANCH   3   5
HETATM    5  C   UNL     1     -42.219  59.230 -56.040  1.00  0.00     0.034 C 
HETATM    6  C   UNL     1     -42.350  57.872 -56.319  1.00  0.00     0.032 C 
HETATM    7  C   UNL     1     -42.574  57.435 -57.635  1.00  0.00     0.031 C 
HETATM    8  C   UNL     1     -42.679  58.346 -58.695  1.00  0.00     0.030 C 
HETATM    9  C   UNL     1     -42.389  59.687 -58.404  1.00  0.00     0.031 C 
HETATM   10  C   UNL     1     -42.159  60.124 -57.100  1.00  0.00     0.032 C 
BRANCH   8  11
HETATM   11  N   UNL     1     -43.067  58.001 -59.996  1.00  0.00    -0.378 N 
HETATM   12  C   UNL     1     -44.103  58.903 -60.562  1.00  0.00     0.150 C 
HETATM   13  C   UNL     1     -45.515  58.420 -60.171  1.00  0.00     0.254 C 
HETATM   14  N   UNL     1     -45.721  56.983 -60.660  1.00  0.00    -0.072 N 
HETATM   15  C   UNL     1     -47.106  56.488 -60.379  1.00  0.00     0.269 C 
HETATM   16  H   UNL     1     -45.593  56.996 -61.680  1.00  0.00     0.279 HD
HETATM   17  C   UNL     1     -44.653  56.055 -60.082  1.00  0.00     0.254 C 
HETATM   18  C   UNL     1     -43.231  56.587 -60.375  1.00  0.00     0.150 C 
ENDBRANCH   8  11
ENDBRANCH   3   5
ENDBRANCH   1   3
BRANCH   1  19
HETATM   19  N   UNL     1     -42.199  57.858 -53.101  1.00  0.00    -0.299 N 
HETATM   20  C   UNL     1     -42.849  56.627 -53.063  1.00  0.00     0.260 C 
HETATM   21  O   UNL     1     -43.990  56.360 -53.419  1.00  0.00    -0.267 OA
HETATM   22  H   UNL     1     -41.188  57.814 -53.050  1.00  0.00     0.171 HD
BRANCH  20  23
HETATM   23  C   UNL     1     -41.986  55.512 -52.634  1.00  0.00     0.068 A 
HETATM   24  C   UNL     1     -41.541  55.396 -51.318  1.00  0.00     0.102 A 
HETATM   25  C   UNL     1     -40.836  54.241 -50.932  1.00  0.00     0.056 A 
HETATM   26 BR   UNL     1     -40.394  54.004 -49.081  1.00  0.00    -0.047 Br
HETATM   27  C   UNL     1     -40.496  53.236 -51.886  1.00  0.00    -0.006 A 
HETATM   28  C   UNL     1     -40.929  53.410 -53.228  1.00  0.00    -0.024 A 
HETATM   29  C   UNL     1     -39.757  52.061 -51.596  1.00  0.00     0.014 A 
HETATM   30  C   UNL     1     -41.681  54.535 -53.583  1.00  0.00     0.032 A 
HETATM   31  C   UNL     1     -40.622  52.449 -54.204  1.00  0.00     0.012 A 
HETATM   32  C   UNL     1     -39.888  51.310 -53.884  1.00  0.00     0.001 A 
HETATM   33  C   UNL     1     -39.456  51.116 -52.579  1.00  0.00     0.001 A 
BRANCH  24  34
HETATM   34  O   UNL     1     -41.870  56.381 -50.420  1.00  0.00    -0.353 OA
HETATM   35  C   UNL     1     -40.812  57.335 -50.269  1.00  0.00     0.210 C 
ENDBRANCH  24  34
ENDBRANCH  20  23
ENDBRANCH   1  19
TORSDOF 6
ENDMDL
MODEL 4
REMARK VINA RESULT:      -8.4      3.159      5.888
REMARK  6 active torsions:
REMARK  status: ('A' for Active; 'I' for Inactive)
REMARK    1  A    between atoms: N_6  and  C_7 
REMARK    2  A    between atoms: C_10  and  N_11 
REMARK    3  A    between atoms: N_11  and  C_12 
REMARK    4  A    between atoms: C_12  and  N_13 
REMARK       I    between atoms: N_13  and  C_14 
REMARK    5  A    between atoms: C_14  and  C_15 
REMARK    6  A    between atoms: C_16  and  O_17 
ROOT
HETATM    1  C   UNL     1     -42.481  56.976 -56.326  1.00  0.00     0.179 C 
HETATM    2  S   UNL     1     -42.916  56.375 -57.825  1.00  0.00    -0.040 SA
ENDROOT
BRANCH   1   3
HETATM    3  N   UNL     1     -42.693  58.286 -56.054  1.00  0.00    -0.333 N 
HETATM    4  H   UNL     1     -42.510  58.911 -56.833  1.00  0.00     0.168 HD
BRANCH   3   5
HETATM    5  C   UNL     1     -42.957  58.907 -54.820  1.00  0.00     0.034 C 
HETATM    6  C   UNL     1     -44.186  58.677 -54.208  1.00  0.00     0.032 C 
HETATM    7  C   UNL     1     -44.443  59.180 -52.921  1.00  0.00     0.031 C 
HETATM    8  C   UNL     1     -43.478  59.914 -52.221  1.00  0.00     0.030 C 
HETATM    9  C   UNL     1     -42.315  60.259 -52.926  1.00  0.00     0.031 C 
HETATM   10  C   UNL     1     -42.057  59.767 -54.206  1.00  0.00     0.032 C 
BRANCH   8  11
HETATM   11  N   UNL     1     -43.598  60.300 -50.880  1.00  0.00    -0.378 N 
HETATM   12  C   UNL     1     -45.003  60.324 -50.396  1.00  0.00     0.150 C 
HETATM   13  C   UNL     1     -45.656  61.690 -50.694  1.00  0.00     0.254 C 
HETATM   14  N   UNL     1     -44.837  62.806 -50.037  1.00  0.00    -0.072 N 
HETATM   15  C   UNL     1     -45.470  64.150 -50.225  1.00  0.00     0.269 C 
HETATM   16  H   UNL     1     -44.818  62.605 -49.029  1.00  0.00     0.279 HD
HETATM   17  C   UNL     1     -43.391  62.779 -50.531  1.00  0.00     0.254 C 
HETATM   18  C   UNL     1     -42.758  61.382 -50.336  1.00  0.00     0.150 C 
ENDBRANCH   8  11
ENDBRANCH   3   5
ENDBRANCH   1   3
BRANCH   1  19
HETATM   19  N   UNL     1     -41.978  56.101 -55.404  1.00  0.00    -0.299 N 
HETATM   20  C   UNL     1     -42.650  55.211 -54.568  1.00  0.00     0.260 C 
HETATM   21  O   UNL     1     -43.858  55.052 -54.444  1.00  0.00    -0.267 OA
HETATM   22  H   UNL     1     -41.006  55.876 -55.582  1.00  0.00     0.171 HD
BRANCH  20  23
HETATM   23  C   UNL     1     -41.757  54.292 -53.839  1.00  0.00     0.068 A 
HETATM   24  C   UNL     1     -41.210  54.632 -52.602  1.00  0.00     0.102 A 
HETATM   25  C   UNL     1     -40.480  53.664 -51.888  1.00  0.00     0.056 A 
HETATM   26 BR   UNL     1     -39.893  54.078 -50.109  1.00  0.00    -0.047 Br
HETATM   27  C   UNL     1     -40.219  52.379 -52.450  1.00  0.00    -0.006 A 
HETATM   28  C   UNL     1     -40.755  52.085 -53.732  1.00  0.00    -0.024 A 
HETATM   29  C   UNL     1     -39.461  51.359 -51.821  1.00  0.00     0.014 A 
HETATM   30  C   UNL     1     -41.531  53.036 -54.403  1.00  0.00     0.032 A 
HETATM   31  C   UNL     1     -40.529  50.834 -54.327  1.00  0.00     0.012 A 
HETATM   32  C   UNL     1     -39.774  49.859 -53.682  1.00  0.00     0.001 A 
HETATM   33  C   UNL     1     -39.241  50.120 -52.427  1.00  0.00     0.001 A 
BRANCH  24  34
HETATM   34  O   UNL     1     -41.465  55.878 -52.086  1.00  0.00    -0.353 OA
HETATM   35  C   UNL     1     -42.628  55.878 -51.251  1.00  0.00     0.210 C 
ENDBRANCH  24  34
ENDBRANCH  20  23
ENDBRANCH   1  19
TORSDOF 6
ENDMDL
MODEL 5
REMARK VINA RESULT:      -8.1      2.436      3.610
REMARK  6 active torsions:
REMARK  status: ('A' for Active; 'I' for Inactive)
REMARK    1  A    between atoms: N_6  and  C_7 
REMARK    2  A    between atoms: C_10  and  N_11 
REMARK    3  A    between atoms: N_11  and  C_12 
REMARK    4  A    between atoms: C_12  and  N_13 
REMARK       I    between atoms: N_13  and  C_14 
REMARK    5  A    between atoms: C_14  and  C_15 
REMARK    6  A    between atoms: C_16  and  O_17 
ROOT
HETATM    1  C   UNL     1     -43.496  56.178 -55.455  1.00  0.00     0.179 C 
HETATM    2  S   UNL     1     -44.130  57.445 -54.568  1.00  0.00    -0.040 SA
ENDROOT
BRANCH   1   3
HETATM    3  N   UNL     1     -43.760  56.105 -56.782  1.00  0.00    -0.333 N 
HETATM    4  H   UNL     1     -43.954  55.168 -57.120  1.00  0.00     0.168 HD
BRANCH   3   5
HETATM    5  C   UNL     1     -43.635  57.099 -57.770  1.00  0.00     0.034 C 
HETATM    6  C   UNL     1     -42.359  57.518 -58.137  1.00  0.00     0.032 C 
HETATM    7  C   UNL     1     -42.186  58.419 -59.200  1.00  0.00     0.031 C 
HETATM    8  C   UNL     1     -43.282  58.913 -59.920  1.00  0.00     0.030 C 
HETATM    9  C   UNL     1     -44.555  58.594 -59.426  1.00  0.00     0.031 C 
HETATM   10  C   UNL     1     -44.732  57.705 -58.366  1.00  0.00     0.032 C 
BRANCH   8  11
HETATM   11  N   UNL     1     -43.178  59.676 -61.091  1.00  0.00    -0.378 N 
HETATM   12  C   UNL     1     -41.840  60.296 -61.276  1.00  0.00     0.150 C 
HETATM   13  C   UNL     1     -41.770  61.659 -60.556  1.00  0.00     0.254 C 
HETATM   14  N   UNL     1     -42.872  62.579 -61.089  1.00  0.00    -0.072 N 
HETATM   15  C   UNL     1     -42.802  63.947 -60.484  1.00  0.00     0.269 C 
HETATM   16  H   UNL     1     -42.715  62.674 -62.101  1.00  0.00     0.279 HD
HETATM   17  C   UNL     1     -44.248  61.941 -60.904  1.00  0.00     0.254 C 
HETATM   18  C   UNL     1     -44.299  60.527 -61.527  1.00  0.00     0.150 C 
ENDBRANCH   8  11
ENDBRANCH   3   5
ENDBRANCH   1   3
BRANCH   1  19
HETATM   19  N   UNL     1     -42.681  55.288 -54.813  1.00  0.00    -0.299 N 
HETATM   20  C   UNL     1     -41.363  55.442 -54.388  1.00  0.00     0.260 C 
HETATM   21  O   UNL     1     -40.623  56.405 -54.542  1.00  0.00    -0.267 OA
HETATM   22  H   UNL     1     -43.206  54.564 -54.338  1.00  0.00     0.171 HD
BRANCH  20  23
HETATM   23  C   UNL     1     -40.871  54.325 -53.561  1.00  0.00     0.068 A 
HETATM   24  C   UNL     1     -40.740  54.441 -52.178  1.00  0.00     0.102 A 
HETATM   25  C   UNL     1     -40.401  53.302 -51.424  1.00  0.00     0.056 A 
HETATM   26 BR   UNL     1     -40.408  53.427 -49.510  1.00  0.00    -0.047 Br
HETATM   27  C   UNL     1     -40.104  52.062 -52.062  1.00  0.00    -0.006 A 
HETATM   28  C   UNL     1     -40.205  51.993 -53.478  1.00  0.00    -0.024 A 
HETATM   29  C   UNL     1     -39.716  50.876 -51.387  1.00  0.00     0.014 A 
HETATM   30  C   UNL     1     -40.603  53.117 -54.208  1.00  0.00     0.032 A 
HETATM   31  C   UNL     1     -39.925  50.795 -54.153  1.00  0.00     0.012 A 
HETATM   32  C   UNL     1     -39.541  49.652 -53.457  1.00  0.00     0.001 A 
HETATM   33  C   UNL     1     -39.437  49.692 -52.074  1.00  0.00     0.001 A 
BRANCH  24  34
HETATM   34  O   UNL     1     -41.020  55.648 -51.586  1.00  0.00    -0.353 OA
HETATM   35  C   UNL     1     -42.398  55.747 -51.210  1.00  0.00     0.210 C 
ENDBRANCH  24  34
ENDBRANCH  20  23
ENDBRANCH   1  19
TORSDOF 6
ENDMDL
MODEL 6
REMARK VINA RESULT:      -7.9      1.259      2.123
REMARK  6 active torsions:
REMARK  status: ('A' for Active; 'I' for Inactive)
REMARK    1  A    between atoms: N_6  and  C_7 
REMARK    2  A    between atoms: C_10  and  N_11 
REMARK    3  A    between atoms: N_11  and  C_12 
REMARK    4  A    between atoms: C_12  and  N_13 
REMARK       I    between atoms: N_13  and  C_14 
REMARK    5  A    between atoms: C_14  and  C_15 
REMARK    6  A    between atoms: C_16  and  O_17 
ROOT
HETATM    1  C   UNL     1     -43.506  57.284 -52.910  1.00  0.00     0.179 C 
HETATM    2  S   UNL     1     -44.613  57.660 -51.715  1.00  0.00    -0.040 SA
ENDROOT
BRANCH   1   3
HETATM    3  N   UNL     1     -43.302  58.165 -53.920  1.00  0.00    -0.333 N 
HETATM    4  H   UNL     1     -42.899  59.049 -53.630  1.00  0.00     0.168 HD
BRANCH   3   5
HETATM    5  C   UNL     1     -43.722  58.093 -55.261  1.00  0.00     0.034 C 
HETATM    6  C   UNL     1     -42.756  57.967 -56.256  1.00  0.00     0.032 C 
HETATM    7  C   UNL     1     -43.137  57.772 -57.594  1.00  0.00     0.031 C 
HETATM    8  C   UNL     1     -44.486  57.693 -57.961  1.00  0.00     0.030 C 
HETATM    9  C   UNL     1     -45.429  57.977 -56.963  1.00  0.00     0.031 C 
HETATM   10  C   UNL     1     -45.056  58.178 -55.634  1.00  0.00     0.032 C 
BRANCH   8  11
HETATM   11  N   UNL     1     -44.937  57.333 -59.239  1.00  0.00    -0.378 N 
HETATM   12  C   UNL     1     -44.120  57.911 -60.338  1.00  0.00     0.150 C 
HETATM   13  C   UNL     1     -44.633  59.318 -60.713  1.00  0.00     0.254 C 
HETATM   14  N   UNL     1     -46.108  59.236 -61.119  1.00  0.00    -0.072 N 
HETATM   15  C   UNL     1     -46.639  60.560 -61.572  1.00  0.00     0.269 C 
HETATM   16  H   UNL     1     -46.161  58.586 -61.914  1.00  0.00     0.279 HD
HETATM   17  C   UNL     1     -46.948  58.637 -59.991  1.00  0.00     0.254 C 
HETATM   18  C   UNL     1     -46.380  57.274 -59.531  1.00  0.00     0.150 C 
ENDBRANCH   8  11
ENDBRANCH   3   5
ENDBRANCH   1   3
BRANCH   1  19
HETATM   19  N   UNL     1     -42.802  56.119 -52.791  1.00  0.00    -0.299 N 
HETATM   20  C   UNL     1     -41.546  55.788 -53.295  1.00  0.00     0.260 C 
HETATM   21  O   UNL     1     -40.810  56.463 -54.003  1.00  0.00    -0.267 OA
HETATM   22  H   UNL     1     -43.109  55.567 -51.999  1.00  0.00     0.171 HD
BRANCH  20  23
HETATM   23  C   UNL     1     -41.029  54.498 -52.802  1.00  0.00     0.068 A 
HETATM   24  C   UNL     1     -40.929  54.224 -51.438  1.00  0.00     0.102 A 
HETATM   25  C   UNL     1     -40.562  52.929 -51.026  1.00  0.00     0.056 A 
HETATM   26 BR   UNL     1     -40.609  52.509 -49.155  1.00  0.00    -0.047 Br
HETATM   27  C   UNL     1     -40.207  51.928 -51.979  1.00  0.00    -0.006 A 
HETATM   28  C   UNL     1     -40.279  52.258 -53.358  1.00  0.00    -0.024 A 
HETATM   29  C   UNL     1     -39.789  50.613 -51.653  1.00  0.00     0.014 A 
HETATM   30  C   UNL     1     -40.705  53.531 -53.754  1.00  0.00     0.032 A 
HETATM   31  C   UNL     1     -39.943  51.308 -54.335  1.00  0.00     0.012 A 
HETATM   32  C   UNL     1     -39.530  50.028 -53.978  1.00  0.00     0.001 A 
HETATM   33  C   UNL     1     -39.454  49.679 -52.637  1.00  0.00     0.001 A 
BRANCH  24  34
HETATM   34  O   UNL     1     -41.264  55.206 -50.540  1.00  0.00    -0.353 OA
HETATM   35  C   UNL     1     -40.133  56.011 -50.189  1.00  0.00     0.210 C 
ENDBRANCH  24  34
ENDBRANCH  20  23
ENDBRANCH   1  19
TORSDOF 6
ENDMDL
MODEL 7
REMARK VINA RESULT:      -7.8      3.632      6.665
REMARK  6 active torsions:
REMARK  status: ('A' for Active; 'I' for Inactive)
REMARK    1  A    between atoms: N_6  and  C_7 
REMARK    2  A    between atoms: C_10  and  N_11 
REMARK    3  A    between atoms: N_11  and  C_12 
REMARK    4  A    between atoms: C_12  and  N_13 
REMARK       I    between atoms: N_13  and  C_14 
REMARK    5  A    between atoms: C_14  and  C_15 
REMARK    6  A    between atoms: C_16  and  O_17 
ROOT
HETATM    1  C   UNL     1     -43.012  58.851 -54.487  1.00  0.00     0.179 C 
HETATM    2  S   UNL     1     -42.195  59.415 -55.833  1.00  0.00    -0.040 SA
ENDROOT
BRANCH   1   3
HETATM    3  N   UNL     1     -44.176  59.443 -54.127  1.00  0.00    -0.333 N 
HETATM    4  H   UNL     1     -44.985  59.133 -54.654  1.00  0.00     0.168 HD
BRANCH   3   5
HETATM    5  C   UNL     1     -44.389  60.531 -53.260  1.00  0.00     0.034 C 
HETATM    6  C   UNL     1     -45.698  60.912 -52.977  1.00  0.00     0.032 C 
HETATM    7  C   UNL     1     -45.956  61.913 -52.026  1.00  0.00     0.031 C 
HETATM    8  C   UNL     1     -44.915  62.546 -51.337  1.00  0.00     0.030 C 
HETATM    9  C   UNL     1     -43.609  62.251 -51.756  1.00  0.00     0.031 C 
HETATM   10  C   UNL     1     -43.348  61.262 -52.705  1.00  0.00     0.032 C 
BRANCH   8  11
HETATM   11  N   UNL     1     -45.100  63.426 -50.262  1.00  0.00    -0.378 N 
HETATM   12  C   UNL     1     -44.166  63.183 -49.132  1.00  0.00     0.150 C 
HETATM   13  C   UNL     1     -44.741  62.121 -48.171  1.00  0.00     0.254 C 
HETATM   14  N   UNL     1     -46.109  62.582 -47.656  1.00  0.00    -0.072 N 
HETATM   15  C   UNL     1     -46.681  61.627 -46.654  1.00  0.00     0.269 C 
HETATM   16  H   UNL     1     -45.959  63.482 -47.182  1.00  0.00     0.279 HD
HETATM   17  C   UNL     1     -47.068  62.837 -48.817  1.00  0.00     0.254 C 
HETATM   18  C   UNL     1     -46.458  63.818 -49.844  1.00  0.00     0.150 C 
ENDBRANCH   8  11
ENDBRANCH   3   5
ENDBRANCH   1   3
BRANCH   1  19
HETATM   19  N   UNL     1     -42.498  57.767 -53.831  1.00  0.00    -0.299 N 
HETATM   20  C   UNL     1     -43.127  56.585 -53.446  1.00  0.00     0.260 C 
HETATM   21  O   UNL     1     -44.306  56.276 -53.573  1.00  0.00    -0.267 OA
HETATM   22  H   UNL     1     -41.490  57.712 -53.916  1.00  0.00     0.171 HD
BRANCH  20  23
HETATM   23  C   UNL     1     -42.203  55.564 -52.922  1.00  0.00     0.068 A 
HETATM   24  C   UNL     1     -41.765  55.584 -51.599  1.00  0.00     0.102 A 
HETATM   25  C   UNL     1     -40.996  54.509 -51.116  1.00  0.00     0.056 A 
HETATM   26 BR   UNL     1     -40.558  54.453 -49.249  1.00  0.00    -0.047 Br
HETATM   27  C   UNL     1     -40.587  53.452 -51.981  1.00  0.00    -0.006 A 
HETATM   28  C   UNL     1     -41.016  53.488 -53.335  1.00  0.00    -0.024 A 
HETATM   29  C   UNL     1     -39.782  52.351 -51.592  1.00  0.00     0.014 A 
HETATM   30  C   UNL     1     -41.831  54.532 -53.785  1.00  0.00     0.032 A 
HETATM   31  C   UNL     1     -40.643  52.470 -54.227  1.00  0.00     0.012 A 
HETATM   32  C   UNL     1     -39.845  51.408 -53.810  1.00  0.00     0.001 A 
HETATM   33  C   UNL     1     -39.415  51.348 -52.491  1.00  0.00     0.001 A 
BRANCH  24  34
HETATM   34  O   UNL     1     -42.160  56.618 -50.787  1.00  0.00    -0.353 OA
HETATM   35  C   UNL     1     -41.125  57.594 -50.629  1.00  0.00     0.210 C 
ENDBRANCH  24  34
ENDBRANCH  20  23
ENDBRANCH   1  19
TORSDOF 6
ENDMDL
MODEL 8
REMARK VINA RESULT:      -7.8      2.095      3.049
REMARK  6 active torsions:
REMARK  status: ('A' for Active; 'I' for Inactive)
REMARK    1  A    between atoms: N_6  and  C_7 
REMARK    2  A    between atoms: C_10  and  N_11 
REMARK    3  A    between atoms: N_11  and  C_12 
REMARK    4  A    between atoms: C_12  and  N_13 
REMARK       I    between atoms: N_13  and  C_14 
REMARK    5  A    between atoms: C_14  and  C_15 
REMARK    6  A    between atoms: C_16  and  O_17 
ROOT
HETATM    1  C   UNL     1     -42.473  60.301 -53.529  1.00  0.00     0.179 C 
HETATM    2  S   UNL     1     -43.215  61.266 -52.383  1.00  0.00    -0.040 SA
ENDROOT
BRANCH   1   3
HETATM    3  N   UNL     1     -42.146  60.837 -54.730  1.00  0.00    -0.333 N 
HETATM    4  H   UNL     1     -41.598  61.689 -54.674  1.00  0.00     0.168 HD
BRANCH   3   5
HETATM    5  C   UNL     1     -42.596  60.481 -56.015  1.00  0.00     0.034 C 
HETATM    6  C   UNL     1     -41.677  60.459 -57.061  1.00  0.00     0.032 C 
HETATM    7  C   UNL     1     -42.058  59.995 -58.331  1.00  0.00     0.031 C 
HETATM    8  C   UNL     1     -43.360  59.539 -58.578  1.00  0.00     0.030 C 
HETATM    9  C   UNL     1     -44.296  59.720 -57.550  1.00  0.00     0.031 C 
HETATM   10  C   UNL     1     -43.924  60.187 -56.289  1.00  0.00     0.032 C 
BRANCH   8  11
HETATM   11  N   UNL     1     -43.764  58.909 -59.762  1.00  0.00    -0.378 N 
HETATM   12  C   UNL     1     -45.146  58.366 -59.701  1.00  0.00     0.150 C 
HETATM   13  C   UNL     1     -45.142  56.938 -59.115  1.00  0.00     0.254 C 
HETATM   14  N   UNL     1     -44.242  56.036 -59.966  1.00  0.00    -0.072 N 
HETATM   15  C   UNL     1     -44.264  54.616 -59.492  1.00  0.00     0.269 C 
HETATM   16  H   UNL     1     -44.622  56.055 -60.921  1.00  0.00     0.279 HD
HETATM   17  C   UNL     1     -42.822  56.597 -60.034  1.00  0.00     0.254 C 
HETATM   18  C   UNL     1     -42.821  58.065 -60.517  1.00  0.00     0.150 C 
ENDBRANCH   8  11
ENDBRANCH   3   5
ENDBRANCH   1   3
BRANCH   1  19
HETATM   19  N   UNL     1     -42.170  59.013 -53.187  1.00  0.00    -0.299 N 
HETATM   20  C   UNL     1     -43.017  57.978 -52.794  1.00  0.00     0.260 C 
HETATM   21  O   UNL     1     -44.229  58.014 -52.623  1.00  0.00    -0.267 OA
HETATM   22  H   UNL     1     -41.274  58.719 -53.558  1.00  0.00     0.171 HD
BRANCH  20  23
HETATM   23  C   UNL     1     -42.347  56.670 -52.685  1.00  0.00     0.068 A 
HETATM   24  C   UNL     1     -41.833  56.017 -53.805  1.00  0.00     0.102 A 
HETATM   25  C   UNL     1     -41.081  54.840 -53.626  1.00  0.00     0.056 A 
HETATM   26 BR   UNL     1     -40.221  54.054 -55.149  1.00  0.00    -0.047 Br
HETATM   27  C   UNL     1     -40.917  54.265 -52.331  1.00  0.00    -0.006 A 
HETATM   28  C   UNL     1     -41.493  54.936 -51.219  1.00  0.00    -0.024 A 
HETATM   29  C   UNL     1     -40.211  53.064 -52.062  1.00  0.00     0.014 A 
HETATM   30  C   UNL     1     -42.185  56.137 -51.406  1.00  0.00     0.032 A 
HETATM   31  C   UNL     1     -41.357  54.411 -49.924  1.00  0.00     0.012 A 
HETATM   32  C   UNL     1     -40.662  53.226 -49.699  1.00  0.00     0.001 A 
HETATM   33  C   UNL     1     -40.088  52.553 -50.768  1.00  0.00     0.001 A 
BRANCH  24  34
HETATM   34  O   UNL     1     -42.013  56.583 -55.042  1.00  0.00    -0.353 OA
HETATM   35  C   UNL     1     -43.195  56.089 -55.684  1.00  0.00     0.210 C 
ENDBRANCH  24  34
ENDBRANCH  20  23
ENDBRANCH   1  19
TORSDOF 6
ENDMDL
MODEL 9
REMARK VINA RESULT:      -7.7      2.117      3.275
REMARK  6 active torsions:
REMARK  status: ('A' for Active; 'I' for Inactive)
REMARK    1  A    between atoms: N_6  and  C_7 
REMARK    2  A    between atoms: C_10  and  N_11 
REMARK    3  A    between atoms: N_11  and  C_12 
REMARK    4  A    between atoms: C_12  and  N_13 
REMARK       I    between atoms: N_13  and  C_14 
REMARK    5  A    between atoms: C_14  and  C_15 
REMARK    6  A    between atoms: C_16  and  O_17 
ROOT
HETATM    1  C   UNL     1     -41.969  58.702 -50.871  1.00  0.00     0.179 C 
HETATM    2  S   UNL     1     -40.789  59.680 -50.202  1.00  0.00    -0.040 SA
ENDROOT
BRANCH   1   3
HETATM    3  N   UNL     1     -43.177  59.239 -51.169  1.00  0.00    -0.333 N 
HETATM    4  H   UNL     1     -43.825  59.273 -50.388  1.00  0.00     0.168 HD
BRANCH   3   5
HETATM    5  C   UNL     1     -43.710  59.588 -52.423  1.00  0.00     0.034 C 
HETATM    6  C   UNL     1     -43.473  60.868 -52.915  1.00  0.00     0.032 C 
HETATM    7  C   UNL     1     -43.883  61.218 -54.212  1.00  0.00     0.031 C 
HETATM    8  C   UNL     1     -44.531  60.295 -55.043  1.00  0.00     0.030 C 
HETATM    9  C   UNL     1     -44.891  59.070 -54.464  1.00  0.00     0.031 C 
HETATM   10  C   UNL     1     -44.492  58.720 -53.173  1.00  0.00     0.032 C 
BRANCH   8  11
HETATM   11  N   UNL     1     -44.816  60.516 -56.397  1.00  0.00    -0.378 N 
HETATM   12  C   UNL     1     -46.102  59.914 -56.836  1.00  0.00     0.150 C 
HETATM   13  C   UNL     1     -45.895  58.448 -57.271  1.00  0.00     0.254 C 
HETATM   14  N   UNL     1     -44.856  58.387 -58.395  1.00  0.00    -0.072 N 
HETATM   15  C   UNL     1     -44.672  56.994 -58.913  1.00  0.00     0.269 C 
HETATM   16  H   UNL     1     -45.218  58.964 -59.164  1.00  0.00     0.279 HD
HETATM   17  C   UNL     1     -43.534  59.010 -57.946  1.00  0.00     0.254 C 
HETATM   18  C   UNL     1     -43.745  60.443 -57.406  1.00  0.00     0.150 C 
ENDBRANCH   8  11
ENDBRANCH   3   5
ENDBRANCH   1   3
BRANCH   1  19
HETATM   19  N   UNL     1     -41.648  57.402 -51.146  1.00  0.00    -0.299 N 
HETATM   20  C   UNL     1     -42.441  56.259 -51.069  1.00  0.00     0.260 C 
HETATM   21  O   UNL     1     -43.601  56.164 -50.687  1.00  0.00    -0.267 OA
HETATM   22  H   UNL     1     -40.843  57.329 -51.756  1.00  0.00     0.171 HD
BRANCH  20  23
HETATM   23  C   UNL     1     -41.801  55.054 -51.626  1.00  0.00     0.068 A 
HETATM   24  C   UNL     1     -41.488  54.952 -52.981  1.00  0.00     0.102 A 
HETATM   25  C   UNL     1     -40.753  53.840 -53.432  1.00  0.00     0.056 A 
HETATM   26 BR   UNL     1     -40.166  53.802 -55.258  1.00  0.00    -0.047 Br
HETATM   27  C   UNL     1     -40.406  52.780 -52.543  1.00  0.00    -0.006 A 
HETATM   28  C   UNL     1     -40.780  52.899 -51.178  1.00  0.00    -0.024 A 
HETATM   29  C   UNL     1     -39.703  51.607 -52.917  1.00  0.00     0.014 A 
HETATM   30  C   UNL     1     -41.457  54.039 -50.732  1.00  0.00     0.032 A 
HETATM   31  C   UNL     1     -40.460  51.884 -50.262  1.00  0.00     0.012 A 
HETATM   32  C   UNL     1     -39.774  50.743 -50.668  1.00  0.00     0.001 A 
HETATM   33  C   UNL     1     -39.394  50.604 -51.996  1.00  0.00     0.001 A 
BRANCH  24  34
HETATM   34  O   UNL     1     -41.843  55.979 -53.821  1.00  0.00    -0.353 OA
HETATM   35  C   UNL     1     -43.069  55.702 -54.508  1.00  0.00     0.210 C 
ENDBRANCH  24  34
ENDBRANCH  20  23
ENDBRANCH   1  19
TORSDOF 6
ENDMDL
MODEL 10
REMARK VINA RESULT:      -7.5      2.778      3.650
REMARK  6 active torsions:
REMARK  status: ('A' for Active; 'I' for Inactive)
REMARK    1  A    between atoms: N_6  and  C_7 
REMARK    2  A    between atoms: C_10  and  N_11 
REMARK    3  A    between atoms: N_11  and  C_12 
REMARK    4  A    between atoms: C_12  and  N_13 
REMARK       I    between atoms: N_13  and  C_14 
REMARK    5  A    between atoms: C_14  and  C_15 
REMARK    6  A    between atoms: C_16  and  O_17 
ROOT
HETATM    1  C   UNL     1     -44.125  57.077 -55.184  1.00  0.00     0.179 C 
HETATM    2  S   UNL     1     -45.056  58.022 -54.165  1.00  0.00    -0.040 SA
ENDROOT
BRANCH   1   3
HETATM    3  N   UNL     1     -44.146  57.326 -56.515  1.00  0.00    -0.333 N 
HETATM    4  H   UNL     1     -44.326  56.510 -57.091  1.00  0.00     0.168 HD
BRANCH   3   5
HETATM    5  C   UNL     1     -43.790  58.499 -57.206  1.00  0.00     0.034 C 
HETATM    6  C   UNL     1     -44.765  59.155 -57.953  1.00  0.00     0.032 C 
HETATM    7  C   UNL     1     -44.483  60.390 -58.559  1.00  0.00     0.031 C 
HETATM    8  C   UNL     1     -43.227  60.995 -58.426  1.00  0.00     0.030 C 
HETATM    9  C   UNL     1     -42.225  60.238 -57.801  1.00  0.00     0.031 C 
HETATM   10  C   UNL     1     -42.499  59.007 -57.203  1.00  0.00     0.032 C 
BRANCH   8  11
HETATM   11  N   UNL     1     -42.927  62.295 -58.856  1.00  0.00    -0.378 N 
HETATM   12  C   UNL     1     -43.452  62.605 -60.211  1.00  0.00     0.150 C 
HETATM   13  C   UNL     1     -42.444  62.172 -61.296  1.00  0.00     0.254 C 
HETATM   14  N   UNL     1     -41.102  62.873 -61.061  1.00  0.00    -0.072 N 
HETATM   15  C   UNL     1     -40.107  62.552 -62.132  1.00  0.00     0.269 C 
HETATM   16  H   UNL     1     -41.286  63.883 -61.094  1.00  0.00     0.279 HD
HETATM   17  C   UNL     1     -40.564  62.558 -59.665  1.00  0.00     0.254 C 
HETATM   18  C   UNL     1     -41.607  62.888 -58.574  1.00  0.00     0.150 C 
ENDBRANCH   8  11
ENDBRANCH   3   5
ENDBRANCH   1   3
BRANCH   1  19
HETATM   19  N   UNL     1     -43.329  56.119 -54.622  1.00  0.00    -0.299 N 
HETATM   20  C   UNL     1     -42.127  55.584 -55.084  1.00  0.00     0.260 C 
HETATM   21  O   UNL     1     -41.542  55.827 -56.132  1.00  0.00    -0.267 OA
HETATM   22  H   UNL     1     -43.488  56.025 -53.626  1.00  0.00     0.171 HD
BRANCH  20  23
HETATM   23  C   UNL     1     -41.459  54.700 -54.112  1.00  0.00     0.068 A 
HETATM   24  C   UNL     1     -41.290  55.074 -52.779  1.00  0.00     0.102 A 
HETATM   25  C   UNL     1     -40.772  54.137 -51.866  1.00  0.00     0.056 A 
HETATM   26 BR   UNL     1     -40.720  54.594 -50.004  1.00  0.00    -0.047 Br
HETATM   27  C   UNL     1     -40.336  52.851 -52.303  1.00  0.00    -0.006 A 
HETATM   28  C   UNL     1     -40.482  52.522 -53.677  1.00  0.00    -0.024 A 
HETATM   29  C   UNL     1     -39.766  51.861 -51.462  1.00  0.00     0.014 A 
HETATM   30  C   UNL     1     -41.056  53.442 -54.561  1.00  0.00     0.032 A 
HETATM   31  C   UNL     1     -40.070  51.269 -54.156  1.00  0.00     0.012 A 
HETATM   32  C   UNL     1     -39.509  50.324 -53.302  1.00  0.00     0.001 A 
HETATM   33  C   UNL     1     -39.357  50.619 -51.954  1.00  0.00     0.001 A 
BRANCH  24  34
HETATM   34  O   UNL     1     -41.706  56.321 -52.384  1.00  0.00    -0.353 OA
HETATM   35  C   UNL     1     -40.684  57.306 -52.574  1.00  0.00     0.210 C 
ENDBRANCH  24  34
ENDBRANCH  20  23
ENDBRANCH   1  19
TORSDOF 6
ENDMDL
