MODEL 1
REMARK VINA RESULT:      -7.5      0.000      0.000
REMARK  7 active torsions:
REMARK  status: ('A' for Active; 'I' for Inactive)
REMARK    1  A    between atoms: C_2  and  C_3 
REMARK    2  A    between atoms: C_3  and  N_4 
REMARK    3  A    between atoms: C_7  and  C_8 
REMARK    4  A    between atoms: C_8  and  N_9 
REMARK       I    between atoms: N_9  and  C_10 
REMARK       I    between atoms: C_10  and  N_11 
REMARK    5  A    between atoms: N_11  and  C_12 
REMARK    6  A    between atoms: C_16  and  N_17 
REMARK       I    between atoms: N_17  and  C_18 
REMARK    7  A    between atoms: C_18  and  C_19 
ROOT
HETATM    1  C   UNL     1     -42.130  58.066 -53.592  1.00  0.00     0.036 A 
HETATM    2  C   UNL     1     -41.771  56.859 -54.195  1.00  0.00     0.038 A 
HETATM    3  C   UNL     1     -42.439  56.392 -55.347  1.00  0.00    -0.033 A 
HETATM    4  C   UNL     1     -42.007  55.078 -55.944  1.00  0.00     0.050 C 
HETATM    5  C   UNL     1     -43.467  57.171 -55.917  1.00  0.00     0.041 A 
HETATM    6  C   UNL     1     -43.864  58.340 -55.260  1.00  0.00     0.032 A 
HETATM    7  C   UNL     1     -43.218  58.772 -54.098  1.00  0.00     0.032 A 
ENDROOT
BRANCH   1   8
HETATM    8  N   UNL     1     -41.475  58.607 -52.472  1.00  0.00    -0.309 N 
HETATM    9  C   UNL     1     -41.324  58.144 -51.201  1.00  0.00     0.320 C 
HETATM   10  N   UNL     1     -41.660  56.840 -50.969  1.00  0.00    -0.342 N 
HETATM   11  O   UNL     1     -40.859  58.874 -50.331  1.00  0.00    -0.247 OA
HETATM   12  H   UNL     1     -41.660  56.301 -51.828  1.00  0.00     0.164 HD
HETATM   13  H   UNL     1     -40.938  59.454 -52.629  1.00  0.00     0.170 HD
BRANCH  10  14
HETATM   14  C   UNL     1     -41.237  56.075 -49.808  1.00  0.00     0.130 C 
BRANCH  14  15
HETATM   15  C   UNL     1     -41.788  54.651 -49.630  1.00  0.00     0.031 C 
HETATM   16  C   UNL     1     -42.235  53.986 -50.924  1.00  0.00     0.241 C 
HETATM   17  N   UNL     1     -41.019  53.212 -51.429  1.00  0.00    -0.071 N 
HETATM   18  H   UNL     1     -41.325  52.235 -51.524  1.00  0.00     0.279 HD
HETATM   19  C   UNL     1     -39.968  53.261 -50.341  1.00  0.00     0.235 C 
HETATM   20  C   UNL     1     -40.730  53.687 -49.103  1.00  0.00     0.035 C 
BRANCH  17  21
HETATM   21  C   UNL     1     -40.556  53.670 -52.787  1.00  0.00     0.234 C 
BRANCH  21  22
HETATM   22  C   UNL     1     -40.660  52.534 -53.796  1.00  0.00     0.023 C 
HETATM   23  C   UNL     1     -39.532  51.533 -53.604  1.00  0.00     0.007 C 
ENDBRANCH  21  22
ENDBRANCH  17  21
ENDBRANCH  14  15
ENDBRANCH  10  14
ENDBRANCH   1   8
BRANCH   5  24
HETATM   24  N   UNL     1     -44.052  56.753 -57.130  1.00  0.00    -0.321 N 
HETATM   25  C   UNL     1     -43.845  57.261 -58.403  1.00  0.00     0.279 C 
HETATM   26  O   UNL     1     -43.128  58.217 -58.679  1.00  0.00    -0.265 OA
HETATM   27  H   UNL     1     -44.629  55.918 -57.118  1.00  0.00     0.169 HD
BRANCH  25  28
HETATM   28  C   UNL     1     -44.547  56.506 -59.426  1.00  0.00     0.142 A 
HETATM   29  O   UNL     1     -45.853  56.816 -59.717  1.00  0.00    -0.317 OA
HETATM   30  C   UNL     1     -46.256  55.960 -60.693  1.00  0.00     0.143 A 
HETATM   31  C   UNL     1     -45.242  55.096 -61.028  1.00  0.00     0.027 A 
HETATM   32  C   UNL     1     -44.138  55.449 -60.215  1.00  0.00     0.045 A 
ENDBRANCH  25  28
ENDBRANCH   5  24
TORSDOF 7
ENDMDL
MODEL 2
REMARK VINA RESULT:      -7.3     15.439     17.288
REMARK  7 active torsions:
REMARK  status: ('A' for Active; 'I' for Inactive)
REMARK    1  A    between atoms: C_2  and  C_3 
REMARK    2  A    between atoms: C_3  and  N_4 
REMARK    3  A    between atoms: C_7  and  C_8 
REMARK    4  A    between atoms: C_8  and  N_9 
REMARK       I    between atoms: N_9  and  C_10 
REMARK       I    between atoms: C_10  and  N_11 
REMARK    5  A    between atoms: N_11  and  C_12 
REMARK    6  A    between atoms: C_16  and  N_17 
REMARK       I    between atoms: N_17  and  C_18 
REMARK    7  A    between atoms: C_18  and  C_19 
ROOT
HETATM    1  C   UNL     1     -35.467  41.691 -56.213  1.00  0.00     0.036 A 
HETATM    2  C   UNL     1     -36.170  42.348 -57.224  1.00  0.00     0.038 A 
HETATM    3  C   UNL     1     -36.503  41.690 -58.428  1.00  0.00    -0.033 A 
HETATM    4  C   UNL     1     -37.257  42.460 -59.481  1.00  0.00     0.050 C 
HETATM    5  C   UNL     1     -36.145  40.338 -58.601  1.00  0.00     0.041 A 
HETATM    6  C   UNL     1     -35.377  39.716 -57.612  1.00  0.00     0.032 A 
HETATM    7  C   UNL     1     -35.023  40.391 -56.440  1.00  0.00     0.032 A 
ENDROOT
BRANCH   1   8
HETATM    8  N   UNL     1     -35.145  42.275 -54.976  1.00  0.00    -0.309 N 
HETATM    9  C   UNL     1     -35.836  42.356 -53.806  1.00  0.00     0.320 C 
HETATM   10  N   UNL     1     -36.948  41.571 -53.684  1.00  0.00    -0.342 N 
HETATM   11  O   UNL     1     -35.429  43.075 -52.899  1.00  0.00    -0.247 OA
HETATM   12  H   UNL     1     -36.925  40.796 -54.338  1.00  0.00     0.164 HD
HETATM   13  H   UNL     1     -34.201  42.637 -54.881  1.00  0.00     0.170 HD
BRANCH  10  14
HETATM   14  C   UNL     1     -37.590  41.244 -52.423  1.00  0.00     0.130 C 
BRANCH  14  15
HETATM   15  C   UNL     1     -37.454  39.811 -51.883  1.00  0.00     0.031 C 
HETATM   16  C   UNL     1     -36.350  38.997 -52.542  1.00  0.00     0.241 C 
HETATM   17  N   UNL     1     -35.112  39.204 -51.673  1.00  0.00    -0.071 N 
HETATM   18  H   UNL     1     -34.809  38.264 -51.384  1.00  0.00     0.279 HD
HETATM   19  C   UNL     1     -35.550  39.948 -50.431  1.00  0.00     0.235 C 
HETATM   20  C   UNL     1     -37.056  39.789 -50.410  1.00  0.00     0.035 C 
BRANCH  17  21
HETATM   21  C   UNL     1     -33.968  39.832 -52.425  1.00  0.00     0.234 C 
BRANCH  21  22
HETATM   22  C   UNL     1     -33.164  40.744 -51.507  1.00  0.00     0.023 C 
HETATM   23  C   UNL     1     -31.815  40.125 -51.175  1.00  0.00     0.007 C 
ENDBRANCH  21  22
ENDBRANCH  17  21
ENDBRANCH  14  15
ENDBRANCH  10  14
ENDBRANCH   1   8
BRANCH   5  24
HETATM   24  N   UNL     1     -36.579  39.656 -59.757  1.00  0.00    -0.321 N 
HETATM   25  C   UNL     1     -37.796  39.030 -59.979  1.00  0.00     0.279 C 
HETATM   26  O   UNL     1     -38.703  38.929 -59.160  1.00  0.00    -0.265 OA
HETATM   27  H   UNL     1     -35.988  39.691 -60.581  1.00  0.00     0.169 HD
BRANCH  25  28
HETATM   28  C   UNL     1     -37.923  38.522 -61.333  1.00  0.00     0.142 A 
HETATM   29  O   UNL     1     -36.929  38.776 -62.247  1.00  0.00    -0.317 OA
HETATM   30  C   UNL     1     -37.306  38.196 -63.417  1.00  0.00     0.143 A 
HETATM   31  C   UNL     1     -38.530  37.585 -63.281  1.00  0.00     0.027 A 
HETATM   32  C   UNL     1     -38.927  37.791 -61.938  1.00  0.00     0.045 A 
ENDBRANCH  25  28
ENDBRANCH   5  24
TORSDOF 7
ENDMDL
MODEL 3
REMARK VINA RESULT:      -7.3     15.736     19.284
REMARK  7 active torsions:
REMARK  status: ('A' for Active; 'I' for Inactive)
REMARK    1  A    between atoms: C_2  and  C_3 
REMARK    2  A    between atoms: C_3  and  N_4 
REMARK    3  A    between atoms: C_7  and  C_8 
REMARK    4  A    between atoms: C_8  and  N_9 
REMARK       I    between atoms: N_9  and  C_10 
REMARK       I    between atoms: C_10  and  N_11 
REMARK    5  A    between atoms: N_11  and  C_12 
REMARK    6  A    between atoms: C_16  and  N_17 
REMARK       I    between atoms: N_17  and  C_18 
REMARK    7  A    between atoms: C_18  and  C_19 
ROOT
HETATM    1  C   UNL     1     -35.599  42.038 -57.025  1.00  0.00     0.036 A 
HETATM    2  C   UNL     1     -34.374  41.374 -56.937  1.00  0.00     0.038 A 
HETATM    3  C   UNL     1     -33.805  41.053 -55.686  1.00  0.00    -0.033 A 
HETATM    4  C   UNL     1     -32.477  40.343 -55.662  1.00  0.00     0.050 C 
HETATM    5  C   UNL     1     -34.499  41.384 -54.503  1.00  0.00     0.041 A 
HETATM    6  C   UNL     1     -35.688  42.113 -54.606  1.00  0.00     0.032 A 
HETATM    7  C   UNL     1     -36.221  42.456 -55.851  1.00  0.00     0.032 A 
ENDROOT
BRANCH   1   8
HETATM    8  N   UNL     1     -36.238  42.344 -58.238  1.00  0.00    -0.309 N 
HETATM    9  C   UNL     1     -37.081  41.620 -59.025  1.00  0.00     0.320 C 
HETATM   10  N   UNL     1     -37.599  40.473 -58.493  1.00  0.00    -0.342 N 
HETATM   11  O   UNL     1     -37.381  42.028 -60.144  1.00  0.00    -0.247 OA
HETATM   12  H   UNL     1     -37.555  40.485 -57.480  1.00  0.00     0.164 HD
HETATM   13  H   UNL     1     -36.141  43.299 -58.570  1.00  0.00     0.170 HD
BRANCH  10  14
HETATM   14  C   UNL     1     -38.765  39.779 -59.013  1.00  0.00     0.130 C 
BRANCH  14  15
HETATM   15  C   UNL     1     -38.551  38.671 -60.057  1.00  0.00     0.031 C 
HETATM   16  C   UNL     1     -37.137  38.112 -60.095  1.00  0.00     0.241 C 
HETATM   17  N   UNL     1     -37.144  36.912 -59.150  1.00  0.00    -0.071 N 
HETATM   18  H   UNL     1     -36.834  36.108 -59.712  1.00  0.00     0.279 HD
HETATM   19  C   UNL     1     -38.580  36.664 -58.745  1.00  0.00     0.235 C 
HETATM   20  C   UNL     1     -39.395  37.435 -59.762  1.00  0.00     0.035 C 
BRANCH  17  21
HETATM   21  C   UNL     1     -36.173  37.061 -58.008  1.00  0.00     0.234 C 
BRANCH  21  22
HETATM   22  C   UNL     1     -36.920  37.230 -56.692  1.00  0.00     0.023 C 
HETATM   23  C   UNL     1     -36.397  38.434 -55.922  1.00  0.00     0.007 C 
ENDBRANCH  21  22
ENDBRANCH  17  21
ENDBRANCH  14  15
ENDBRANCH  10  14
ENDBRANCH   1   8
BRANCH   5  24
HETATM   24  N   UNL     1     -33.979  40.961 -53.262  1.00  0.00    -0.321 N 
HETATM   25  C   UNL     1     -34.390  39.895 -52.478  1.00  0.00     0.279 C 
HETATM   26  O   UNL     1     -35.333  39.150 -52.727  1.00  0.00    -0.265 OA
HETATM   27  H   UNL     1     -33.140  41.414 -52.919  1.00  0.00     0.169 HD
BRANCH  25  28
HETATM   28  C   UNL     1     -33.547  39.703 -51.311  1.00  0.00     0.142 A 
HETATM   29  O   UNL     1     -34.006  38.940 -50.264  1.00  0.00    -0.317 OA
HETATM   30  C   UNL     1     -33.030  38.936 -49.318  1.00  0.00     0.143 A 
HETATM   31  C   UNL     1     -31.957  39.691 -49.726  1.00  0.00     0.027 A 
HETATM   32  C   UNL     1     -32.288  40.184 -51.011  1.00  0.00     0.045 A 
ENDBRANCH  25  28
ENDBRANCH   5  24
TORSDOF 7
ENDMDL
MODEL 4
REMARK VINA RESULT:      -7.2      3.642      7.292
REMARK  7 active torsions:
REMARK  status: ('A' for Active; 'I' for Inactive)
REMARK    1  A    between atoms: C_2  and  C_3 
REMARK    2  A    between atoms: C_3  and  N_4 
REMARK    3  A    between atoms: C_7  and  C_8 
REMARK    4  A    between atoms: C_8  and  N_9 
REMARK       I    between atoms: N_9  and  C_10 
REMARK       I    between atoms: C_10  and  N_11 
REMARK    5  A    between atoms: N_11  and  C_12 
REMARK    6  A    between atoms: C_16  and  N_17 
REMARK       I    between atoms: N_17  and  C_18 
REMARK    7  A    between atoms: C_18  and  C_19 
ROOT
HETATM    1  C   UNL     1     -42.589  57.580 -51.402  1.00  0.00     0.036 A 
HETATM    2  C   UNL     1     -43.278  56.396 -51.131  1.00  0.00     0.038 A 
HETATM    3  C   UNL     1     -42.841  55.161 -51.658  1.00  0.00    -0.033 A 
HETATM    4  C   UNL     1     -43.635  53.923 -51.333  1.00  0.00     0.050 C 
HETATM    5  C   UNL     1     -41.674  55.117 -52.448  1.00  0.00     0.041 A 
HETATM    6  C   UNL     1     -41.038  56.320 -52.770  1.00  0.00     0.032 A 
HETATM    7  C   UNL     1     -41.502  57.540 -52.272  1.00  0.00     0.032 A 
ENDROOT
BRANCH   1   8
HETATM    8  N   UNL     1     -42.945  58.832 -50.872  1.00  0.00    -0.309 N 
HETATM    9  C   UNL     1     -43.613  59.887 -51.414  1.00  0.00     0.320 C 
HETATM   10  N   UNL     1     -44.259  59.673 -52.599  1.00  0.00    -0.342 N 
HETATM   11  O   UNL     1     -43.657  60.959 -50.817  1.00  0.00    -0.247 OA
HETATM   12  H   UNL     1     -44.434  58.686 -52.750  1.00  0.00     0.164 HD
HETATM   13  H   UNL     1     -42.758  58.972 -49.884  1.00  0.00     0.170 HD
BRANCH  10  14
HETATM   14  C   UNL     1     -45.300  60.534 -53.135  1.00  0.00     0.130 C 
BRANCH  14  15
HETATM   15  C   UNL     1     -44.979  61.384 -54.375  1.00  0.00     0.031 C 
HETATM   16  C   UNL     1     -43.618  61.099 -54.994  1.00  0.00     0.241 C 
HETATM   17  N   UNL     1     -43.867  60.037 -56.062  1.00  0.00    -0.071 N 
HETATM   18  H   UNL     1     -43.517  60.435 -56.944  1.00  0.00     0.279 HD
HETATM   19  C   UNL     1     -45.365  59.873 -56.196  1.00  0.00     0.235 C 
HETATM   20  C   UNL     1     -45.939  61.104 -55.527  1.00  0.00     0.035 C 
BRANCH  17  21
HETATM   21  C   UNL     1     -43.103  58.764 -55.811  1.00  0.00     0.234 C 
BRANCH  21  22
HETATM   22  C   UNL     1     -44.060  57.623 -55.489  1.00  0.00     0.023 C 
HETATM   23  C   UNL     1     -43.353  56.280 -55.586  1.00  0.00     0.007 C 
ENDBRANCH  21  22
ENDBRANCH  17  21
ENDBRANCH  14  15
ENDBRANCH  10  14
ENDBRANCH   1   8
BRANCH   5  24
HETATM   24  N   UNL     1     -41.183  53.866 -52.876  1.00  0.00    -0.321 N 
HETATM   25  C   UNL     1     -40.254  53.049 -52.250  1.00  0.00     0.279 C 
HETATM   26  O   UNL     1     -39.660  53.313 -51.210  1.00  0.00    -0.265 OA
HETATM   27  H   UNL     1     -41.611  53.440 -53.691  1.00  0.00     0.169 HD
BRANCH  25  28
HETATM   28  C   UNL     1     -40.071  51.783 -52.939  1.00  0.00     0.142 A 
HETATM   29  O   UNL     1     -39.616  50.693 -52.239  1.00  0.00    -0.317 OA
HETATM   30  C   UNL     1     -39.534  49.661 -53.120  1.00  0.00     0.143 A 
HETATM   31  C   UNL     1     -39.913  50.067 -54.377  1.00  0.00     0.027 A 
HETATM   32  C   UNL     1     -40.262  51.433 -54.261  1.00  0.00     0.045 A 
ENDBRANCH  25  28
ENDBRANCH   5  24
TORSDOF 7
ENDMDL
MODEL 5
REMARK VINA RESULT:      -7.1      2.777      7.725
REMARK  7 active torsions:
REMARK  status: ('A' for Active; 'I' for Inactive)
REMARK    1  A    between atoms: C_2  and  C_3 
REMARK    2  A    between atoms: C_3  and  N_4 
REMARK    3  A    between atoms: C_7  and  C_8 
REMARK    4  A    between atoms: C_8  and  N_9 
REMARK       I    between atoms: N_9  and  C_10 
REMARK       I    between atoms: C_10  and  N_11 
REMARK    5  A    between atoms: N_11  and  C_12 
REMARK    6  A    between atoms: C_16  and  N_17 
REMARK       I    between atoms: N_17  and  C_18 
REMARK    7  A    between atoms: C_18  and  C_19 
ROOT
HETATM    1  C   UNL     1     -43.710  57.325 -54.015  1.00  0.00     0.036 A 
HETATM    2  C   UNL     1     -42.786  57.111 -52.990  1.00  0.00     0.038 A 
HETATM    3  C   UNL     1     -42.202  55.843 -52.788  1.00  0.00    -0.033 A 
HETATM    4  C   UNL     1     -41.218  55.679 -51.659  1.00  0.00     0.050 C 
HETATM    5  C   UNL     1     -42.534  54.779 -53.652  1.00  0.00     0.041 A 
HETATM    6  C   UNL     1     -43.515  54.990 -54.626  1.00  0.00     0.032 A 
HETATM    7  C   UNL     1     -44.113  56.242 -54.792  1.00  0.00     0.032 A 
ENDROOT
BRANCH   1   8
HETATM    8  N   UNL     1     -44.293  58.573 -54.296  1.00  0.00    -0.309 N 
HETATM    9  C   UNL     1     -44.029  59.497 -55.260  1.00  0.00     0.320 C 
HETATM   10  N   UNL     1     -43.216  59.112 -56.288  1.00  0.00    -0.342 N 
HETATM   11  O   UNL     1     -44.552  60.607 -55.208  1.00  0.00    -0.247 OA
HETATM   12  H   UNL     1     -43.185  58.102 -56.374  1.00  0.00     0.164 HD
HETATM   13  H   UNL     1     -45.114  58.819 -53.754  1.00  0.00     0.170 HD
BRANCH  10  14
HETATM   14  C   UNL     1     -43.115  59.803 -57.562  1.00  0.00     0.130 C 
BRANCH  14  15
HETATM   15  C   UNL     1     -42.166  59.235 -58.629  1.00  0.00     0.031 C 
HETATM   16  C   UNL     1     -42.081  57.716 -58.647  1.00  0.00     0.241 C 
HETATM   17  N   UNL     1     -43.131  57.259 -59.657  1.00  0.00    -0.071 N 
HETATM   18  H   UNL     1     -42.626  56.696 -60.355  1.00  0.00     0.279 HD
HETATM   19  C   UNL     1     -43.656  58.494 -60.355  1.00  0.00     0.235 C 
HETATM   20  C   UNL     1     -42.631  59.565 -60.044  1.00  0.00     0.035 C 
BRANCH  17  21
HETATM   21  C   UNL     1     -44.184  56.373 -59.046  1.00  0.00     0.234 C 
BRANCH  21  22
HETATM   22  C   UNL     1     -44.180  55.002 -59.711  1.00  0.00     0.023 C 
HETATM   23  C   UNL     1     -44.998  55.019 -60.993  1.00  0.00     0.007 C 
ENDBRANCH  21  22
ENDBRANCH  17  21
ENDBRANCH  14  15
ENDBRANCH  10  14
ENDBRANCH   1   8
BRANCH   5  24
HETATM   24  N   UNL     1     -41.863  53.547 -53.513  1.00  0.00    -0.321 N 
HETATM   25  C   UNL     1     -40.762  53.085 -54.218  1.00  0.00     0.279 C 
HETATM   26  O   UNL     1     -40.206  53.678 -55.137  1.00  0.00    -0.265 OA
HETATM   27  H   UNL     1     -42.135  52.940 -52.747  1.00  0.00     0.169 HD
BRANCH  25  28
HETATM   28  C   UNL     1     -40.282  51.806 -53.726  1.00  0.00     0.142 A 
HETATM   29  O   UNL     1     -39.839  51.704 -52.430  1.00  0.00    -0.317 OA
HETATM   30  C   UNL     1     -39.448  50.415 -52.244  1.00  0.00     0.143 A 
HETATM   31  C   UNL     1     -39.615  49.687 -53.397  1.00  0.00     0.027 A 
HETATM   32  C   UNL     1     -40.155  50.581 -54.353  1.00  0.00     0.045 A 
ENDBRANCH  25  28
ENDBRANCH   5  24
TORSDOF 7
ENDMDL
MODEL 6
REMARK VINA RESULT:      -7.1      2.513      8.587
REMARK  7 active torsions:
REMARK  status: ('A' for Active; 'I' for Inactive)
REMARK    1  A    between atoms: C_2  and  C_3 
REMARK    2  A    between atoms: C_3  and  N_4 
REMARK    3  A    between atoms: C_7  and  C_8 
REMARK    4  A    between atoms: C_8  and  N_9 
REMARK       I    between atoms: N_9  and  C_10 
REMARK       I    between atoms: C_10  and  N_11 
REMARK    5  A    between atoms: N_11  and  C_12 
REMARK    6  A    between atoms: C_16  and  N_17 
REMARK       I    between atoms: N_17  and  C_18 
REMARK    7  A    between atoms: C_18  and  C_19 
ROOT
HETATM    1  C   UNL     1     -42.559  55.638 -56.904  1.00  0.00     0.036 A 
HETATM    2  C   UNL     1     -41.937  56.608 -56.114  1.00  0.00     0.038 A 
HETATM    3  C   UNL     1     -41.771  56.421 -54.725  1.00  0.00    -0.033 A 
HETATM    4  C   UNL     1     -41.099  57.510 -53.931  1.00  0.00     0.050 C 
HETATM    5  C   UNL     1     -42.215  55.223 -54.128  1.00  0.00     0.041 A 
HETATM    6  C   UNL     1     -42.901  54.295 -54.918  1.00  0.00     0.032 A 
HETATM    7  C   UNL     1     -43.091  54.509 -56.286  1.00  0.00     0.032 A 
ENDROOT
BRANCH   1   8
HETATM    8  N   UNL     1     -42.714  55.744 -58.296  1.00  0.00    -0.309 N 
HETATM    9  C   UNL     1     -43.751  56.183 -59.061  1.00  0.00     0.320 C 
HETATM   10  N   UNL     1     -44.761  56.845 -58.421  1.00  0.00    -0.342 N 
HETATM   11  O   UNL     1     -43.732  56.019 -60.278  1.00  0.00    -0.247 OA
HETATM   12  H   UNL     1     -44.452  57.212 -57.527  1.00  0.00     0.164 HD
HETATM   13  H   UNL     1     -41.892  55.544 -58.858  1.00  0.00     0.170 HD
BRANCH  10  14
HETATM   14  C   UNL     1     -45.742  57.689 -59.083  1.00  0.00     0.130 C 
BRANCH  14  15
HETATM   15  C   UNL     1     -46.963  58.161 -58.277  1.00  0.00     0.031 C 
HETATM   16  C   UNL     1     -46.880  57.868 -56.786  1.00  0.00     0.241 C 
HETATM   17  N   UNL     1     -46.261  59.114 -56.156  1.00  0.00    -0.071 N 
HETATM   18  H   UNL     1     -46.933  59.435 -55.446  1.00  0.00     0.279 HD
HETATM   19  C   UNL     1     -46.187  60.175 -57.231  1.00  0.00     0.235 C 
HETATM   20  C   UNL     1     -47.122  59.678 -58.314  1.00  0.00     0.035 C 
BRANCH  17  21
HETATM   21  C   UNL     1     -44.963  58.828 -55.448  1.00  0.00     0.234 C 
BRANCH  21  22
HETATM   22  C   UNL     1     -45.102  57.602 -54.554  1.00  0.00     0.023 C 
HETATM   23  C   UNL     1     -44.723  57.932 -53.119  1.00  0.00     0.007 C 
ENDBRANCH  21  22
ENDBRANCH  17  21
ENDBRANCH  14  15
ENDBRANCH  10  14
ENDBRANCH   1   8
BRANCH   5  24
HETATM   24  N   UNL     1     -41.945  54.997 -52.762  1.00  0.00    -0.321 N 
HETATM   25  C   UNL     1     -41.009  54.141 -52.203  1.00  0.00     0.279 C 
HETATM   26  O   UNL     1     -40.272  53.386 -52.829  1.00  0.00    -0.265 OA
HETATM   27  H   UNL     1     -42.410  55.586 -52.081  1.00  0.00     0.169 HD
BRANCH  25  28
HETATM   28  C   UNL     1     -40.947  54.251 -50.756  1.00  0.00     0.142 A 
HETATM   29  O   UNL     1     -40.541  53.168 -50.013  1.00  0.00    -0.317 OA
HETATM   30  C   UNL     1     -40.583  53.545 -48.708  1.00  0.00     0.143 A 
HETATM   31  C   UNL     1     -41.019  54.843 -48.592  1.00  0.00     0.027 A 
HETATM   32  C   UNL     1     -41.251  55.300 -49.911  1.00  0.00     0.045 A 
ENDBRANCH  25  28
ENDBRANCH   5  24
TORSDOF 7
ENDMDL
MODEL 7
REMARK VINA RESULT:      -7.1      2.812      8.033
REMARK  7 active torsions:
REMARK  status: ('A' for Active; 'I' for Inactive)
REMARK    1  A    between atoms: C_2  and  C_3 
REMARK    2  A    between atoms: C_3  and  N_4 
REMARK    3  A    between atoms: C_7  and  C_8 
REMARK    4  A    between atoms: C_8  and  N_9 
REMARK       I    between atoms: N_9  and  C_10 
REMARK       I    between atoms: C_10  and  N_11 
REMARK    5  A    between atoms: N_11  and  C_12 
REMARK    6  A    between atoms: C_16  and  N_17 
REMARK       I    between atoms: N_17  and  C_18 
REMARK    7  A    between atoms: C_18  and  C_19 
ROOT
HETATM    1  C   UNL     1     -42.516  57.270 -53.273  1.00  0.00     0.036 A 
HETATM    2  C   UNL     1     -41.615  56.670 -54.155  1.00  0.00     0.038 A 
HETATM    3  C   UNL     1     -41.059  55.403 -53.878  1.00  0.00    -0.033 A 
HETATM    4  C   UNL     1     -40.087  54.815 -54.868  1.00  0.00     0.050 C 
HETATM    5  C   UNL     1     -41.440  54.718 -52.706  1.00  0.00     0.041 A 
HETATM    6  C   UNL     1     -42.286  55.363 -51.798  1.00  0.00     0.032 A 
HETATM    7  C   UNL     1     -42.801  56.634 -52.067  1.00  0.00     0.032 A 
ENDROOT
BRANCH   1   8
HETATM    8  N   UNL     1     -43.139  58.507 -53.512  1.00  0.00    -0.309 N 
HETATM    9  C   UNL     1     -44.012  58.910 -54.475  1.00  0.00     0.320 C 
HETATM   10  N   UNL     1     -44.584  57.936 -55.244  1.00  0.00    -0.342 N 
HETATM   11  O   UNL     1     -44.292  60.099 -54.595  1.00  0.00    -0.247 OA
HETATM   12  H   UNL     1     -44.541  57.032 -54.785  1.00  0.00     0.164 HD
HETATM   13  H   UNL     1     -42.997  59.226 -52.809  1.00  0.00     0.170 HD
BRANCH  10  14
HETATM   14  C   UNL     1     -45.780  58.119 -56.049  1.00  0.00     0.130 C 
BRANCH  14  15
HETATM   15  C   UNL     1     -45.676  58.957 -57.333  1.00  0.00     0.031 C 
HETATM   16  C   UNL     1     -44.524  58.562 -58.246  1.00  0.00     0.241 C 
HETATM   17  N   UNL     1     -45.106  57.544 -59.224  1.00  0.00    -0.071 N 
HETATM   18  H   UNL     1     -44.932  57.923 -60.164  1.00  0.00     0.279 HD
HETATM   19  C   UNL     1     -46.603  57.515 -59.010  1.00  0.00     0.235 C 
HETATM   20  C   UNL     1     -46.895  58.782 -58.233  1.00  0.00     0.035 C 
BRANCH  17  21
HETATM   21  C   UNL     1     -44.422  56.204 -59.148  1.00  0.00     0.234 C 
BRANCH  21  22
HETATM   22  C   UNL     1     -43.074  56.332 -58.449  1.00  0.00     0.023 C 
HETATM   23  C   UNL     1     -43.004  55.417 -57.237  1.00  0.00     0.007 C 
ENDBRANCH  21  22
ENDBRANCH  17  21
ENDBRANCH  14  15
ENDBRANCH  10  14
ENDBRANCH   1   8
BRANCH   5  24
HETATM   24  N   UNL     1     -40.967  53.406 -52.493  1.00  0.00    -0.321 N 
HETATM   25  C   UNL     1     -40.076  52.962 -51.529  1.00  0.00     0.279 C 
HETATM   26  O   UNL     1     -39.504  53.671 -50.708  1.00  0.00    -0.265 OA
HETATM   27  H   UNL     1     -41.383  52.656 -53.035  1.00  0.00     0.169 HD
BRANCH  25  28
HETATM   28  C   UNL     1     -39.903  51.519 -51.552  1.00  0.00     0.142 A 
HETATM   29  O   UNL     1     -39.679  50.885 -52.749  1.00  0.00    -0.317 OA
HETATM   30  C   UNL     1     -39.563  49.557 -52.480  1.00  0.00     0.143 A 
HETATM   31  C   UNL     1     -39.722  49.321 -51.135  1.00  0.00     0.027 A 
HETATM   32  C   UNL     1     -39.938  50.585 -50.535  1.00  0.00     0.045 A 
ENDBRANCH  25  28
ENDBRANCH   5  24
TORSDOF 7
ENDMDL
MODEL 8
REMARK VINA RESULT:      -7.1     15.632     17.691
REMARK  7 active torsions:
REMARK  status: ('A' for Active; 'I' for Inactive)
REMARK    1  A    between atoms: C_2  and  C_3 
REMARK    2  A    between atoms: C_3  and  N_4 
REMARK    3  A    between atoms: C_7  and  C_8 
REMARK    4  A    between atoms: C_8  and  N_9 
REMARK       I    between atoms: N_9  and  C_10 
REMARK       I    between atoms: C_10  and  N_11 
REMARK    5  A    between atoms: N_11  and  C_12 
REMARK    6  A    between atoms: C_16  and  N_17 
REMARK       I    between atoms: N_17  and  C_18 
REMARK    7  A    between atoms: C_18  and  C_19 
ROOT
HETATM    1  C   UNL     1     -37.537  41.010 -55.790  1.00  0.00     0.036 A 
HETATM    2  C   UNL     1     -37.493  41.835 -56.915  1.00  0.00     0.038 A 
HETATM    3  C   UNL     1     -37.199  41.311 -58.192  1.00  0.00    -0.033 A 
HETATM    4  C   UNL     1     -37.160  42.257 -59.364  1.00  0.00     0.050 C 
HETATM    5  C   UNL     1     -36.974  39.927 -58.340  1.00  0.00     0.041 A 
HETATM    6  C   UNL     1     -36.949  39.127 -57.194  1.00  0.00     0.032 A 
HETATM    7  C   UNL     1     -37.205  39.664 -55.930  1.00  0.00     0.032 A 
ENDROOT
BRANCH   1   8
HETATM    8  N   UNL     1     -37.868  41.461 -54.500  1.00  0.00    -0.309 N 
HETATM    9  C   UNL     1     -37.168  41.458 -53.333  1.00  0.00     0.320 C 
HETATM   10  N   UNL     1     -35.833  41.176 -53.408  1.00  0.00    -0.342 N 
HETATM   11  O   UNL     1     -37.727  41.746 -52.279  1.00  0.00    -0.247 OA
HETATM   12  H   UNL     1     -35.476  41.334 -54.344  1.00  0.00     0.164 HD
HETATM   13  H   UNL     1     -38.747  41.960 -54.410  1.00  0.00     0.170 HD
BRANCH  10  14
HETATM   14  C   UNL     1     -34.868  41.477 -52.363  1.00  0.00     0.130 C 
BRANCH  14  15
HETATM   15  C   UNL     1     -34.033  40.323 -51.785  1.00  0.00     0.031 C 
HETATM   16  C   UNL     1     -34.099  39.036 -52.595  1.00  0.00     0.241 C 
HETATM   17  N   UNL     1     -32.924  39.103 -53.567  1.00  0.00    -0.071 N 
HETATM   18  H   UNL     1     -32.363  38.258 -53.392  1.00  0.00     0.279 HD
HETATM   19  C   UNL     1     -32.083  40.300 -53.179  1.00  0.00     0.235 C 
HETATM   20  C   UNL     1     -32.542  40.642 -51.777  1.00  0.00     0.035 C 
BRANCH  17  21
HETATM   21  C   UNL     1     -33.355  39.064 -55.009  1.00  0.00     0.234 C 
BRANCH  21  22
HETATM   22  C   UNL     1     -32.745  40.228 -55.780  1.00  0.00     0.023 C 
HETATM   23  C   UNL     1     -33.826  41.063 -56.447  1.00  0.00     0.007 C 
ENDBRANCH  21  22
ENDBRANCH  17  21
ENDBRANCH  14  15
ENDBRANCH  10  14
ENDBRANCH   1   8
BRANCH   5  24
HETATM   24  N   UNL     1     -36.792  39.396 -59.634  1.00  0.00    -0.321 N 
HETATM   25  C   UNL     1     -37.730  38.781 -60.448  1.00  0.00     0.279 C 
HETATM   26  O   UNL     1     -38.896  38.553 -60.145  1.00  0.00    -0.265 OA
HETATM   27  H   UNL     1     -35.900  39.551 -60.091  1.00  0.00     0.169 HD
BRANCH  25  28
HETATM   28  C   UNL     1     -37.199  38.453 -61.761  1.00  0.00     0.142 A 
HETATM   29  O   UNL     1     -35.902  38.015 -61.875  1.00  0.00    -0.317 OA
HETATM   30  C   UNL     1     -35.674  37.791 -63.196  1.00  0.00     0.143 A 
HETATM   31  C   UNL     1     -36.791  38.090 -63.938  1.00  0.00     0.027 A 
HETATM   32  C   UNL     1     -37.776  38.513 -63.014  1.00  0.00     0.045 A 
ENDBRANCH  25  28
ENDBRANCH   5  24
TORSDOF 7
ENDMDL
MODEL 9
REMARK VINA RESULT:      -7.1      2.488      8.105
REMARK  7 active torsions:
REMARK  status: ('A' for Active; 'I' for Inactive)
REMARK    1  A    between atoms: C_2  and  C_3 
REMARK    2  A    between atoms: C_3  and  N_4 
REMARK    3  A    between atoms: C_7  and  C_8 
REMARK    4  A    between atoms: C_8  and  N_9 
REMARK       I    between atoms: N_9  and  C_10 
REMARK       I    between atoms: C_10  and  N_11 
REMARK    5  A    between atoms: N_11  and  C_12 
REMARK    6  A    between atoms: C_16  and  N_17 
REMARK       I    between atoms: N_17  and  C_18 
REMARK    7  A    between atoms: C_18  and  C_19 
ROOT
HETATM    1  C   UNL     1     -44.300  58.202 -54.911  1.00  0.00     0.036 A 
HETATM    2  C   UNL     1     -42.954  58.363 -54.577  1.00  0.00     0.038 A 
HETATM    3  C   UNL     1     -42.218  57.314 -53.986  1.00  0.00    -0.033 A 
HETATM    4  C   UNL     1     -40.772  57.557 -53.643  1.00  0.00     0.050 C 
HETATM    5  C   UNL     1     -42.844  56.072 -53.754  1.00  0.00     0.041 A 
HETATM    6  C   UNL     1     -44.210  55.950 -54.026  1.00  0.00     0.032 A 
HETATM    7  C   UNL     1     -44.936  57.009 -54.578  1.00  0.00     0.032 A 
ENDROOT
BRANCH   1   8
HETATM    8  N   UNL     1     -45.074  59.191 -55.542  1.00  0.00    -0.309 N 
HETATM    9  C   UNL     1     -45.737  59.200 -56.731  1.00  0.00     0.320 C 
HETATM   10  N   UNL     1     -45.891  58.000 -57.367  1.00  0.00    -0.342 N 
HETATM   11  O   UNL     1     -46.208  60.247 -57.166  1.00  0.00    -0.247 OA
HETATM   12  H   UNL     1     -45.788  57.225 -56.722  1.00  0.00     0.164 HD
HETATM   13  H   UNL     1     -45.261  60.030 -55.002  1.00  0.00     0.170 HD
BRANCH  10  14
HETATM   14  C   UNL     1     -46.856  57.747 -58.424  1.00  0.00     0.130 C 
BRANCH  14  15
HETATM   15  C   UNL     1     -46.447  58.048 -59.875  1.00  0.00     0.031 C 
HETATM   16  C   UNL     1     -44.984  57.763 -60.185  1.00  0.00     0.241 C 
HETATM   17  N   UNL     1     -44.948  56.328 -60.707  1.00  0.00    -0.071 N 
HETATM   18  H   UNL     1     -44.514  56.378 -61.639  1.00  0.00     0.279 HD
HETATM   19  C   UNL     1     -46.380  55.877 -60.891  1.00  0.00     0.235 C 
HETATM   20  C   UNL     1     -47.183  57.161 -60.874  1.00  0.00     0.035 C 
BRANCH  17  21
HETATM   21  C   UNL     1     -44.094  55.420 -59.863  1.00  0.00     0.234 C 
BRANCH  21  22
HETATM   22  C   UNL     1     -43.074  56.230 -59.072  1.00  0.00     0.023 C 
HETATM   23  C   UNL     1     -43.029  55.776 -57.621  1.00  0.00     0.007 C 
ENDBRANCH  21  22
ENDBRANCH  17  21
ENDBRANCH  14  15
ENDBRANCH  10  14
ENDBRANCH   1   8
BRANCH   5  24
HETATM   24  N   UNL     1     -42.073  54.996 -53.268  1.00  0.00    -0.321 N 
HETATM   25  C   UNL     1     -41.334  54.074 -53.992  1.00  0.00     0.279 C 
HETATM   26  O   UNL     1     -41.266  54.019 -55.216  1.00  0.00    -0.265 OA
HETATM   27  H   UNL     1     -41.947  54.916 -52.265  1.00  0.00     0.169 HD
BRANCH  25  28
HETATM   28  C   UNL     1     -40.584  53.167 -53.140  1.00  0.00     0.142 A 
HETATM   29  O   UNL     1     -40.404  53.480 -51.814  1.00  0.00    -0.317 OA
HETATM   30  C   UNL     1     -39.672  52.475 -51.265  1.00  0.00     0.143 A 
HETATM   31  C   UNL     1     -39.364  51.527 -52.212  1.00  0.00     0.027 A 
HETATM   32  C   UNL     1     -39.954  51.971 -53.420  1.00  0.00     0.045 A 
ENDBRANCH  25  28
ENDBRANCH   5  24
TORSDOF 7
ENDMDL
MODEL 10
REMARK VINA RESULT:      -7.0     16.089     17.965
REMARK  7 active torsions:
REMARK  status: ('A' for Active; 'I' for Inactive)
REMARK    1  A    between atoms: C_2  and  C_3 
REMARK    2  A    between atoms: C_3  and  N_4 
REMARK    3  A    between atoms: C_7  and  C_8 
REMARK    4  A    between atoms: C_8  and  N_9 
REMARK       I    between atoms: N_9  and  C_10 
REMARK       I    between atoms: C_10  and  N_11 
REMARK    5  A    between atoms: N_11  and  C_12 
REMARK    6  A    between atoms: C_16  and  N_17 
REMARK       I    between atoms: N_17  and  C_18 
REMARK    7  A    between atoms: C_18  and  C_19 
ROOT
HETATM    1  C   UNL     1     -35.616  42.037 -54.843  1.00  0.00     0.036 A 
HETATM    2  C   UNL     1     -36.879  41.557 -55.196  1.00  0.00     0.038 A 
HETATM    3  C   UNL     1     -37.148  41.106 -56.506  1.00  0.00    -0.033 A 
HETATM    4  C   UNL     1     -38.535  40.608 -56.822  1.00  0.00     0.050 C 
HETATM    5  C   UNL     1     -36.117  41.113 -57.468  1.00  0.00     0.041 A 
HETATM    6  C   UNL     1     -34.880  41.664 -57.120  1.00  0.00     0.032 A 
HETATM    7  C   UNL     1     -34.638  42.141 -55.829  1.00  0.00     0.032 A 
ENDROOT
BRANCH   1   8
HETATM    8  N   UNL     1     -35.272  42.456 -53.547  1.00  0.00    -0.309 N 
HETATM    9  C   UNL     1     -34.929  41.757 -52.430  1.00  0.00     0.320 C 
HETATM   10  N   UNL     1     -34.646  40.430 -52.589  1.00  0.00    -0.342 N 
HETATM   11  O   UNL     1     -34.839  42.331 -51.348  1.00  0.00    -0.247 OA
HETATM   12  H   UNL     1     -34.406  40.217 -53.550  1.00  0.00     0.164 HD
HETATM   13  H   UNL     1     -35.171  43.457 -53.409  1.00  0.00     0.170 HD
BRANCH  10  14
HETATM   14  C   UNL     1     -33.925  39.621 -51.621  1.00  0.00     0.130 C 
BRANCH  14  15
HETATM   15  C   UNL     1     -33.705  38.131 -51.932  1.00  0.00     0.031 C 
HETATM   16  C   UNL     1     -34.075  37.728 -53.352  1.00  0.00     0.241 C 
HETATM   17  N   UNL     1     -32.789  37.858 -54.164  1.00  0.00    -0.071 N 
HETATM   18  H   UNL     1     -32.624  36.934 -54.584  1.00  0.00     0.279 HD
HETATM   19  C   UNL     1     -31.663  38.127 -53.189  1.00  0.00     0.235 C 
HETATM   20  C   UNL     1     -32.234  37.738 -51.841  1.00  0.00     0.035 C 
BRANCH  17  21
HETATM   21  C   UNL     1     -32.908  38.848 -55.293  1.00  0.00     0.234 C 
BRANCH  21  22
HETATM   22  C   UNL     1     -31.745  39.832 -55.264  1.00  0.00     0.023 C 
HETATM   23  C   UNL     1     -30.869  39.672 -56.497  1.00  0.00     0.007 C 
ENDBRANCH  21  22
ENDBRANCH  17  21
ENDBRANCH  14  15
ENDBRANCH  10  14
ENDBRANCH   1   8
BRANCH   5  24
HETATM   24  N   UNL     1     -36.364  40.558 -58.741  1.00  0.00    -0.321 N 
HETATM   25  C   UNL     1     -35.963  39.324 -59.231  1.00  0.00     0.279 C 
HETATM   26  O   UNL     1     -35.270  38.511 -58.629  1.00  0.00    -0.265 OA
HETATM   27  H   UNL     1     -36.988  41.056 -59.365  1.00  0.00     0.169 HD
BRANCH  25  28
HETATM   28  C   UNL     1     -36.492  39.052 -60.556  1.00  0.00     0.142 A 
HETATM   29  O   UNL     1     -35.654  38.570 -61.532  1.00  0.00    -0.317 OA
HETATM   30  C   UNL     1     -36.402  38.414 -62.656  1.00  0.00     0.143 A 
HETATM   31  C   UNL     1     -37.703  38.798 -62.430  1.00  0.00     0.027 A 
HETATM   32  C   UNL     1     -37.763  39.206 -61.076  1.00  0.00     0.045 A 
ENDBRANCH  25  28
ENDBRANCH   5  24
TORSDOF 7
ENDMDL
