MODEL 1
REMARK VINA RESULT:      -8.7      0.000      0.000
REMARK  5 active torsions:
REMARK  status: ('A' for Active; 'I' for Inactive)
REMARK    1  A    between atoms: C_4  and  C_5 
REMARK       I    between atoms: N_6  and  C_7 
REMARK    2  A    between atoms: C_7  and  C_8 
REMARK    3  A    between atoms: C_8  and  C_9 
REMARK    4  A    between atoms: C_11  and  O_12 
REMARK    5  A    between atoms: C_14  and  O_15 
ROOT
HETATM    1  C   UNL     1     -43.894  56.831 -52.720  1.00  0.00     0.189 C 
HETATM    2  N   UNL     1     -43.570  56.402 -54.108  1.00  0.00    -0.336 N 
HETATM    3  C   UNL     1     -42.573  57.069 -54.823  1.00  0.00     0.225 C 
HETATM    4  O   UNL     1     -41.978  58.061 -54.400  1.00  0.00    -0.273 OA
HETATM    5  C   UNL     1     -43.799  54.956 -54.315  1.00  0.00     0.132 C 
HETATM    6  C   UNL     1     -42.777  54.114 -53.512  1.00  0.00     0.061 C 
HETATM    7  C   UNL     1     -42.529  54.727 -52.168  1.00  0.00    -0.019 A 
HETATM    8  C   UNL     1     -43.023  55.978 -51.825  1.00  0.00     0.046 A 
HETATM    9  N   UNL     1     -42.646  56.236 -50.536  1.00  0.00    -0.356 N 
HETATM   10  H   UNL     1     -42.890  57.059 -50.001  1.00  0.00     0.166 HD
HETATM   11  C   UNL     1     -41.833  55.220 -50.074  1.00  0.00     0.043 A 
HETATM   12  C   UNL     1     -41.758  54.251 -51.078  1.00  0.00    -0.001 A 
HETATM   13  C   UNL     1     -41.163  55.086 -48.852  1.00  0.00     0.030 A 
HETATM   14  C   UNL     1     -40.397  53.932 -48.654  1.00  0.00     0.002 A 
HETATM   15  C   UNL     1     -40.311  52.947 -49.636  1.00  0.00     0.001 A 
HETATM   16  C   UNL     1     -40.988  53.094 -50.852  1.00  0.00     0.014 A 
ENDROOT
BRANCH   1  17
HETATM   17  C   UNL     1     -44.035  58.327 -52.447  1.00  0.00     0.063 A 
HETATM   18  N   UNL     1     -43.105  58.869 -51.606  1.00  0.00    -0.256 NA
HETATM   19  C   UNL     1     -43.182  60.190 -51.316  1.00  0.00     0.031 A 
HETATM   20  C   UNL     1     -42.170  60.743 -50.359  1.00  0.00     0.070 C 
HETATM   21  C   UNL     1     -44.155  61.020 -51.859  1.00  0.00     0.027 A 
HETATM   22  C   UNL     1     -45.095  60.468 -52.718  1.00  0.00     0.004 A 
HETATM   23  C   UNL     1     -45.041  59.108 -53.012  1.00  0.00     0.030 A 
ENDBRANCH   1  17
BRANCH   3  24
HETATM   24  C   UNL     1     -42.186  56.534 -56.198  1.00  0.00     0.141 C 
BRANCH  24  25
HETATM   25  C   UNL     1     -43.048  56.981 -57.356  1.00  0.00    -0.047 A 
HETATM   26  C   UNL     1     -43.168  56.224 -58.531  1.00  0.00     0.047 A 
HETATM   27  C   UNL     1     -43.979  56.658 -59.588  1.00  0.00     0.102 A 
HETATM   28  C   UNL     1     -44.714  57.853 -59.456  1.00  0.00     0.101 A 
HETATM   29  C   UNL     1     -44.622  58.590 -58.271  1.00  0.00     0.040 A 
HETATM   30  C   UNL     1     -43.800  58.154 -57.231  1.00  0.00     0.010 A 
BRANCH  27  31
HETATM   31  O   UNL     1     -44.126  55.984 -60.775  1.00  0.00    -0.353 OA
HETATM   32  C   UNL     1     -44.894  54.787 -60.755  1.00  0.00     0.210 C 
ENDBRANCH  27  31
BRANCH  28  33
HETATM   33  O   UNL     1     -45.491  58.211 -60.530  1.00  0.00    -0.353 OA
HETATM   34  C   UNL     1     -46.900  58.134 -60.377  1.00  0.00     0.210 C 
ENDBRANCH  28  33
ENDBRANCH  24  25
ENDBRANCH   3  24
TORSDOF 5
ENDMDL
MODEL 2
REMARK VINA RESULT:      -8.7      2.809      6.750
REMARK  5 active torsions:
REMARK  status: ('A' for Active; 'I' for Inactive)
REMARK    1  A    between atoms: C_4  and  C_5 
REMARK       I    between atoms: N_6  and  C_7 
REMARK    2  A    between atoms: C_7  and  C_8 
REMARK    3  A    between atoms: C_8  and  C_9 
REMARK    4  A    between atoms: C_11  and  O_12 
REMARK    5  A    between atoms: C_14  and  O_15 
ROOT
HETATM    1  C   UNL     1     -41.710  57.183 -53.995  1.00  0.00     0.189 C 
HETATM    2  N   UNL     1     -42.548  57.557 -52.823  1.00  0.00    -0.336 N 
HETATM    3  C   UNL     1     -43.923  57.315 -52.851  1.00  0.00     0.225 C 
HETATM    4  O   UNL     1     -44.517  56.868 -53.834  1.00  0.00    -0.273 OA
HETATM    5  C   UNL     1     -41.799  57.474 -51.551  1.00  0.00     0.132 C 
HETATM    6  C   UNL     1     -41.463  56.003 -51.201  1.00  0.00     0.061 C 
HETATM    7  C   UNL     1     -41.082  55.242 -52.434  1.00  0.00    -0.019 A 
HETATM    8  C   UNL     1     -41.222  55.781 -53.706  1.00  0.00     0.046 A 
HETATM    9  N   UNL     1     -40.768  54.853 -54.603  1.00  0.00    -0.356 N 
HETATM   10  H   UNL     1     -40.714  54.976 -55.606  1.00  0.00     0.166 HD
HETATM   11  C   UNL     1     -40.433  53.688 -53.943  1.00  0.00     0.043 A 
HETATM   12  C   UNL     1     -40.607  53.914 -52.575  1.00  0.00    -0.001 A 
HETATM   13  C   UNL     1     -39.992  52.459 -54.448  1.00  0.00     0.030 A 
HETATM   14  C   UNL     1     -39.723  51.437 -53.531  1.00  0.00     0.002 A 
HETATM   15  C   UNL     1     -39.882  51.639 -52.162  1.00  0.00     0.001 A 
HETATM   16  C   UNL     1     -40.321  52.873 -51.670  1.00  0.00     0.014 A 
ENDROOT
BRANCH   1  17
HETATM   17  C   UNL     1     -42.225  57.539 -55.387  1.00  0.00     0.063 A 
HETATM   18  N   UNL     1     -42.532  56.483 -56.198  1.00  0.00    -0.256 NA
HETATM   19  C   UNL     1     -42.985  56.733 -57.449  1.00  0.00     0.031 A 
HETATM   20  C   UNL     1     -43.273  55.551 -58.325  1.00  0.00     0.070 C 
HETATM   21  C   UNL     1     -43.174  58.022 -57.933  1.00  0.00     0.027 A 
HETATM   22  C   UNL     1     -42.867  59.094 -57.105  1.00  0.00     0.004 A 
HETATM   23  C   UNL     1     -42.382  58.854 -55.823  1.00  0.00     0.030 A 
ENDBRANCH   1  17
BRANCH   3  24
HETATM   24  C   UNL     1     -44.735  57.602 -51.593  1.00  0.00     0.141 C 
BRANCH  24  25
HETATM   25  C   UNL     1     -45.234  59.020 -51.429  1.00  0.00    -0.047 A 
HETATM   26  C   UNL     1     -45.516  59.570 -50.170  1.00  0.00     0.047 A 
HETATM   27  C   UNL     1     -45.972  60.889 -50.046  1.00  0.00     0.102 A 
HETATM   28  C   UNL     1     -46.116  61.687 -51.198  1.00  0.00     0.101 A 
HETATM   29  C   UNL     1     -45.802  61.150 -52.450  1.00  0.00     0.040 A 
HETATM   30  C   UNL     1     -45.362  59.830 -52.563  1.00  0.00     0.010 A 
BRANCH  27  31
HETATM   31  O   UNL     1     -46.290  61.486 -48.851  1.00  0.00    -0.353 OA
HETATM   32  C   UNL     1     -45.438  61.223 -47.743  1.00  0.00     0.210 C 
ENDBRANCH  27  31
BRANCH  28  33
HETATM   33  O   UNL     1     -46.562  62.970 -50.998  1.00  0.00    -0.353 OA
HETATM   34  C   UNL     1     -45.666  64.031 -51.292  1.00  0.00     0.210 C 
ENDBRANCH  28  33
ENDBRANCH  24  25
ENDBRANCH   3  24
TORSDOF 5
ENDMDL
MODEL 3
REMARK VINA RESULT:      -8.7      0.752      1.544
REMARK  5 active torsions:
REMARK  status: ('A' for Active; 'I' for Inactive)
REMARK    1  A    between atoms: C_4  and  C_5 
REMARK       I    between atoms: N_6  and  C_7 
REMARK    2  A    between atoms: C_7  and  C_8 
REMARK    3  A    between atoms: C_8  and  C_9 
REMARK    4  A    between atoms: C_11  and  O_12 
REMARK    5  A    between atoms: C_14  and  O_15 
ROOT
HETATM    1  C   UNL     1     -43.923  56.787 -52.775  1.00  0.00     0.189 C 
HETATM    2  N   UNL     1     -43.585  56.350 -54.157  1.00  0.00    -0.336 N 
HETATM    3  C   UNL     1     -42.595  57.027 -54.874  1.00  0.00     0.225 C 
HETATM    4  O   UNL     1     -42.020  58.034 -54.457  1.00  0.00    -0.273 OA
HETATM    5  C   UNL     1     -43.787  54.899 -54.350  1.00  0.00     0.132 C 
HETATM    6  C   UNL     1     -42.755  54.083 -53.533  1.00  0.00     0.061 C 
HETATM    7  C   UNL     1     -42.525  54.714 -52.194  1.00  0.00    -0.019 A 
HETATM    8  C   UNL     1     -43.043  55.959 -51.867  1.00  0.00     0.046 A 
HETATM    9  N   UNL     1     -42.677  56.236 -50.578  1.00  0.00    -0.356 N 
HETATM   10  H   UNL     1     -42.939  57.061 -50.053  1.00  0.00     0.166 HD
HETATM   11  C   UNL     1     -41.850  55.239 -50.101  1.00  0.00     0.043 A 
HETATM   12  C   UNL     1     -41.752  54.262 -51.095  1.00  0.00    -0.001 A 
HETATM   13  C   UNL     1     -41.184  55.129 -48.875  1.00  0.00     0.030 A 
HETATM   14  C   UNL     1     -40.400  53.991 -48.661  1.00  0.00     0.002 A 
HETATM   15  C   UNL     1     -40.291  52.998 -49.632  1.00  0.00     0.001 A 
HETATM   16  C   UNL     1     -40.964  53.120 -50.853  1.00  0.00     0.014 A 
ENDROOT
BRANCH   1  17
HETATM   17  C   UNL     1     -44.092  58.283 -52.518  1.00  0.00     0.063 A 
HETATM   18  N   UNL     1     -43.194  58.845 -51.656  1.00  0.00    -0.256 NA
HETATM   19  C   UNL     1     -43.296  60.166 -51.378  1.00  0.00     0.031 A 
HETATM   20  C   UNL     1     -42.319  60.740 -50.397  1.00  0.00     0.070 C 
HETATM   21  C   UNL     1     -44.264  60.979 -51.956  1.00  0.00     0.027 A 
HETATM   22  C   UNL     1     -45.172  60.408 -52.837  1.00  0.00     0.004 A 
HETATM   23  C   UNL     1     -45.092  59.047 -53.118  1.00  0.00     0.030 A 
ENDBRANCH   1  17
BRANCH   3  24
HETATM   24  C   UNL     1     -42.191  56.485 -56.240  1.00  0.00     0.141 C 
BRANCH  24  25
HETATM   25  C   UNL     1     -43.205  56.646 -57.349  1.00  0.00    -0.047 A 
HETATM   26  C   UNL     1     -44.023  57.781 -57.453  1.00  0.00     0.047 A 
HETATM   27  C   UNL     1     -44.951  57.908 -58.495  1.00  0.00     0.102 A 
HETATM   28  C   UNL     1     -45.041  56.898 -59.473  1.00  0.00     0.101 A 
HETATM   29  C   UNL     1     -44.204  55.782 -59.390  1.00  0.00     0.040 A 
HETATM   30  C   UNL     1     -43.292  55.660 -58.339  1.00  0.00     0.010 A 
BRANCH  27  31
HETATM   31  O   UNL     1     -45.799  58.977 -58.647  1.00  0.00    -0.353 OA
HETATM   32  C   UNL     1     -46.947  59.024 -57.809  1.00  0.00     0.210 C 
ENDBRANCH  27  31
BRANCH  28  33
HETATM   33  O   UNL     1     -45.970  57.095 -60.466  1.00  0.00    -0.353 OA
HETATM   34  C   UNL     1     -47.086  56.218 -60.503  1.00  0.00     0.210 C 
ENDBRANCH  28  33
ENDBRANCH  24  25
ENDBRANCH   3  24
TORSDOF 5
ENDMDL
MODEL 4
REMARK VINA RESULT:      -8.5      2.740      6.255
REMARK  5 active torsions:
REMARK  status: ('A' for Active; 'I' for Inactive)
REMARK    1  A    between atoms: C_4  and  C_5 
REMARK       I    between atoms: N_6  and  C_7 
REMARK    2  A    between atoms: C_7  and  C_8 
REMARK    3  A    between atoms: C_8  and  C_9 
REMARK    4  A    between atoms: C_11  and  O_12 
REMARK    5  A    between atoms: C_14  and  O_15 
ROOT
HETATM    1  C   UNL     1     -41.290  55.786 -54.134  1.00  0.00     0.189 C 
HETATM    2  N   UNL     1     -41.950  56.336 -52.919  1.00  0.00    -0.336 N 
HETATM    3  C   UNL     1     -43.332  56.203 -52.763  1.00  0.00     0.225 C 
HETATM    4  O   UNL     1     -44.071  55.714 -53.618  1.00  0.00    -0.273 OA
HETATM    5  C   UNL     1     -41.059  56.316 -51.740  1.00  0.00     0.132 C 
HETATM    6  C   UNL     1     -40.783  54.863 -51.280  1.00  0.00     0.061 C 
HETATM    7  C   UNL     1     -40.609  53.960 -52.463  1.00  0.00    -0.019 A 
HETATM    8  C   UNL     1     -40.867  54.383 -53.759  1.00  0.00     0.046 A 
HETATM    9  N   UNL     1     -40.591  53.341 -54.600  1.00  0.00    -0.356 N 
HETATM   10  H   UNL     1     -40.652  53.363 -55.610  1.00  0.00     0.166 HD
HETATM   11  C   UNL     1     -40.257  52.221 -53.865  1.00  0.00     0.043 A 
HETATM   12  C   UNL     1     -40.247  52.590 -52.517  1.00  0.00    -0.001 A 
HETATM   13  C   UNL     1     -39.966  50.918 -54.287  1.00  0.00     0.030 A 
HETATM   14  C   UNL     1     -39.657  49.971 -53.305  1.00  0.00     0.002 A 
HETATM   15  C   UNL     1     -39.632  50.315 -51.955  1.00  0.00     0.001 A 
HETATM   16  C   UNL     1     -39.923  51.621 -51.548  1.00  0.00     0.014 A 
ENDROOT
BRANCH   1  17
HETATM   17  C   UNL     1     -41.947  56.047 -55.488  1.00  0.00     0.063 A 
HETATM   18  N   UNL     1     -41.996  57.353 -55.884  1.00  0.00    -0.256 NA
HETATM   19  C   UNL     1     -42.576  57.652 -57.071  1.00  0.00     0.031 A 
HETATM   20  C   UNL     1     -42.648  59.099 -57.456  1.00  0.00     0.070 C 
HETATM   21  C   UNL     1     -43.102  56.680 -57.912  1.00  0.00     0.027 A 
HETATM   22  C   UNL     1     -43.046  55.352 -57.510  1.00  0.00     0.004 A 
HETATM   23  C   UNL     1     -42.470  55.030 -56.285  1.00  0.00     0.030 A 
ENDBRANCH   1  17
BRANCH   3  24
HETATM   24  C   UNL     1     -43.961  56.674 -51.456  1.00  0.00     0.141 C 
BRANCH  24  25
HETATM   25  C   UNL     1     -44.328  58.139 -51.381  1.00  0.00    -0.047 A 
HETATM   26  C   UNL     1     -43.528  59.138 -51.956  1.00  0.00     0.047 A 
HETATM   27  C   UNL     1     -43.894  60.488 -51.876  1.00  0.00     0.102 A 
HETATM   28  C   UNL     1     -45.100  60.846 -51.243  1.00  0.00     0.101 A 
HETATM   29  C   UNL     1     -45.915  59.848 -50.700  1.00  0.00     0.040 A 
HETATM   30  C   UNL     1     -45.533  58.507 -50.773  1.00  0.00     0.010 A 
BRANCH  27  31
HETATM   31  O   UNL     1     -43.150  61.520 -52.393  1.00  0.00    -0.353 OA
HETATM   32  C   UNL     1     -42.825  61.462 -53.776  1.00  0.00     0.210 C 
ENDBRANCH  27  31
BRANCH  28  33
HETATM   33  O   UNL     1     -45.395  62.187 -51.209  1.00  0.00    -0.353 OA
HETATM   34  C   UNL     1     -46.764  62.560 -51.234  1.00  0.00     0.210 C 
ENDBRANCH  28  33
ENDBRANCH  24  25
ENDBRANCH   3  24
TORSDOF 5
ENDMDL
MODEL 5
REMARK VINA RESULT:      -8.3      2.608      6.376
REMARK  5 active torsions:
REMARK  status: ('A' for Active; 'I' for Inactive)
REMARK    1  A    between atoms: C_4  and  C_5 
REMARK       I    between atoms: N_6  and  C_7 
REMARK    2  A    between atoms: C_7  and  C_8 
REMARK    3  A    between atoms: C_8  and  C_9 
REMARK    4  A    between atoms: C_11  and  O_12 
REMARK    5  A    between atoms: C_14  and  O_15 
ROOT
HETATM    1  C   UNL     1     -41.829  57.370 -54.215  1.00  0.00     0.189 C 
HETATM    2  N   UNL     1     -42.672  57.764 -53.053  1.00  0.00    -0.336 N 
HETATM    3  C   UNL     1     -44.042  57.497 -53.071  1.00  0.00     0.225 C 
HETATM    4  O   UNL     1     -44.629  57.010 -54.039  1.00  0.00    -0.273 OA
HETATM    5  C   UNL     1     -41.920  57.734 -51.780  1.00  0.00     0.132 C 
HETATM    6  C   UNL     1     -41.557  56.281 -51.387  1.00  0.00     0.061 C 
HETATM    7  C   UNL     1     -41.164  55.490 -52.597  1.00  0.00    -0.019 A 
HETATM    8  C   UNL     1     -41.315  55.987 -53.884  1.00  0.00     0.046 A 
HETATM    9  N   UNL     1     -40.846  55.040 -54.754  1.00  0.00    -0.356 N 
HETATM   10  H   UNL     1     -40.795  55.134 -55.760  1.00  0.00     0.166 HD
HETATM   11  C   UNL     1     -40.488  53.902 -54.059  1.00  0.00     0.043 A 
HETATM   12  C   UNL     1     -40.665  54.166 -52.699  1.00  0.00    -0.001 A 
HETATM   13  C   UNL     1     -40.026  52.667 -54.528  1.00  0.00     0.030 A 
HETATM   14  C   UNL     1     -39.738  51.678 -53.581  1.00  0.00     0.002 A 
HETATM   15  C   UNL     1     -39.899  51.918 -52.218  1.00  0.00     0.001 A 
HETATM   16  C   UNL     1     -40.359  53.159 -51.763  1.00  0.00     0.014 A 
ENDROOT
BRANCH   1  17
HETATM   17  C   UNL     1     -42.353  57.675 -55.616  1.00  0.00     0.063 A 
HETATM   18  N   UNL     1     -42.639  56.590 -56.395  1.00  0.00    -0.256 NA
HETATM   19  C   UNL     1     -43.097  56.794 -57.653  1.00  0.00     0.031 A 
HETATM   20  C   UNL     1     -43.362  55.581 -58.493  1.00  0.00     0.070 C 
HETATM   21  C   UNL     1     -43.313  58.063 -58.173  1.00  0.00     0.027 A 
HETATM   22  C   UNL     1     -43.028  59.165 -57.378  1.00  0.00     0.004 A 
HETATM   23  C   UNL     1     -42.537  58.973 -56.090  1.00  0.00     0.030 A 
ENDBRANCH   1  17
BRANCH   3  24
HETATM   24  C   UNL     1     -44.857  57.808 -51.820  1.00  0.00     0.141 C 
BRANCH  24  25
HETATM   25  C   UNL     1     -45.214  59.260 -51.599  1.00  0.00    -0.047 A 
HETATM   26  C   UNL     1     -45.389  60.155 -52.665  1.00  0.00     0.047 A 
HETATM   27  C   UNL     1     -45.725  61.495 -52.432  1.00  0.00     0.102 A 
HETATM   28  C   UNL     1     -45.925  61.944 -51.112  1.00  0.00     0.101 A 
HETATM   29  C   UNL     1     -45.784  61.044 -50.051  1.00  0.00     0.040 A 
HETATM   30  C   UNL     1     -45.435  59.714 -50.294  1.00  0.00     0.010 A 
BRANCH  27  31
HETATM   31  O   UNL     1     -45.889  62.432 -53.423  1.00  0.00    -0.353 OA
HETATM   32  C   UNL     1     -46.910  62.194 -54.384  1.00  0.00     0.210 C 
ENDBRANCH  27  31
BRANCH  28  33
HETATM   33  O   UNL     1     -46.257  63.268 -50.963  1.00  0.00    -0.353 OA
HETATM   34  C   UNL     1     -45.319  64.111 -50.312  1.00  0.00     0.210 C 
ENDBRANCH  28  33
ENDBRANCH  24  25
ENDBRANCH   3  24
TORSDOF 5
ENDMDL
MODEL 6
REMARK VINA RESULT:      -8.3      2.958      7.705
REMARK  5 active torsions:
REMARK  status: ('A' for Active; 'I' for Inactive)
REMARK    1  A    between atoms: C_4  and  C_5 
REMARK       I    between atoms: N_6  and  C_7 
REMARK    2  A    between atoms: C_7  and  C_8 
REMARK    3  A    between atoms: C_8  and  C_9 
REMARK    4  A    between atoms: C_11  and  O_12 
REMARK    5  A    between atoms: C_14  and  O_15 
ROOT
HETATM    1  C   UNL     1     -41.909  58.484 -54.194  1.00  0.00     0.189 C 
HETATM    2  N   UNL     1     -42.047  57.017 -54.402  1.00  0.00    -0.336 N 
HETATM    3  C   UNL     1     -42.718  56.244 -53.452  1.00  0.00     0.225 C 
HETATM    4  O   UNL     1     -43.152  56.693 -52.390  1.00  0.00    -0.273 OA
HETATM    5  C   UNL     1     -42.105  56.658 -55.835  1.00  0.00     0.132 C 
HETATM    6  C   UNL     1     -43.421  57.161 -56.478  1.00  0.00     0.061 C 
HETATM    7  C   UNL     1     -43.781  58.516 -55.951  1.00  0.00    -0.019 A 
HETATM    8  C   UNL     1     -43.100  59.100 -54.892  1.00  0.00     0.046 A 
HETATM    9  N   UNL     1     -43.651  60.333 -54.673  1.00  0.00    -0.356 N 
HETATM   10  H   UNL     1     -43.340  61.007 -53.985  1.00  0.00     0.166 HD
HETATM   11  C   UNL     1     -44.739  60.514 -55.502  1.00  0.00     0.043 A 
HETATM   12  C   UNL     1     -44.832  59.390 -56.327  1.00  0.00    -0.001 A 
HETATM   13  C   UNL     1     -45.644  61.580 -55.585  1.00  0.00     0.030 A 
HETATM   14  C   UNL     1     -46.667  61.492 -56.535  1.00  0.00     0.002 A 
HETATM   15  C   UNL     1     -46.777  60.386 -57.374  1.00  0.00     0.001 A 
HETATM   16  C   UNL     1     -45.865  59.329 -57.282  1.00  0.00     0.014 A 
ENDROOT
BRANCH   1  17
HETATM   17  C   UNL     1     -41.499  58.976 -52.807  1.00  0.00     0.063 A 
HETATM   18  N   UNL     1     -42.433  59.711 -52.135  1.00  0.00    -0.256 NA
HETATM   19  C   UNL     1     -42.126  60.185 -50.904  1.00  0.00     0.031 A 
HETATM   20  C   UNL     1     -43.160  61.022 -50.213  1.00  0.00     0.070 C 
HETATM   21  C   UNL     1     -40.907  59.931 -50.288  1.00  0.00     0.027 A 
HETATM   22  C   UNL     1     -39.961  59.178 -50.970  1.00  0.00     0.004 A 
HETATM   23  C   UNL     1     -40.254  58.700 -52.244  1.00  0.00     0.030 A 
ENDBRANCH   1  17
BRANCH   3  24
HETATM   24  C   UNL     1     -42.943  54.765 -53.749  1.00  0.00     0.141 C 
BRANCH  24  25
HETATM   25  C   UNL     1     -41.906  53.809 -53.205  1.00  0.00    -0.047 A 
HETATM   26  C   UNL     1     -41.581  53.759 -51.841  1.00  0.00     0.047 A 
HETATM   27  C   UNL     1     -40.620  52.859 -51.362  1.00  0.00     0.102 A 
HETATM   28  C   UNL     1     -39.996  51.966 -52.256  1.00  0.00     0.101 A 
HETATM   29  C   UNL     1     -40.344  51.993 -53.609  1.00  0.00     0.040 A 
HETATM   30  C   UNL     1     -41.293  52.903 -54.077  1.00  0.00     0.010 A 
BRANCH  27  31
HETATM   31  O   UNL     1     -40.235  52.770 -50.047  1.00  0.00    -0.353 OA
HETATM   32  C   UNL     1     -40.022  53.988 -49.345  1.00  0.00     0.210 C 
ENDBRANCH  27  31
BRANCH  28  33
HETATM   33  O   UNL     1     -39.069  51.111 -51.713  1.00  0.00    -0.353 OA
HETATM   34  C   UNL     1     -39.485  49.782 -51.436  1.00  0.00     0.210 C 
ENDBRANCH  28  33
ENDBRANCH  24  25
ENDBRANCH   3  24
TORSDOF 5
ENDMDL
MODEL 7
REMARK VINA RESULT:      -8.3      1.743      2.272
REMARK  5 active torsions:
REMARK  status: ('A' for Active; 'I' for Inactive)
REMARK    1  A    between atoms: C_4  and  C_5 
REMARK       I    between atoms: N_6  and  C_7 
REMARK    2  A    between atoms: C_7  and  C_8 
REMARK    3  A    between atoms: C_8  and  C_9 
REMARK    4  A    between atoms: C_11  and  O_12 
REMARK    5  A    between atoms: C_14  and  O_15 
ROOT
HETATM    1  C   UNL     1     -43.246  56.203 -53.306  1.00  0.00     0.189 C 
HETATM    2  N   UNL     1     -43.360  56.375 -54.780  1.00  0.00    -0.336 N 
HETATM    3  C   UNL     1     -42.503  57.258 -55.441  1.00  0.00     0.225 C 
HETATM    4  O   UNL     1     -41.688  57.978 -54.863  1.00  0.00    -0.273 OA
HETATM    5  C   UNL     1     -43.830  55.144 -55.452  1.00  0.00     0.132 C 
HETATM    6  C   UNL     1     -42.758  54.029 -55.378  1.00  0.00     0.061 C 
HETATM    7  C   UNL     1     -42.085  54.034 -54.040  1.00  0.00    -0.019 A 
HETATM    8  C   UNL     1     -42.296  55.043 -53.111  1.00  0.00     0.046 A 
HETATM    9  N   UNL     1     -41.562  54.743 -51.995  1.00  0.00    -0.356 N 
HETATM   10  H   UNL     1     -41.543  55.279 -51.138  1.00  0.00     0.166 HD
HETATM   11  C   UNL     1     -40.804  53.612 -52.224  1.00  0.00     0.043 A 
HETATM   12  C   UNL     1     -41.127  53.139 -53.499  1.00  0.00    -0.001 A 
HETATM   13  C   UNL     1     -39.861  52.978 -51.407  1.00  0.00     0.030 A 
HETATM   14  C   UNL     1     -39.235  51.830 -51.905  1.00  0.00     0.002 A 
HETATM   15  C   UNL     1     -39.545  51.333 -53.169  1.00  0.00     0.001 A 
HETATM   16  C   UNL     1     -40.490  51.977 -53.975  1.00  0.00     0.014 A 
ENDROOT
BRANCH   1  17
HETATM   17  C   UNL     1     -43.105  57.458 -52.448  1.00  0.00     0.063 A 
HETATM   18  N   UNL     1     -41.891  57.636 -51.847  1.00  0.00    -0.256 NA
HETATM   19  C   UNL     1     -41.706  58.725 -51.064  1.00  0.00     0.031 A 
HETATM   20  C   UNL     1     -40.375  58.868 -50.389  1.00  0.00     0.070 C 
HETATM   21  C   UNL     1     -42.694  59.681 -50.867  1.00  0.00     0.027 A 
HETATM   22  C   UNL     1     -43.925  59.502 -51.483  1.00  0.00     0.004 A 
HETATM   23  C   UNL     1     -44.138  58.378 -52.276  1.00  0.00     0.030 A 
ENDBRANCH   1  17
BRANCH   3  24
HETATM   24  C   UNL     1     -42.567  57.325 -56.963  1.00  0.00     0.141 C 
BRANCH  24  25
HETATM   25  C   UNL     1     -43.792  57.987 -57.552  1.00  0.00    -0.047 A 
HETATM   26  C   UNL     1     -44.687  57.294 -58.381  1.00  0.00     0.047 A 
HETATM   27  C   UNL     1     -45.819  57.929 -58.909  1.00  0.00     0.102 A 
HETATM   28  C   UNL     1     -46.082  59.272 -58.575  1.00  0.00     0.101 A 
HETATM   29  C   UNL     1     -45.209  59.953 -57.722  1.00  0.00     0.040 A 
HETATM   30  C   UNL     1     -44.077  59.314 -57.213  1.00  0.00     0.010 A 
BRANCH  27  31
HETATM   31  O   UNL     1     -46.725  57.323 -59.744  1.00  0.00    -0.353 OA
HETATM   32  C   UNL     1     -46.387  56.037 -60.249  1.00  0.00     0.210 C 
ENDBRANCH  27  31
BRANCH  28  33
HETATM   33  O   UNL     1     -47.212  59.826 -59.126  1.00  0.00    -0.353 OA
HETATM   34  C   UNL     1     -48.279  60.151 -58.248  1.00  0.00     0.210 C 
ENDBRANCH  28  33
ENDBRANCH  24  25
ENDBRANCH   3  24
TORSDOF 5
ENDMDL
MODEL 8
REMARK VINA RESULT:      -8.1      2.583      3.419
REMARK  5 active torsions:
REMARK  status: ('A' for Active; 'I' for Inactive)
REMARK    1  A    between atoms: C_4  and  C_5 
REMARK       I    between atoms: N_6  and  C_7 
REMARK    2  A    between atoms: C_7  and  C_8 
REMARK    3  A    between atoms: C_8  and  C_9 
REMARK    4  A    between atoms: C_11  and  O_12 
REMARK    5  A    between atoms: C_14  and  O_15 
ROOT
HETATM    1  C   UNL     1     -42.981  56.460 -53.062  1.00  0.00     0.189 C 
HETATM    2  N   UNL     1     -43.183  56.650 -54.525  1.00  0.00    -0.336 N 
HETATM    3  C   UNL     1     -42.307  57.466 -55.244  1.00  0.00     0.225 C 
HETATM    4  O   UNL     1     -41.398  58.115 -54.724  1.00  0.00    -0.273 OA
HETATM    5  C   UNL     1     -43.797  55.466 -55.163  1.00  0.00     0.132 C 
HETATM    6  C   UNL     1     -42.815  54.267 -55.165  1.00  0.00     0.061 C 
HETATM    7  C   UNL     1     -42.052  54.209 -53.877  1.00  0.00    -0.019 A 
HETATM    8  C   UNL     1     -42.116  55.226 -52.935  1.00  0.00     0.046 A 
HETATM    9  N   UNL     1     -41.333  54.861 -51.874  1.00  0.00    -0.356 N 
HETATM   10  H   UNL     1     -41.210  55.389 -51.019  1.00  0.00     0.166 HD
HETATM   11  C   UNL     1     -40.686  53.675 -52.156  1.00  0.00     0.043 A 
HETATM   12  C   UNL     1     -41.134  53.237 -53.405  1.00  0.00    -0.001 A 
HETATM   13  C   UNL     1     -39.743  52.961 -51.407  1.00  0.00     0.030 A 
HETATM   14  C   UNL     1     -39.248  51.771 -51.949  1.00  0.00     0.002 A 
HETATM   15  C   UNL     1     -39.684  51.308 -53.189  1.00  0.00     0.001 A 
HETATM   16  C   UNL     1     -40.628  52.030 -53.926  1.00  0.00     0.014 A 
ENDROOT
BRANCH   1  17
HETATM   17  C   UNL     1     -42.680  57.694 -52.215  1.00  0.00     0.063 A 
HETATM   18  N   UNL     1     -41.379  57.848 -51.828  1.00  0.00    -0.256 NA
HETATM   19  C   UNL     1     -41.049  58.918 -51.066  1.00  0.00     0.031 A 
HETATM   20  C   UNL     1     -39.620  59.034 -50.626  1.00  0.00     0.070 C 
HETATM   21  C   UNL     1     -41.977  59.878 -50.683  1.00  0.00     0.027 A 
HETATM   22  C   UNL     1     -43.297  59.723 -51.082  1.00  0.00     0.004 A 
HETATM   23  C   UNL     1     -43.656  58.619 -51.850  1.00  0.00     0.030 A 
ENDBRANCH   1  17
BRANCH   3  24
HETATM   24  C   UNL     1     -42.471  57.547 -56.758  1.00  0.00     0.141 C 
BRANCH  24  25
HETATM   25  C   UNL     1     -42.782  58.915 -57.323  1.00  0.00    -0.047 A 
HETATM   26  C   UNL     1     -41.868  59.614 -58.126  1.00  0.00     0.047 A 
HETATM   27  C   UNL     1     -42.185  60.878 -58.642  1.00  0.00     0.102 A 
HETATM   28  C   UNL     1     -43.450  61.440 -58.381  1.00  0.00     0.101 A 
HETATM   29  C   UNL     1     -44.373  60.729 -57.609  1.00  0.00     0.040 A 
HETATM   30  C   UNL     1     -44.042  59.476 -57.089  1.00  0.00     0.010 A 
BRANCH  27  31
HETATM   31  O   UNL     1     -41.334  61.630 -59.415  1.00  0.00    -0.353 OA
HETATM   32  C   UNL     1     -40.257  62.282 -58.754  1.00  0.00     0.210 C 
ENDBRANCH  27  31
BRANCH  28  33
HETATM   33  O   UNL     1     -43.689  62.678 -58.925  1.00  0.00    -0.353 OA
HETATM   34  C   UNL     1     -43.962  63.747 -58.030  1.00  0.00     0.210 C 
ENDBRANCH  28  33
ENDBRANCH  24  25
ENDBRANCH   3  24
TORSDOF 5
ENDMDL
MODEL 9
REMARK VINA RESULT:      -7.8      2.552      7.986
REMARK  5 active torsions:
REMARK  status: ('A' for Active; 'I' for Inactive)
REMARK    1  A    between atoms: C_4  and  C_5 
REMARK       I    between atoms: N_6  and  C_7 
REMARK    2  A    between atoms: C_7  and  C_8 
REMARK    3  A    between atoms: C_8  and  C_9 
REMARK    4  A    between atoms: C_11  and  O_12 
REMARK    5  A    between atoms: C_14  and  O_15 
ROOT
HETATM    1  C   UNL     1     -43.097  57.965 -56.461  1.00  0.00     0.189 C 
HETATM    2  N   UNL     1     -42.890  56.620 -55.856  1.00  0.00    -0.336 N 
HETATM    3  C   UNL     1     -43.681  56.217 -54.778  1.00  0.00     0.225 C 
HETATM    4  O   UNL     1     -44.511  56.945 -54.232  1.00  0.00    -0.273 OA
HETATM    5  C   UNL     1     -42.411  55.631 -56.845  1.00  0.00     0.132 C 
HETATM    6  C   UNL     1     -43.514  55.308 -57.883  1.00  0.00     0.061 C 
HETATM    7  C   UNL     1     -44.267  56.549 -58.255  1.00  0.00    -0.019 A 
HETATM    8  C   UNL     1     -44.087  57.750 -57.584  1.00  0.00     0.046 A 
HETATM    9  N   UNL     1     -44.895  58.683 -58.175  1.00  0.00    -0.356 N 
HETATM   10  H   UNL     1     -44.953  59.661 -57.923  1.00  0.00     0.166 HD
HETATM   11  C   UNL     1     -45.667  58.083 -59.149  1.00  0.00     0.043 A 
HETATM   12  C   UNL     1     -45.279  56.743 -59.229  1.00  0.00    -0.001 A 
HETATM   13  C   UNL     1     -46.673  58.620 -59.961  1.00  0.00     0.030 A 
HETATM   14  C   UNL     1     -47.297  57.765 -60.876  1.00  0.00     0.002 A 
HETATM   15  C   UNL     1     -46.924  56.427 -60.980  1.00  0.00     0.001 A 
HETATM   16  C   UNL     1     -45.915  55.904 -60.164  1.00  0.00     0.014 A 
ENDROOT
BRANCH   1  17
HETATM   17  C   UNL     1     -43.259  59.156 -55.519  1.00  0.00     0.063 A 
HETATM   18  N   UNL     1     -44.481  59.765 -55.531  1.00  0.00    -0.256 NA
HETATM   19  C   UNL     1     -44.684  60.834 -54.726  1.00  0.00     0.031 A 
HETATM   20  C   UNL     1     -46.025  61.502 -54.794  1.00  0.00     0.070 C 
HETATM   21  C   UNL     1     -43.706  61.322 -53.869  1.00  0.00     0.027 A 
HETATM   22  C   UNL     1     -42.465  60.698 -53.853  1.00  0.00     0.004 A 
HETATM   23  C   UNL     1     -42.234  59.609 -54.690  1.00  0.00     0.030 A 
ENDBRANCH   1  17
BRANCH   3  24
HETATM   24  C   UNL     1     -43.524  54.793 -54.257  1.00  0.00     0.141 C 
BRANCH  24  25
HETATM   25  C   UNL     1     -42.552  54.604 -53.114  1.00  0.00    -0.047 A 
HETATM   26  C   UNL     1     -41.559  53.613 -53.136  1.00  0.00     0.047 A 
HETATM   27  C   UNL     1     -40.668  53.464 -52.065  1.00  0.00     0.102 A 
HETATM   28  C   UNL     1     -40.745  54.343 -50.967  1.00  0.00     0.101 A 
HETATM   29  C   UNL     1     -41.713  55.352 -50.960  1.00  0.00     0.040 A 
HETATM   30  C   UNL     1     -42.604  55.483 -52.026  1.00  0.00     0.010 A 
BRANCH  27  31
HETATM   31  O   UNL     1     -39.688  52.504 -52.006  1.00  0.00    -0.353 OA
HETATM   32  C   UNL     1     -39.683  51.513 -53.026  1.00  0.00     0.210 C 
ENDBRANCH  27  31
BRANCH  28  33
HETATM   33  O   UNL     1     -39.835  54.137 -49.959  1.00  0.00    -0.353 OA
HETATM   34  C   UNL     1     -40.343  53.903 -48.653  1.00  0.00     0.210 C 
ENDBRANCH  28  33
ENDBRANCH  24  25
ENDBRANCH   3  24
TORSDOF 5
ENDMDL
MODEL 10
REMARK VINA RESULT:      -7.7      2.135      5.414
REMARK  5 active torsions:
REMARK  status: ('A' for Active; 'I' for Inactive)
REMARK    1  A    between atoms: C_4  and  C_5 
REMARK       I    between atoms: N_6  and  C_7 
REMARK    2  A    between atoms: C_7  and  C_8 
REMARK    3  A    between atoms: C_8  and  C_9 
REMARK    4  A    between atoms: C_11  and  O_12 
REMARK    5  A    between atoms: C_14  and  O_15 
ROOT
HETATM    1  C   UNL     1     -41.990  57.539 -54.403  1.00  0.00     0.189 C 
HETATM    2  N   UNL     1     -42.011  57.701 -55.882  1.00  0.00    -0.336 N 
HETATM    3  C   UNL     1     -42.723  56.792 -56.668  1.00  0.00     0.225 C 
HETATM    4  O   UNL     1     -43.289  55.796 -56.214  1.00  0.00    -0.273 OA
HETATM    5  C   UNL     1     -41.902  59.118 -56.291  1.00  0.00     0.132 C 
HETATM    6  C   UNL     1     -43.176  59.906 -55.900  1.00  0.00     0.061 C 
HETATM    7  C   UNL     1     -43.675  59.471 -54.556  1.00  0.00    -0.019 A 
HETATM    8  C   UNL     1     -43.143  58.374 -53.892  1.00  0.00     0.046 A 
HETATM    9  N   UNL     1     -43.792  58.258 -52.693  1.00  0.00    -0.356 N 
HETATM   10  H   UNL     1     -43.595  57.570 -51.978  1.00  0.00     0.166 HD
HETATM   11  C   UNL     1     -44.801  59.197 -52.615  1.00  0.00     0.043 A 
HETATM   12  C   UNL     1     -44.737  59.982 -53.769  1.00  0.00    -0.001 A 
HETATM   13  C   UNL     1     -45.760  59.410 -51.617  1.00  0.00     0.030 A 
HETATM   14  C   UNL     1     -46.674  60.451 -51.805  1.00  0.00     0.002 A 
HETATM   15  C   UNL     1     -46.628  61.253 -52.943  1.00  0.00     0.001 A 
HETATM   16  C   UNL     1     -45.663  61.031 -53.932  1.00  0.00     0.014 A 
ENDROOT
BRANCH   1  17
HETATM   17  C   UNL     1     -41.754  56.139 -53.839  1.00  0.00     0.063 A 
HETATM   18  N   UNL     1     -42.696  55.683 -52.961  1.00  0.00    -0.256 NA
HETATM   19  C   UNL     1     -42.538  54.453 -52.418  1.00  0.00     0.031 A 
HETATM   20  C   UNL     1     -43.569  54.001 -51.427  1.00  0.00     0.070 C 
HETATM   21  C   UNL     1     -41.469  53.626 -52.738  1.00  0.00     0.027 A 
HETATM   22  C   UNL     1     -40.516  54.088 -53.636  1.00  0.00     0.004 A 
HETATM   23  C   UNL     1     -40.654  55.358 -54.188  1.00  0.00     0.030 A 
ENDBRANCH   1  17
BRANCH   3  24
HETATM   24  C   UNL     1     -42.821  57.051 -58.167  1.00  0.00     0.141 C 
BRANCH  24  25
HETATM   25  C   UNL     1     -44.181  56.841 -58.794  1.00  0.00    -0.047 A 
HETATM   26  C   UNL     1     -45.221  57.771 -58.646  1.00  0.00     0.047 A 
HETATM   27  C   UNL     1     -46.470  57.554 -59.243  1.00  0.00     0.102 A 
HETATM   28  C   UNL     1     -46.675  56.405 -60.032  1.00  0.00     0.101 A 
HETATM   29  C   UNL     1     -45.628  55.496 -60.208  1.00  0.00     0.040 A 
HETATM   30  C   UNL     1     -44.392  55.715 -59.597  1.00  0.00     0.010 A 
BRANCH  27  31
HETATM   31  O   UNL     1     -47.541  58.406 -59.122  1.00  0.00    -0.353 OA
HETATM   32  C   UNL     1     -47.303  59.670 -58.517  1.00  0.00     0.210 C 
ENDBRANCH  27  31
BRANCH  28  33
HETATM   33  O   UNL     1     -47.922  56.264 -60.588  1.00  0.00    -0.353 OA
HETATM   34  C   UNL     1     -48.083  56.645 -61.947  1.00  0.00     0.210 C 
ENDBRANCH  28  33
ENDBRANCH  24  25
ENDBRANCH   3  24
TORSDOF 5
ENDMDL
