MODEL 1
REMARK VINA RESULT:      -7.9      0.000      0.000
REMARK  7 active torsions:
REMARK  status: ('A' for Active; 'I' for Inactive)
REMARK    1  A    between atoms: N_3  and  C_4 
REMARK    2  A    between atoms: C_12  and  C_13 
REMARK       I    between atoms: C_13  and  N_14 
REMARK    3  A    between atoms: N_14  and  C_15 
REMARK    4  A    between atoms: C_15  and  C_16 
REMARK    5  A    between atoms: C_16  and  O_17 
REMARK    6  A    between atoms: C_16  and  C_18 
REMARK    7  A    between atoms: C_21  and  O_22 
ROOT
HETATM    1  C   UNL     1     -43.510  56.748 -52.645  1.00  0.00     0.255 C 
HETATM    2  N   UNL     1     -43.618  55.455 -52.197  1.00  0.00    -0.350 N 
HETATM    3  O   UNL     1     -43.261  57.682 -51.888  1.00  0.00    -0.268 OA
HETATM    4  H   UNL     1     -43.626  54.702 -52.872  1.00  0.00     0.163 HD
ENDROOT
BRANCH   2   5
HETATM    5  C   UNL     1     -43.418  55.079 -50.797  1.00  0.00     0.114 C 
HETATM    6  C   UNL     1     -44.216  53.810 -50.469  1.00  0.00     0.035 C 
BRANCH   5   7
HETATM    7  C   UNL     1     -41.903  54.876 -50.481  1.00  0.00     0.173 C 
BRANCH   7   8
HETATM    8  O   UNL     1     -41.753  54.617 -49.075  1.00  0.00    -0.389 OA
HETATM    9  H   UNL     1     -40.879  54.212 -48.947  1.00  0.00     0.210 HD
ENDBRANCH   7   8
BRANCH   7  10
HETATM   10  C   UNL     1     -41.210  53.760 -51.256  1.00  0.00    -0.028 A 
HETATM   11  C   UNL     1     -41.133  53.765 -52.656  1.00  0.00     0.012 A 
HETATM   12  C   UNL     1     -40.461  52.746 -53.342  1.00  0.00     0.037 A 
HETATM   13  C   UNL     1     -39.835  51.708 -52.652  1.00  0.00     0.068 A 
HETATM   14  C   UNL     1     -39.885  51.698 -51.262  1.00  0.00     0.037 A 
HETATM   15  C   UNL     1     -40.559  52.717 -50.575  1.00  0.00     0.012 A 
BRANCH  13  16
HETATM   16  O   UNL     1     -39.214  50.783 -53.443  1.00  0.00    -0.356 OA
HETATM   17  C   UNL     1     -40.038  50.052 -54.344  1.00  0.00     0.210 C 
ENDBRANCH  13  16
ENDBRANCH   7  10
ENDBRANCH   5   7
ENDBRANCH   2   5
BRANCH   1  18
HETATM   18  C   UNL     1     -43.656  56.957 -54.079  1.00  0.00     0.075 C 
HETATM   19  C   UNL     1     -42.838  56.636 -55.161  1.00  0.00     0.051 C 
HETATM   20  C   UNL     1     -41.562  55.870 -55.236  1.00  0.00     0.071 C 
HETATM   21  N   UNL     1     -43.464  57.166 -56.293  1.00  0.00    -0.220 N 
HETATM   22  N   UNL     1     -44.710  57.632 -55.996  1.00  0.00    -0.177 NA
HETATM   23  C   UNL     1     -44.798  57.532 -54.675  1.00  0.00     0.158 C 
BRANCH  21  24
HETATM   24  C   UNL     1     -42.959  57.272 -57.636  1.00  0.00     0.150 A 
HETATM   25  N   UNL     1     -42.374  58.431 -58.041  1.00  0.00    -0.241 NA
HETATM   26  C   UNL     1     -41.937  58.498 -59.319  1.00  0.00     0.119 A 
HETATM   27  C   UNL     1     -42.046  57.460 -60.227  1.00  0.00     0.019 A 
HETATM   28  C   UNL     1     -42.645  56.281 -59.806  1.00  0.00     0.005 A 
HETATM   29  C   UNL     1     -43.113  56.181 -58.497  1.00  0.00     0.052 A 
ENDBRANCH  21  24
ENDBRANCH   1  18
TORSDOF 7
ENDMDL
MODEL 2
REMARK VINA RESULT:      -7.8      2.954      7.530
REMARK  7 active torsions:
REMARK  status: ('A' for Active; 'I' for Inactive)
REMARK    1  A    between atoms: N_3  and  C_4 
REMARK    2  A    between atoms: C_12  and  C_13 
REMARK       I    between atoms: C_13  and  N_14 
REMARK    3  A    between atoms: N_14  and  C_15 
REMARK    4  A    between atoms: C_15  and  C_16 
REMARK    5  A    between atoms: C_16  and  O_17 
REMARK    6  A    between atoms: C_16  and  C_18 
REMARK    7  A    between atoms: C_21  and  O_22 
ROOT
HETATM    1  C   UNL     1     -42.410  56.895 -54.011  1.00  0.00     0.255 C 
HETATM    2  N   UNL     1     -42.013  57.908 -54.847  1.00  0.00    -0.350 N 
HETATM    3  O   UNL     1     -43.354  57.020 -53.236  1.00  0.00    -0.268 OA
HETATM    4  H   UNL     1     -41.369  57.700 -55.598  1.00  0.00     0.163 HD
ENDROOT
BRANCH   2   5
HETATM    5  C   UNL     1     -42.694  59.203 -54.906  1.00  0.00     0.114 C 
HETATM    6  C   UNL     1     -42.057  60.182 -53.910  1.00  0.00     0.035 C 
BRANCH   5   7
HETATM    7  C   UNL     1     -42.662  59.788 -56.352  1.00  0.00     0.173 C 
BRANCH   7   8
HETATM    8  O   UNL     1     -41.410  60.465 -56.551  1.00  0.00    -0.389 OA
HETATM    9  H   UNL     1     -41.578  61.418 -56.458  1.00  0.00     0.210 HD
ENDBRANCH   7   8
BRANCH   7  10
HETATM   10  C   UNL     1     -42.852  58.778 -57.479  1.00  0.00    -0.028 A 
HETATM   11  C   UNL     1     -44.036  58.042 -57.625  1.00  0.00     0.012 A 
HETATM   12  C   UNL     1     -44.199  57.146 -58.688  1.00  0.00     0.037 A 
HETATM   13  C   UNL     1     -43.195  56.974 -59.641  1.00  0.00     0.068 A 
HETATM   14  C   UNL     1     -42.021  57.712 -59.523  1.00  0.00     0.037 A 
HETATM   15  C   UNL     1     -41.858  58.607 -58.458  1.00  0.00     0.012 A 
BRANCH  13  16
HETATM   16  O   UNL     1     -43.484  56.072 -60.627  1.00  0.00    -0.356 OA
HETATM   17  C   UNL     1     -44.603  55.220 -60.407  1.00  0.00     0.210 C 
ENDBRANCH  13  16
ENDBRANCH   7  10
ENDBRANCH   5   7
ENDBRANCH   2   5
BRANCH   1  18
HETATM   18  C   UNL     1     -41.685  55.636 -54.121  1.00  0.00     0.075 C 
HETATM   19  C   UNL     1     -41.814  54.419 -53.453  1.00  0.00     0.051 C 
HETATM   20  C   UNL     1     -42.813  53.946 -52.455  1.00  0.00     0.071 C 
HETATM   21  N   UNL     1     -40.778  53.605 -53.924  1.00  0.00    -0.220 N 
HETATM   22  N   UNL     1     -40.133  54.185 -54.975  1.00  0.00    -0.177 NA
HETATM   23  C   UNL     1     -40.660  55.401 -55.061  1.00  0.00     0.158 C 
BRANCH  21  24
HETATM   24  C   UNL     1     -40.350  52.321 -53.438  1.00  0.00     0.150 A 
HETATM   25  N   UNL     1     -39.875  52.211 -52.168  1.00  0.00    -0.241 NA
HETATM   26  C   UNL     1     -39.457  50.991 -51.760  1.00  0.00     0.119 A 
HETATM   27  C   UNL     1     -39.492  49.858 -52.554  1.00  0.00     0.019 A 
HETATM   28  C   UNL     1     -39.978  49.980 -53.847  1.00  0.00     0.005 A 
HETATM   29  C   UNL     1     -40.409  51.224 -54.302  1.00  0.00     0.052 A 
ENDBRANCH  21  24
ENDBRANCH   1  18
TORSDOF 7
ENDMDL
MODEL 3
REMARK VINA RESULT:      -7.7      2.172      2.778
REMARK  7 active torsions:
REMARK  status: ('A' for Active; 'I' for Inactive)
REMARK    1  A    between atoms: N_3  and  C_4 
REMARK    2  A    between atoms: C_12  and  C_13 
REMARK       I    between atoms: C_13  and  N_14 
REMARK    3  A    between atoms: N_14  and  C_15 
REMARK    4  A    between atoms: C_15  and  C_16 
REMARK    5  A    between atoms: C_16  and  O_17 
REMARK    6  A    between atoms: C_16  and  C_18 
REMARK    7  A    between atoms: C_21  and  O_22 
ROOT
HETATM    1  C   UNL     1     -40.926  58.772 -53.350  1.00  0.00     0.255 C 
HETATM    2  N   UNL     1     -41.582  58.199 -52.289  1.00  0.00    -0.350 N 
HETATM    3  O   UNL     1     -39.771  59.178 -53.261  1.00  0.00    -0.268 OA
HETATM    4  H   UNL     1     -42.449  57.706 -52.458  1.00  0.00     0.163 HD
ENDROOT
BRANCH   2   5
HETATM    5  C   UNL     1     -40.956  57.998 -50.981  1.00  0.00     0.114 C 
HETATM    6  C   UNL     1     -41.135  59.249 -50.110  1.00  0.00     0.035 C 
BRANCH   5   7
HETATM    7  C   UNL     1     -41.540  56.739 -50.267  1.00  0.00     0.173 C 
BRANCH   7   8
HETATM    8  O   UNL     1     -42.964  56.715 -50.460  1.00  0.00    -0.389 OA
HETATM    9  H   UNL     1     -43.332  56.080 -49.823  1.00  0.00     0.210 HD
ENDBRANCH   7   8
BRANCH   7  10
HETATM   10  C   UNL     1     -40.967  55.399 -50.714  1.00  0.00    -0.028 A 
HETATM   11  C   UNL     1     -40.234  54.577 -49.845  1.00  0.00     0.012 A 
HETATM   12  C   UNL     1     -39.748  53.335 -50.271  1.00  0.00     0.037 A 
HETATM   13  C   UNL     1     -39.994  52.873 -51.564  1.00  0.00     0.068 A 
HETATM   14  C   UNL     1     -40.737  53.667 -52.432  1.00  0.00     0.037 A 
HETATM   15  C   UNL     1     -41.222  54.910 -52.007  1.00  0.00     0.012 A 
BRANCH  13  16
HETATM   16  O   UNL     1     -39.465  51.644 -51.847  1.00  0.00    -0.356 OA
HETATM   17  C   UNL     1     -39.533  51.214 -53.201  1.00  0.00     0.210 C 
ENDBRANCH  13  16
ENDBRANCH   7  10
ENDBRANCH   5   7
ENDBRANCH   2   5
BRANCH   1  18
HETATM   18  C   UNL     1     -41.652  58.832 -54.611  1.00  0.00     0.075 C 
HETATM   19  C   UNL     1     -42.065  57.843 -55.503  1.00  0.00     0.051 C 
HETATM   20  C   UNL     1     -41.994  56.357 -55.425  1.00  0.00     0.071 C 
HETATM   21  N   UNL     1     -42.644  58.512 -56.586  1.00  0.00    -0.220 N 
HETATM   22  N   UNL     1     -42.778  59.844 -56.329  1.00  0.00    -0.177 NA
HETATM   23  C   UNL     1     -42.158  60.025 -55.169  1.00  0.00     0.158 C 
BRANCH  21  24
HETATM   24  C   UNL     1     -43.069  57.979 -57.853  1.00  0.00     0.150 A 
HETATM   25  N   UNL     1     -44.348  57.539 -57.997  1.00  0.00    -0.241 NA
HETATM   26  C   UNL     1     -44.698  57.020 -59.196  1.00  0.00     0.119 A 
HETATM   27  C   UNL     1     -43.837  56.918 -60.274  1.00  0.00     0.019 A 
HETATM   28  C   UNL     1     -42.535  57.370 -60.118  1.00  0.00     0.005 A 
HETATM   29  C   UNL     1     -42.138  57.903 -58.893  1.00  0.00     0.052 A 
ENDBRANCH  21  24
ENDBRANCH   1  18
TORSDOF 7
ENDMDL
MODEL 4
REMARK VINA RESULT:      -7.6      1.897      2.343
REMARK  7 active torsions:
REMARK  status: ('A' for Active; 'I' for Inactive)
REMARK    1  A    between atoms: N_3  and  C_4 
REMARK    2  A    between atoms: C_12  and  C_13 
REMARK       I    between atoms: C_13  and  N_14 
REMARK    3  A    between atoms: N_14  and  C_15 
REMARK    4  A    between atoms: C_15  and  C_16 
REMARK    5  A    between atoms: C_16  and  O_17 
REMARK    6  A    between atoms: C_16  and  C_18 
REMARK    7  A    between atoms: C_21  and  O_22 
ROOT
HETATM    1  C   UNL     1     -41.393  56.587 -54.312  1.00  0.00     0.255 C 
HETATM    2  N   UNL     1     -42.021  56.643 -53.092  1.00  0.00    -0.350 N 
HETATM    3  O   UNL     1     -40.209  56.283 -54.424  1.00  0.00    -0.268 OA
HETATM    4  H   UNL     1     -43.030  56.703 -53.062  1.00  0.00     0.163 HD
ENDROOT
BRANCH   2   5
HETATM    5  C   UNL     1     -41.345  56.316 -51.835  1.00  0.00     0.114 C 
HETATM    6  C   UNL     1     -41.604  57.414 -50.794  1.00  0.00     0.035 C 
BRANCH   5   7
HETATM    7  C   UNL     1     -41.803  54.925 -51.296  1.00  0.00     0.173 C 
BRANCH   7   8
HETATM    8  O   UNL     1     -43.219  54.791 -51.502  1.00  0.00    -0.389 OA
HETATM    9  H   UNL     1     -43.434  55.238 -52.337  1.00  0.00     0.210 HD
ENDBRANCH   7   8
BRANCH   7  10
HETATM   10  C   UNL     1     -41.107  53.716 -51.912  1.00  0.00    -0.028 A 
HETATM   11  C   UNL     1     -41.366  53.299 -53.226  1.00  0.00     0.012 A 
HETATM   12  C   UNL     1     -40.688  52.206 -53.779  1.00  0.00     0.037 A 
HETATM   13  C   UNL     1     -39.725  51.512 -53.046  1.00  0.00     0.068 A 
HETATM   14  C   UNL     1     -39.442  51.925 -51.748  1.00  0.00     0.037 A 
HETATM   15  C   UNL     1     -40.121  53.018 -51.193  1.00  0.00     0.012 A 
BRANCH  13  16
HETATM   16  O   UNL     1     -39.139  50.469 -53.706  1.00  0.00    -0.356 OA
HETATM   17  C   UNL     1     -39.911  49.839 -54.721  1.00  0.00     0.210 C 
ENDBRANCH  13  16
ENDBRANCH   7  10
ENDBRANCH   5   7
ENDBRANCH   2   5
BRANCH   1  18
HETATM   18  C   UNL     1     -42.217  56.862 -55.482  1.00  0.00     0.075 C 
HETATM   19  C   UNL     1     -42.983  56.036 -56.302  1.00  0.00     0.051 C 
HETATM   20  C   UNL     1     -43.312  54.586 -56.207  1.00  0.00     0.071 C 
HETATM   21  N   UNL     1     -43.479  56.853 -57.323  1.00  0.00    -0.220 N 
HETATM   22  N   UNL     1     -43.215  58.167 -57.077  1.00  0.00    -0.177 NA
HETATM   23  C   UNL     1     -42.438  58.155 -55.999  1.00  0.00     0.158 C 
BRANCH  21  24
HETATM   24  C   UNL     1     -44.177  56.474 -58.523  1.00  0.00     0.150 A 
HETATM   25  N   UNL     1     -45.323  57.123 -58.863  1.00  0.00    -0.241 NA
HETATM   26  C   UNL     1     -45.962  56.718 -59.984  1.00  0.00     0.119 A 
HETATM   27  C   UNL     1     -45.515  55.692 -60.799  1.00  0.00     0.019 A 
HETATM   28  C   UNL     1     -44.345  55.036 -60.444  1.00  0.00     0.005 A 
HETATM   29  C   UNL     1     -43.666  55.424 -59.291  1.00  0.00     0.052 A 
ENDBRANCH  21  24
ENDBRANCH   1  18
TORSDOF 7
ENDMDL
MODEL 5
REMARK VINA RESULT:      -7.4      4.572      6.861
REMARK  7 active torsions:
REMARK  status: ('A' for Active; 'I' for Inactive)
REMARK    1  A    between atoms: N_3  and  C_4 
REMARK    2  A    between atoms: C_12  and  C_13 
REMARK       I    between atoms: C_13  and  N_14 
REMARK    3  A    between atoms: N_14  and  C_15 
REMARK    4  A    between atoms: C_15  and  C_16 
REMARK    5  A    between atoms: C_16  and  O_17 
REMARK    6  A    between atoms: C_16  and  C_18 
REMARK    7  A    between atoms: C_21  and  O_22 
ROOT
HETATM    1  C   UNL     1     -43.947  58.388 -52.325  1.00  0.00     0.255 C 
HETATM    2  N   UNL     1     -43.101  57.464 -51.765  1.00  0.00    -0.350 N 
HETATM    3  O   UNL     1     -44.203  58.395 -53.526  1.00  0.00    -0.268 OA
HETATM    4  H   UNL     1     -43.074  57.372 -50.758  1.00  0.00     0.163 HD
ENDROOT
BRANCH   2   5
HETATM    5  C   UNL     1     -42.461  56.400 -52.539  1.00  0.00     0.114 C 
HETATM    6  C   UNL     1     -40.989  56.748 -52.803  1.00  0.00     0.035 C 
BRANCH   5   7
HETATM    7  C   UNL     1     -42.580  55.025 -51.810  1.00  0.00     0.173 C 
BRANCH   7   8
HETATM    8  O   UNL     1     -43.946  54.581 -51.878  1.00  0.00    -0.389 OA
HETATM    9  H   UNL     1     -43.934  53.610 -51.888  1.00  0.00     0.210 HD
ENDBRANCH   7   8
BRANCH   7  10
HETATM   10  C   UNL     1     -41.682  53.914 -52.342  1.00  0.00    -0.028 A 
HETATM   11  C   UNL     1     -41.731  53.496 -53.681  1.00  0.00     0.012 A 
HETATM   12  C   UNL     1     -40.871  52.497 -54.153  1.00  0.00     0.037 A 
HETATM   13  C   UNL     1     -39.931  51.902 -53.311  1.00  0.00     0.068 A 
HETATM   14  C   UNL     1     -39.856  52.318 -51.986  1.00  0.00     0.037 A 
HETATM   15  C   UNL     1     -40.717  53.317 -51.513  1.00  0.00     0.012 A 
BRANCH  13  16
HETATM   16  O   UNL     1     -39.155  50.944 -53.901  1.00  0.00    -0.356 OA
HETATM   17  C   UNL     1     -39.823  49.785 -54.383  1.00  0.00     0.210 C 
ENDBRANCH  13  16
ENDBRANCH   7  10
ENDBRANCH   5   7
ENDBRANCH   2   5
BRANCH   1  18
HETATM   18  C   UNL     1     -44.572  59.338 -51.415  1.00  0.00     0.075 C 
HETATM   19  C   UNL     1     -44.042  60.251 -50.505  1.00  0.00     0.051 C 
HETATM   20  C   UNL     1     -42.635  60.649 -50.216  1.00  0.00     0.071 C 
HETATM   21  N   UNL     1     -45.135  60.826 -49.848  1.00  0.00    -0.220 N 
HETATM   22  N   UNL     1     -46.310  60.456 -50.429  1.00  0.00    -0.177 NA
HETATM   23  C   UNL     1     -45.964  59.549 -51.335  1.00  0.00     0.158 C 
BRANCH  21  24
HETATM   24  C   UNL     1     -45.142  61.693 -48.700  1.00  0.00     0.150 A 
HETATM   25  N   UNL     1     -45.122  63.042 -48.882  1.00  0.00    -0.241 NA
HETATM   26  C   UNL     1     -45.103  63.820 -47.776  1.00  0.00     0.119 A 
HETATM   27  C   UNL     1     -45.109  63.327 -46.484  1.00  0.00     0.019 A 
HETATM   28  C   UNL     1     -45.131  61.950 -46.309  1.00  0.00     0.005 A 
HETATM   29  C   UNL     1     -45.142  61.118 -47.427  1.00  0.00     0.052 A 
ENDBRANCH  21  24
ENDBRANCH   1  18
TORSDOF 7
ENDMDL
MODEL 6
REMARK VINA RESULT:      -7.4      2.939      7.794
REMARK  7 active torsions:
REMARK  status: ('A' for Active; 'I' for Inactive)
REMARK    1  A    between atoms: N_3  and  C_4 
REMARK    2  A    between atoms: C_12  and  C_13 
REMARK       I    between atoms: C_13  and  N_14 
REMARK    3  A    between atoms: N_14  and  C_15 
REMARK    4  A    between atoms: C_15  and  C_16 
REMARK    5  A    between atoms: C_16  and  O_17 
REMARK    6  A    between atoms: C_16  and  C_18 
REMARK    7  A    between atoms: C_21  and  O_22 
ROOT
HETATM    1  C   UNL     1     -41.590  56.745 -54.012  1.00  0.00     0.255 C 
HETATM    2  N   UNL     1     -42.397  57.121 -55.056  1.00  0.00    -0.350 N 
HETATM    3  O   UNL     1     -41.353  57.491 -53.067  1.00  0.00    -0.268 OA
HETATM    4  H   UNL     1     -42.720  56.416 -55.705  1.00  0.00     0.163 HD
ENDROOT
BRANCH   2   5
HETATM    5  C   UNL     1     -43.064  58.424 -55.116  1.00  0.00     0.114 C 
HETATM    6  C   UNL     1     -42.901  59.039 -56.512  1.00  0.00     0.035 C 
BRANCH   5   7
HETATM    7  C   UNL     1     -44.574  58.299 -54.741  1.00  0.00     0.173 C 
BRANCH   7   8
HETATM    8  O   UNL     1     -44.995  56.942 -54.956  1.00  0.00    -0.389 OA
HETATM    9  H   UNL     1     -45.722  56.763 -54.337  1.00  0.00     0.210 HD
ENDBRANCH   7   8
BRANCH   7  10
HETATM   10  C   UNL     1     -44.936  58.698 -53.314  1.00  0.00    -0.028 A 
HETATM   11  C   UNL     1     -45.563  59.918 -53.020  1.00  0.00     0.012 A 
HETATM   12  C   UNL     1     -45.917  60.245 -51.706  1.00  0.00     0.037 A 
HETATM   13  C   UNL     1     -45.671  59.361 -50.655  1.00  0.00     0.068 A 
HETATM   14  C   UNL     1     -45.067  58.139 -50.932  1.00  0.00     0.037 A 
HETATM   15  C   UNL     1     -44.712  57.811 -52.247  1.00  0.00     0.012 A 
BRANCH  13  16
HETATM   16  O   UNL     1     -46.068  59.804 -49.425  1.00  0.00    -0.356 OA
HETATM   17  C   UNL     1     -45.372  60.924 -48.891  1.00  0.00     0.210 C 
ENDBRANCH  13  16
ENDBRANCH   7  10
ENDBRANCH   5   7
ENDBRANCH   2   5
BRANCH   1  18
HETATM   18  C   UNL     1     -41.060  55.388 -54.054  1.00  0.00     0.075 C 
HETATM   19  C   UNL     1     -41.260  54.279 -53.233  1.00  0.00     0.051 C 
HETATM   20  C   UNL     1     -42.172  54.064 -52.075  1.00  0.00     0.071 C 
HETATM   21  N   UNL     1     -40.414  53.277 -53.719  1.00  0.00    -0.220 N 
HETATM   22  N   UNL     1     -39.843  53.644 -54.901  1.00  0.00    -0.177 NA
HETATM   23  C   UNL     1     -40.209  54.909 -55.071  1.00  0.00     0.158 C 
BRANCH  21  24
HETATM   24  C   UNL     1     -40.100  52.001 -53.135  1.00  0.00     0.150 A 
HETATM   25  N   UNL     1     -40.095  50.890 -53.921  1.00  0.00    -0.241 NA
HETATM   26  C   UNL     1     -39.820  49.706 -53.327  1.00  0.00     0.119 A 
HETATM   27  C   UNL     1     -39.543  49.565 -51.979  1.00  0.00     0.019 A 
HETATM   28  C   UNL     1     -39.550  50.703 -51.186  1.00  0.00     0.005 A 
HETATM   29  C   UNL     1     -39.836  51.938 -51.764  1.00  0.00     0.052 A 
ENDBRANCH  21  24
ENDBRANCH   1  18
TORSDOF 7
ENDMDL
MODEL 7
REMARK VINA RESULT:      -7.3     15.242     18.943
REMARK  7 active torsions:
REMARK  status: ('A' for Active; 'I' for Inactive)
REMARK    1  A    between atoms: N_3  and  C_4 
REMARK    2  A    between atoms: C_12  and  C_13 
REMARK       I    between atoms: C_13  and  N_14 
REMARK    3  A    between atoms: N_14  and  C_15 
REMARK    4  A    between atoms: C_15  and  C_16 
REMARK    5  A    between atoms: C_16  and  O_17 
REMARK    6  A    between atoms: C_16  and  C_18 
REMARK    7  A    between atoms: C_21  and  O_22 
ROOT
HETATM    1  C   UNL     1     -34.401  39.366 -51.553  1.00  0.00     0.255 C 
HETATM    2  N   UNL     1     -35.211  40.470 -51.643  1.00  0.00    -0.350 N 
HETATM    3  O   UNL     1     -34.573  38.372 -52.253  1.00  0.00    -0.268 OA
HETATM    4  H   UNL     1     -34.919  41.329 -51.197  1.00  0.00     0.163 HD
ENDROOT
BRANCH   2   5
HETATM    5  C   UNL     1     -36.320  40.568 -52.594  1.00  0.00     0.114 C 
HETATM    6  C   UNL     1     -37.649  40.261 -51.892  1.00  0.00     0.035 C 
BRANCH   5   7
HETATM    7  C   UNL     1     -36.362  41.976 -53.265  1.00  0.00     0.173 C 
BRANCH   7   8
HETATM    8  O   UNL     1     -35.188  42.710 -52.877  1.00  0.00    -0.389 OA
HETATM    9  H   UNL     1     -35.329  43.637 -53.130  1.00  0.00     0.210 HD
ENDBRANCH   7   8
BRANCH   7  10
HETATM   10  C   UNL     1     -36.456  41.982 -54.787  1.00  0.00    -0.028 A 
HETATM   11  C   UNL     1     -35.365  42.327 -55.598  1.00  0.00     0.012 A 
HETATM   12  C   UNL     1     -35.468  42.290 -56.994  1.00  0.00     0.037 A 
HETATM   13  C   UNL     1     -36.652  41.894 -57.616  1.00  0.00     0.068 A 
HETATM   14  C   UNL     1     -37.738  41.529 -56.826  1.00  0.00     0.037 A 
HETATM   15  C   UNL     1     -37.635  41.567 -55.430  1.00  0.00     0.012 A 
BRANCH  13  16
HETATM   16  O   UNL     1     -36.614  41.901 -58.982  1.00  0.00    -0.356 OA
HETATM   17  C   UNL     1     -37.303  40.849 -59.647  1.00  0.00     0.210 C 
ENDBRANCH  13  16
ENDBRANCH   7  10
ENDBRANCH   5   7
ENDBRANCH   2   5
BRANCH   1  18
HETATM   18  C   UNL     1     -33.290  39.446 -50.615  1.00  0.00     0.075 C 
HETATM   19  C   UNL     1     -33.173  39.104 -49.268  1.00  0.00     0.051 C 
HETATM   20  C   UNL     1     -34.126  38.436 -48.337  1.00  0.00     0.071 C 
HETATM   21  N   UNL     1     -31.887  39.491 -48.878  1.00  0.00    -0.220 N 
HETATM   22  N   UNL     1     -31.142  39.881 -49.950  1.00  0.00    -0.177 NA
HETATM   23  C   UNL     1     -31.995  39.880 -50.968  1.00  0.00     0.158 C 
BRANCH  21  24
HETATM   24  C   UNL     1     -31.319  39.527 -47.557  1.00  0.00     0.150 A 
HETATM   25  N   UNL     1     -30.524  40.572 -47.200  1.00  0.00    -0.241 NA
HETATM   26  C   UNL     1     -29.988  40.554 -45.959  1.00  0.00     0.119 A 
HETATM   27  C   UNL     1     -30.206  39.544 -45.039  1.00  0.00     0.019 A 
HETATM   28  C   UNL     1     -31.018  38.483 -45.411  1.00  0.00     0.005 A 
HETATM   29  C   UNL     1     -31.580  38.466 -46.686  1.00  0.00     0.052 A 
ENDBRANCH  21  24
ENDBRANCH   1  18
TORSDOF 7
ENDMDL
MODEL 8
REMARK VINA RESULT:      -7.3      2.612      4.207
REMARK  7 active torsions:
REMARK  status: ('A' for Active; 'I' for Inactive)
REMARK    1  A    between atoms: N_3  and  C_4 
REMARK    2  A    between atoms: C_12  and  C_13 
REMARK       I    between atoms: C_13  and  N_14 
REMARK    3  A    between atoms: N_14  and  C_15 
REMARK    4  A    between atoms: C_15  and  C_16 
REMARK    5  A    between atoms: C_16  and  O_17 
REMARK    6  A    between atoms: C_16  and  C_18 
REMARK    7  A    between atoms: C_21  and  O_22 
ROOT
HETATM    1  C   UNL     1     -42.563  56.843 -56.775  1.00  0.00     0.255 C 
HETATM    2  N   UNL     1     -42.184  55.529 -56.650  1.00  0.00    -0.350 N 
HETATM    3  O   UNL     1     -42.801  57.549 -55.800  1.00  0.00    -0.268 OA
HETATM    4  H   UNL     1     -41.811  55.048 -57.458  1.00  0.00     0.163 HD
ENDROOT
BRANCH   2   5
HETATM    5  C   UNL     1     -42.004  54.874 -55.354  1.00  0.00     0.114 C 
HETATM    6  C   UNL     1     -43.138  53.869 -55.106  1.00  0.00     0.035 C 
BRANCH   5   7
HETATM    7  C   UNL     1     -40.615  54.169 -55.269  1.00  0.00     0.173 C 
BRANCH   7   8
HETATM    8  O   UNL     1     -39.583  55.166 -55.352  1.00  0.00    -0.389 OA
HETATM    9  H   UNL     1     -39.622  55.691 -54.535  1.00  0.00     0.210 HD
ENDBRANCH   7   8
BRANCH   7  10
HETATM   10  C   UNL     1     -40.376  53.326 -54.021  1.00  0.00    -0.028 A 
HETATM   11  C   UNL     1     -40.630  53.818 -52.732  1.00  0.00     0.012 A 
HETATM   12  C   UNL     1     -40.435  53.012 -51.604  1.00  0.00     0.037 A 
HETATM   13  C   UNL     1     -39.999  51.693 -51.731  1.00  0.00     0.068 A 
HETATM   14  C   UNL     1     -39.761  51.183 -53.003  1.00  0.00     0.037 A 
HETATM   15  C   UNL     1     -39.955  51.990 -54.132  1.00  0.00     0.012 A 
BRANCH  13  16
HETATM   16  O   UNL     1     -39.854  51.019 -50.551  1.00  0.00    -0.356 OA
HETATM   17  C   UNL     1     -39.732  49.604 -50.633  1.00  0.00     0.210 C 
ENDBRANCH  13  16
ENDBRANCH   7  10
ENDBRANCH   5   7
ENDBRANCH   2   5
BRANCH   1  18
HETATM   18  C   UNL     1     -42.623  57.379 -58.129  1.00  0.00     0.075 C 
HETATM   19  C   UNL     1     -42.519  58.676 -58.628  1.00  0.00     0.051 C 
HETATM   20  C   UNL     1     -42.206  59.967 -57.953  1.00  0.00     0.071 C 
HETATM   21  N   UNL     1     -42.745  58.583 -60.005  1.00  0.00    -0.220 N 
HETATM   22  N   UNL     1     -42.798  57.283 -60.409  1.00  0.00    -0.177 NA
HETATM   23  C   UNL     1     -42.757  56.580 -59.283  1.00  0.00     0.158 C 
BRANCH  21  24
HETATM   24  C   UNL     1     -42.925  59.641 -60.962  1.00  0.00     0.150 A 
HETATM   25  N   UNL     1     -41.833  60.264 -61.483  1.00  0.00    -0.241 NA
HETATM   26  C   UNL     1     -42.047  61.272 -62.359  1.00  0.00     0.119 A 
HETATM   27  C   UNL     1     -43.303  61.696 -62.756  1.00  0.00     0.019 A 
HETATM   28  C   UNL     1     -44.410  61.054 -62.221  1.00  0.00     0.005 A 
HETATM   29  C   UNL     1     -44.225  60.017 -61.308  1.00  0.00     0.052 A 
ENDBRANCH  21  24
ENDBRANCH   1  18
TORSDOF 7
ENDMDL
MODEL 9
REMARK VINA RESULT:      -7.3     14.989     17.106
REMARK  7 active torsions:
REMARK  status: ('A' for Active; 'I' for Inactive)
REMARK    1  A    between atoms: N_3  and  C_4 
REMARK    2  A    between atoms: C_12  and  C_13 
REMARK       I    between atoms: C_13  and  N_14 
REMARK    3  A    between atoms: N_14  and  C_15 
REMARK    4  A    between atoms: C_15  and  C_16 
REMARK    5  A    between atoms: C_16  and  O_17 
REMARK    6  A    between atoms: C_16  and  C_18 
REMARK    7  A    between atoms: C_21  and  O_22 
ROOT
HETATM    1  C   UNL     1     -35.320  41.612 -52.882  1.00  0.00     0.255 C 
HETATM    2  N   UNL     1     -34.670  40.553 -52.299  1.00  0.00    -0.350 N 
HETATM    3  O   UNL     1     -35.239  42.753 -52.438  1.00  0.00    -0.268 OA
HETATM    4  H   UNL     1     -34.604  39.680 -52.804  1.00  0.00     0.163 HD
ENDROOT
BRANCH   2   5
HETATM    5  C   UNL     1     -33.807  40.699 -51.125  1.00  0.00     0.114 C 
HETATM    6  C   UNL     1     -34.189  39.669 -50.054  1.00  0.00     0.035 C 
BRANCH   5   7
HETATM    7  C   UNL     1     -32.302  40.559 -51.514  1.00  0.00     0.173 C 
BRANCH   7   8
HETATM    8  O   UNL     1     -31.559  40.148 -50.354  1.00  0.00    -0.389 OA
HETATM    9  H   UNL     1     -31.125  40.938 -49.993  1.00  0.00     0.210 HD
ENDBRANCH   7   8
BRANCH   7  10
HETATM   10  C   UNL     1     -32.000  39.588 -52.651  1.00  0.00    -0.028 A 
HETATM   11  C   UNL     1     -31.830  40.023 -53.974  1.00  0.00     0.012 A 
HETATM   12  C   UNL     1     -31.520  39.116 -54.994  1.00  0.00     0.037 A 
HETATM   13  C   UNL     1     -31.354  37.758 -54.721  1.00  0.00     0.068 A 
HETATM   14  C   UNL     1     -31.499  37.313 -53.411  1.00  0.00     0.037 A 
HETATM   15  C   UNL     1     -31.811  38.220 -52.390  1.00  0.00     0.012 A 
BRANCH  13  16
HETATM   16  O   UNL     1     -31.050  36.985 -55.806  1.00  0.00    -0.356 OA
HETATM   17  C   UNL     1     -30.405  37.635 -56.895  1.00  0.00     0.210 C 
ENDBRANCH  13  16
ENDBRANCH   7  10
ENDBRANCH   5   7
ENDBRANCH   2   5
BRANCH   1  18
HETATM   18  C   UNL     1     -36.079  41.325 -54.092  1.00  0.00     0.075 C 
HETATM   19  C   UNL     1     -35.701  41.201 -55.428  1.00  0.00     0.051 C 
HETATM   20  C   UNL     1     -34.360  41.219 -56.076  1.00  0.00     0.071 C 
HETATM   21  N   UNL     1     -36.882  41.007 -56.151  1.00  0.00    -0.220 N 
HETATM   22  N   UNL     1     -37.945  40.819 -55.319  1.00  0.00    -0.177 NA
HETATM   23  C   UNL     1     -37.461  41.042 -54.103  1.00  0.00     0.158 C 
BRANCH  21  24
HETATM   24  C   UNL     1     -37.076  40.998 -57.576  1.00  0.00     0.150 A 
HETATM   25  N   UNL     1     -37.217  39.810 -58.224  1.00  0.00    -0.241 NA
HETATM   26  C   UNL     1     -37.370  39.845 -59.567  1.00  0.00     0.119 A 
HETATM   27  C   UNL     1     -37.396  41.011 -60.311  1.00  0.00     0.019 A 
HETATM   28  C   UNL     1     -37.252  42.218 -59.641  1.00  0.00     0.005 A 
HETATM   29  C   UNL     1     -37.084  42.217 -58.258  1.00  0.00     0.052 A 
ENDBRANCH  21  24
ENDBRANCH   1  18
TORSDOF 7
ENDMDL
MODEL 10
REMARK VINA RESULT:      -7.1      3.201      6.560
REMARK  7 active torsions:
REMARK  status: ('A' for Active; 'I' for Inactive)
REMARK    1  A    between atoms: N_3  and  C_4 
REMARK    2  A    between atoms: C_12  and  C_13 
REMARK       I    between atoms: C_13  and  N_14 
REMARK    3  A    between atoms: N_14  and  C_15 
REMARK    4  A    between atoms: C_15  and  C_16 
REMARK    5  A    between atoms: C_16  and  O_17 
REMARK    6  A    between atoms: C_16  and  C_18 
REMARK    7  A    between atoms: C_21  and  O_22 
ROOT
HETATM    1  C   UNL     1     -44.222  57.431 -50.986  1.00  0.00     0.255 C 
HETATM    2  N   UNL     1     -43.425  58.544 -51.078  1.00  0.00    -0.350 N 
HETATM    3  O   UNL     1     -45.436  57.509 -50.815  1.00  0.00    -0.268 OA
HETATM    4  H   UNL     1     -42.476  58.440 -51.413  1.00  0.00     0.163 HD
ENDROOT
BRANCH   2   5
HETATM    5  C   UNL     1     -43.952  59.908 -51.011  1.00  0.00     0.114 C 
HETATM    6  C   UNL     1     -42.920  60.844 -50.366  1.00  0.00     0.035 C 
BRANCH   5   7
HETATM    7  C   UNL     1     -44.357  60.424 -52.427  1.00  0.00     0.173 C 
BRANCH   7   8
HETATM    8  O   UNL     1     -43.916  61.785 -52.568  1.00  0.00    -0.389 OA
HETATM    9  H   UNL     1     -43.401  62.006 -51.774  1.00  0.00     0.210 HD
ENDBRANCH   7   8
BRANCH   7  10
HETATM   10  C   UNL     1     -43.820  59.617 -53.604  1.00  0.00    -0.028 A 
HETATM   11  C   UNL     1     -44.614  58.685 -54.289  1.00  0.00     0.012 A 
HETATM   12  C   UNL     1     -44.107  57.982 -55.389  1.00  0.00     0.037 A 
HETATM   13  C   UNL     1     -42.806  58.199 -55.843  1.00  0.00     0.068 A 
HETATM   14  C   UNL     1     -42.012  59.134 -55.187  1.00  0.00     0.037 A 
HETATM   15  C   UNL     1     -42.518  59.837 -54.086  1.00  0.00     0.012 A 
BRANCH  13  16
HETATM   16  O   UNL     1     -42.441  57.449 -56.926  1.00  0.00    -0.356 OA
HETATM   17  C   UNL     1     -42.757  56.063 -56.881  1.00  0.00     0.210 C 
ENDBRANCH  13  16
ENDBRANCH   7  10
ENDBRANCH   5   7
ENDBRANCH   2   5
BRANCH   1  18
HETATM   18  C   UNL     1     -43.565  56.141 -51.152  1.00  0.00     0.075 C 
HETATM   19  C   UNL     1     -42.407  55.760 -51.827  1.00  0.00     0.051 C 
HETATM   20  C   UNL     1     -41.373  56.563 -52.538  1.00  0.00     0.071 C 
HETATM   21  N   UNL     1     -42.326  54.369 -51.707  1.00  0.00    -0.220 N 
HETATM   22  N   UNL     1     -43.265  53.893 -50.842  1.00  0.00    -0.177 NA
HETATM   23  C   UNL     1     -44.013  54.949 -50.546  1.00  0.00     0.158 C 
BRANCH  21  24
HETATM   24  C   UNL     1     -41.427  53.458 -52.364  1.00  0.00     0.150 A 
HETATM   25  N   UNL     1     -40.481  52.809 -51.634  1.00  0.00    -0.241 NA
HETATM   26  C   UNL     1     -39.640  51.982 -52.295  1.00  0.00     0.119 A 
HETATM   27  C   UNL     1     -39.691  51.758 -53.659  1.00  0.00     0.019 A 
HETATM   28  C   UNL     1     -40.660  52.424 -54.396  1.00  0.00     0.005 A 
HETATM   29  C   UNL     1     -41.538  53.290 -53.747  1.00  0.00     0.052 A 
ENDBRANCH  21  24
ENDBRANCH   1  18
TORSDOF 7
ENDMDL
