MODEL 1
REMARK VINA RESULT:      -8.4      0.000      0.000
REMARK  5 active torsions:
REMARK  status: ('A' for Active; 'I' for Inactive)
REMARK    1  A    between atoms: C_7  and  C_8 
REMARK    2  A    between atoms: N_9  and  N_10 
REMARK       I    between atoms: N_10  and  C_11 
REMARK    3  A    between atoms: C_11  and  C_12 
REMARK    4  A    between atoms: C_12  and  N_13 
REMARK    5  A    between atoms: N_13  and  C_14 
ROOT
HETATM    1  N   UNL     1     -42.684  55.894 -54.608  1.00  0.00    -0.246 N 
HETATM    2  C   UNL     1     -43.701  56.797 -54.309  1.00  0.00     0.250 C 
HETATM    3  O   UNL     1     -44.258  56.921 -53.219  1.00  0.00    -0.270 OA
HETATM    4  H   UNL     1     -42.385  55.805 -55.575  1.00  0.00     0.192 HD
ENDROOT
BRANCH   1   5
HETATM    5  N   UNL     1     -42.288  54.842 -53.818  1.00  0.00    -0.184 NA
HETATM    6  C   UNL     1     -41.035  54.725 -53.508  1.00  0.00     0.153 C 
BRANCH   6   7
HETATM    7  C   UNL     1     -40.599  53.668 -52.607  1.00  0.00     0.018 A 
HETATM    8  C   UNL     1     -40.399  53.751 -51.234  1.00  0.00     0.018 A 
HETATM    9  C   UNL     1     -40.559  54.886 -50.286  1.00  0.00     0.069 C 
HETATM   10  N   UNL     1     -39.980  52.519 -50.798  1.00  0.00    -0.358 N 
HETATM   11  H   UNL     1     -39.755  52.288 -49.840  1.00  0.00     0.166 HD
HETATM   12  C   UNL     1     -39.897  51.632 -51.843  1.00  0.00     0.043 A 
HETATM   13  C   UNL     1     -40.281  52.321 -52.993  1.00  0.00     0.004 A 
HETATM   14  C   UNL     1     -39.510  50.287 -51.855  1.00  0.00     0.030 A 
HETATM   15  C   UNL     1     -40.274  51.624 -54.222  1.00  0.00     0.014 A 
HETATM   16  C   UNL     1     -39.890  50.278 -54.252  1.00  0.00     0.001 A 
HETATM   17  C   UNL     1     -39.515  49.621 -53.083  1.00  0.00     0.002 A 
ENDBRANCH   6   7
ENDBRANCH   1   5
BRANCH   2  18
HETATM   18  C   UNL     1     -44.084  57.689 -55.496  1.00  0.00     0.197 C 
BRANCH  18  19
HETATM   19  N   UNL     1     -44.333  56.893 -56.703  1.00  0.00    -0.282 NA
HETATM   20  H   UNL     1     -45.327  56.915 -56.953  1.00  0.00     0.128 HD
BRANCH  19  21
HETATM   21  C   UNL     1     -43.545  57.136 -57.840  1.00  0.00     0.047 A 
HETATM   22  C   UNL     1     -43.276  56.092 -58.741  1.00  0.00     0.137 A 
HETATM   23  F   UNL     1     -43.841  54.890 -58.539  1.00  0.00    -0.204 F 
HETATM   24  C   UNL     1     -42.452  56.265 -59.850  1.00  0.00     0.044 A 
HETATM   25  C   UNL     1     -41.853  57.502 -60.071  1.00  0.00     0.003 A 
HETATM   26  C   UNL     1     -42.077  58.548 -59.177  1.00  0.00     0.002 A 
HETATM   27  C   UNL     1     -42.910  58.364 -58.066  1.00  0.00     0.026 A 
ENDBRANCH  19  21
ENDBRANCH  18  19
ENDBRANCH   2  18
TORSDOF 5
ENDMDL
MODEL 2
REMARK VINA RESULT:      -8.4      1.763      2.069
REMARK  5 active torsions:
REMARK  status: ('A' for Active; 'I' for Inactive)
REMARK    1  A    between atoms: C_7  and  C_8 
REMARK    2  A    between atoms: N_9  and  N_10 
REMARK       I    between atoms: N_10  and  C_11 
REMARK    3  A    between atoms: C_11  and  C_12 
REMARK    4  A    between atoms: C_12  and  N_13 
REMARK    5  A    between atoms: N_13  and  C_14 
ROOT
HETATM    1  N   UNL     1     -42.784  55.863 -54.596  1.00  0.00    -0.246 N 
HETATM    2  C   UNL     1     -42.905  55.809 -55.982  1.00  0.00     0.250 C 
HETATM    3  O   UNL     1     -42.857  54.791 -56.672  1.00  0.00    -0.270 OA
HETATM    4  H   UNL     1     -42.721  56.774 -54.151  1.00  0.00     0.192 HD
ENDROOT
BRANCH   1   5
HETATM    5  N   UNL     1     -42.366  54.834 -53.787  1.00  0.00    -0.184 NA
HETATM    6  C   UNL     1     -41.101  54.697 -53.546  1.00  0.00     0.153 C 
BRANCH   6   7
HETATM    7  C   UNL     1     -40.637  53.667 -52.628  1.00  0.00     0.018 A 
HETATM    8  C   UNL     1     -40.410  53.787 -51.262  1.00  0.00     0.018 A 
HETATM    9  C   UNL     1     -40.562  54.942 -50.340  1.00  0.00     0.069 C 
HETATM   10  N   UNL     1     -39.971  52.569 -50.803  1.00  0.00    -0.358 N 
HETATM   11  H   UNL     1     -39.725  52.364 -49.845  1.00  0.00     0.166 HD
HETATM   12  C   UNL     1     -39.901  51.658 -51.829  1.00  0.00     0.043 A 
HETATM   13  C   UNL     1     -40.313  52.314 -52.987  1.00  0.00     0.004 A 
HETATM   14  C   UNL     1     -39.501  50.316 -51.814  1.00  0.00     0.030 A 
HETATM   15  C   UNL     1     -40.325  51.587 -54.198  1.00  0.00     0.014 A 
HETATM   16  C   UNL     1     -39.929  50.244 -54.203  1.00  0.00     0.001 A 
HETATM   17  C   UNL     1     -39.523  49.620 -53.026  1.00  0.00     0.002 A 
ENDBRANCH   6   7
ENDBRANCH   1   5
BRANCH   2  18
HETATM   18  C   UNL     1     -43.134  57.184 -56.622  1.00  0.00     0.197 C 
BRANCH  18  19
HETATM   19  N   UNL     1     -43.193  57.090 -58.085  1.00  0.00    -0.282 NA
HETATM   20  H   UNL     1     -42.517  56.402 -58.432  1.00  0.00     0.128 HD
BRANCH  19  21
HETATM   21  C   UNL     1     -44.443  56.887 -58.692  1.00  0.00     0.047 A 
HETATM   22  C   UNL     1     -44.608  55.846 -59.622  1.00  0.00     0.137 A 
HETATM   23  F   UNL     1     -43.583  55.012 -59.860  1.00  0.00    -0.204 F 
HETATM   24  C   UNL     1     -45.809  55.639 -60.296  1.00  0.00     0.044 A 
HETATM   25  C   UNL     1     -46.879  56.498 -60.067  1.00  0.00     0.003 A 
HETATM   26  C   UNL     1     -46.735  57.558 -59.172  1.00  0.00     0.002 A 
HETATM   27  C   UNL     1     -45.524  57.756 -58.497  1.00  0.00     0.026 A 
ENDBRANCH  19  21
ENDBRANCH  18  19
ENDBRANCH   2  18
TORSDOF 5
ENDMDL
MODEL 3
REMARK VINA RESULT:      -7.9      1.842      7.735
REMARK  5 active torsions:
REMARK  status: ('A' for Active; 'I' for Inactive)
REMARK    1  A    between atoms: C_7  and  C_8 
REMARK    2  A    between atoms: N_9  and  N_10 
REMARK       I    between atoms: N_10  and  C_11 
REMARK    3  A    between atoms: C_11  and  C_12 
REMARK    4  A    between atoms: C_12  and  N_13 
REMARK    5  A    between atoms: N_13  and  C_14 
ROOT
HETATM    1  N   UNL     1     -42.791  54.605 -54.054  1.00  0.00    -0.246 N 
HETATM    2  C   UNL     1     -42.568  55.034 -52.748  1.00  0.00     0.250 C 
HETATM    3  O   UNL     1     -42.930  56.108 -52.271  1.00  0.00    -0.270 OA
HETATM    4  H   UNL     1     -42.340  53.749 -54.365  1.00  0.00     0.192 HD
ENDROOT
BRANCH   1   5
HETATM    5  N   UNL     1     -43.246  55.386 -55.089  1.00  0.00    -0.184 NA
HETATM    6  C   UNL     1     -42.400  55.814 -55.972  1.00  0.00     0.153 C 
BRANCH   6   7
HETATM    7  C   UNL     1     -42.865  56.575 -57.123  1.00  0.00     0.018 A 
HETATM    8  C   UNL     1     -42.804  57.951 -57.310  1.00  0.00     0.018 A 
HETATM    9  C   UNL     1     -42.270  59.037 -56.447  1.00  0.00     0.069 C 
HETATM   10  N   UNL     1     -43.367  58.231 -58.531  1.00  0.00    -0.358 N 
HETATM   11  H   UNL     1     -43.461  59.155 -58.928  1.00  0.00     0.166 HD
HETATM   12  C   UNL     1     -43.797  57.081 -59.146  1.00  0.00     0.043 A 
HETATM   13  C   UNL     1     -43.496  56.023 -58.290  1.00  0.00     0.004 A 
HETATM   14  C   UNL     1     -44.428  56.903 -60.383  1.00  0.00     0.030 A 
HETATM   15  C   UNL     1     -43.848  54.716 -58.693  1.00  0.00     0.014 A 
HETATM   16  C   UNL     1     -44.480  54.520 -59.927  1.00  0.00     0.001 A 
HETATM   17  C   UNL     1     -44.764  55.600 -60.759  1.00  0.00     0.002 A 
ENDBRANCH   6   7
ENDBRANCH   1   5
BRANCH   2  18
HETATM   18  C   UNL     1     -41.813  54.007 -51.896  1.00  0.00     0.197 C 
BRANCH  18  19
HETATM   19  N   UNL     1     -40.487  53.720 -52.455  1.00  0.00    -0.282 NA
HETATM   20  H   UNL     1     -39.756  54.198 -51.918  1.00  0.00     0.128 HD
BRANCH  19  21
HETATM   21  C   UNL     1     -40.127  52.380 -52.671  1.00  0.00     0.047 A 
HETATM   22  C   UNL     1     -40.175  51.844 -53.970  1.00  0.00     0.137 A 
HETATM   23  F   UNL     1     -40.494  52.646 -54.999  1.00  0.00    -0.204 F 
HETATM   24  C   UNL     1     -39.885  50.507 -54.230  1.00  0.00     0.044 A 
HETATM   25  C   UNL     1     -39.560  49.659 -53.174  1.00  0.00     0.003 A 
HETATM   26  C   UNL     1     -39.535  50.157 -51.872  1.00  0.00     0.002 A 
HETATM   27  C   UNL     1     -39.824  51.504 -51.622  1.00  0.00     0.026 A 
ENDBRANCH  19  21
ENDBRANCH  18  19
ENDBRANCH   2  18
TORSDOF 5
ENDMDL
MODEL 4
REMARK VINA RESULT:      -7.7      1.805      8.239
REMARK  5 active torsions:
REMARK  status: ('A' for Active; 'I' for Inactive)
REMARK    1  A    between atoms: C_7  and  C_8 
REMARK    2  A    between atoms: N_9  and  N_10 
REMARK       I    between atoms: N_10  and  C_11 
REMARK    3  A    between atoms: C_11  and  C_12 
REMARK    4  A    between atoms: C_12  and  N_13 
REMARK    5  A    between atoms: N_13  and  C_14 
ROOT
HETATM    1  N   UNL     1     -43.056  55.147 -54.810  1.00  0.00    -0.246 N 
HETATM    2  C   UNL     1     -42.546  55.652 -53.616  1.00  0.00     0.250 C 
HETATM    3  O   UNL     1     -42.418  56.842 -53.332  1.00  0.00    -0.270 OA
HETATM    4  H   UNL     1     -43.001  54.146 -54.975  1.00  0.00     0.192 HD
ENDROOT
BRANCH   1   5
HETATM    5  N   UNL     1     -43.289  55.874 -55.953  1.00  0.00    -0.184 NA
HETATM    6  C   UNL     1     -42.870  55.412 -57.088  1.00  0.00     0.153 C 
BRANCH   6   7
HETATM    7  C   UNL     1     -43.173  56.119 -58.324  1.00  0.00     0.018 A 
HETATM    8  C   UNL     1     -43.872  55.640 -59.426  1.00  0.00     0.018 A 
HETATM    9  C   UNL     1     -44.507  54.322 -59.688  1.00  0.00     0.069 C 
HETATM   10  N   UNL     1     -43.911  56.643 -60.363  1.00  0.00    -0.358 N 
HETATM   11  H   UNL     1     -44.353  56.574 -61.269  1.00  0.00     0.166 HD
HETATM   12  C   UNL     1     -43.256  57.762 -59.909  1.00  0.00     0.043 A 
HETATM   13  C   UNL     1     -42.782  57.467 -58.631  1.00  0.00     0.004 A 
HETATM   14  C   UNL     1     -43.047  58.998 -60.532  1.00  0.00     0.030 A 
HETATM   15  C   UNL     1     -42.059  58.464 -57.941  1.00  0.00     0.014 A 
HETATM   16  C   UNL     1     -41.840  59.707 -58.549  1.00  0.00     0.001 A 
HETATM   17  C   UNL     1     -42.329  59.967 -59.827  1.00  0.00     0.002 A 
ENDBRANCH   6   7
ENDBRANCH   1   5
BRANCH   2  18
HETATM   18  C   UNL     1     -42.149  54.556 -52.619  1.00  0.00     0.197 C 
BRANCH  18  19
HETATM   19  N   UNL     1     -40.710  54.278 -52.674  1.00  0.00    -0.282 NA
HETATM   20  H   UNL     1     -40.221  54.742 -51.901  1.00  0.00     0.128 HD
BRANCH  19  21
HETATM   21  C   UNL     1     -40.289  52.942 -52.779  1.00  0.00     0.047 A 
HETATM   22  C   UNL     1     -40.328  52.292 -54.025  1.00  0.00     0.137 A 
HETATM   23  F   UNL     1     -40.699  52.985 -55.114  1.00  0.00    -0.204 F 
HETATM   24  C   UNL     1     -39.979  50.952 -54.171  1.00  0.00     0.044 A 
HETATM   25  C   UNL     1     -39.599  50.217 -53.052  1.00  0.00     0.003 A 
HETATM   26  C   UNL     1     -39.580  50.828 -51.799  1.00  0.00     0.002 A 
HETATM   27  C   UNL     1     -39.931  52.177 -51.663  1.00  0.00     0.026 A 
ENDBRANCH  19  21
ENDBRANCH  18  19
ENDBRANCH   2  18
TORSDOF 5
ENDMDL
MODEL 5
REMARK VINA RESULT:      -7.7      2.700      7.558
REMARK  5 active torsions:
REMARK  status: ('A' for Active; 'I' for Inactive)
REMARK    1  A    between atoms: C_7  and  C_8 
REMARK    2  A    between atoms: N_9  and  N_10 
REMARK       I    between atoms: N_10  and  C_11 
REMARK    3  A    between atoms: C_11  and  C_12 
REMARK    4  A    between atoms: C_12  and  N_13 
REMARK    5  A    between atoms: N_13  and  C_14 
ROOT
HETATM    1  N   UNL     1     -42.473  53.939 -51.723  1.00  0.00    -0.246 N 
HETATM    2  C   UNL     1     -41.713  54.215 -50.589  1.00  0.00     0.250 C 
HETATM    3  O   UNL     1     -41.738  55.260 -49.940  1.00  0.00    -0.270 OA
HETATM    4  H   UNL     1     -42.277  53.087 -52.241  1.00  0.00     0.192 HD
ENDROOT
BRANCH   1   5
HETATM    5  N   UNL     1     -43.204  54.855 -52.440  1.00  0.00    -0.184 NA
HETATM    6  C   UNL     1     -42.604  55.581 -53.330  1.00  0.00     0.153 C 
BRANCH   6   7
HETATM    7  C   UNL     1     -43.368  56.501 -54.160  1.00  0.00     0.018 A 
HETATM    8  C   UNL     1     -44.193  57.538 -53.741  1.00  0.00     0.018 A 
HETATM    9  C   UNL     1     -44.543  58.024 -52.380  1.00  0.00     0.069 C 
HETATM   10  N   UNL     1     -44.717  58.134 -54.861  1.00  0.00    -0.358 N 
HETATM   11  H   UNL     1     -45.355  58.917 -54.857  1.00  0.00     0.166 HD
HETATM   12  C   UNL     1     -44.262  57.516 -56.001  1.00  0.00     0.043 A 
HETATM   13  C   UNL     1     -43.413  56.488 -55.597  1.00  0.00     0.004 A 
HETATM   14  C   UNL     1     -44.543  57.788 -57.345  1.00  0.00     0.030 A 
HETATM   15  C   UNL     1     -42.813  55.687 -56.593  1.00  0.00     0.014 A 
HETATM   16  C   UNL     1     -43.082  55.944 -57.943  1.00  0.00     0.001 A 
HETATM   17  C   UNL     1     -43.935  56.981 -58.311  1.00  0.00     0.002 A 
ENDBRANCH   6   7
ENDBRANCH   1   5
BRANCH   2  18
HETATM   18  C   UNL     1     -40.804  53.051 -50.174  1.00  0.00     0.197 C 
BRANCH  18  19
HETATM   19  N   UNL     1     -39.693  52.878 -51.116  1.00  0.00    -0.282 NA
HETATM   20  H   UNL     1     -38.806  52.769 -50.614  1.00  0.00     0.128 HD
BRANCH  19  21
HETATM   21  C   UNL     1     -39.807  51.894 -52.112  1.00  0.00     0.047 A 
HETATM   22  C   UNL     1     -39.582  50.544 -51.791  1.00  0.00     0.137 A 
HETATM   23  F   UNL     1     -39.333  50.207 -50.515  1.00  0.00    -0.204 F 
HETATM   24  C   UNL     1     -39.624  49.538 -52.753  1.00  0.00     0.044 A 
HETATM   25  C   UNL     1     -39.873  49.871 -54.081  1.00  0.00     0.003 A 
HETATM   26  C   UNL     1     -40.070  51.205 -54.433  1.00  0.00     0.002 A 
HETATM   27  C   UNL     1     -40.029  52.209 -53.458  1.00  0.00     0.026 A 
ENDBRANCH  19  21
ENDBRANCH  18  19
ENDBRANCH   2  18
TORSDOF 5
ENDMDL
MODEL 6
REMARK VINA RESULT:      -7.7      1.869      3.456
REMARK  5 active torsions:
REMARK  status: ('A' for Active; 'I' for Inactive)
REMARK    1  A    between atoms: C_7  and  C_8 
REMARK    2  A    between atoms: N_9  and  N_10 
REMARK       I    between atoms: N_10  and  C_11 
REMARK    3  A    between atoms: C_11  and  C_12 
REMARK    4  A    between atoms: C_12  and  N_13 
REMARK    5  A    between atoms: N_13  and  C_14 
ROOT
HETATM    1  N   UNL     1     -42.170  55.703 -56.062  1.00  0.00    -0.246 N 
HETATM    2  C   UNL     1     -42.272  57.090 -56.116  1.00  0.00     0.250 C 
HETATM    3  O   UNL     1     -42.044  57.867 -55.190  1.00  0.00    -0.270 OA
HETATM    4  H   UNL     1     -42.499  55.162 -56.856  1.00  0.00     0.192 HD
ENDROOT
BRANCH   1   5
HETATM    5  N   UNL     1     -42.022  54.954 -54.919  1.00  0.00    -0.184 NA
HETATM    6  C   UNL     1     -40.832  54.592 -54.554  1.00  0.00     0.153 C 
BRANCH   6   7
HETATM    7  C   UNL     1     -40.638  53.868 -53.306  1.00  0.00     0.018 A 
HETATM    8  C   UNL     1     -40.249  52.543 -53.146  1.00  0.00     0.018 A 
HETATM    9  C   UNL     1     -39.919  51.490 -54.142  1.00  0.00     0.069 C 
HETATM   10  N   UNL     1     -40.203  52.282 -51.799  1.00  0.00    -0.358 N 
HETATM   11  H   UNL     1     -39.953  51.393 -51.388  1.00  0.00     0.166 HD
HETATM   12  C   UNL     1     -40.553  53.394 -51.073  1.00  0.00     0.043 A 
HETATM   13  C   UNL     1     -40.830  54.408 -51.989  1.00  0.00     0.004 A 
HETATM   14  C   UNL     1     -40.647  53.573 -49.688  1.00  0.00     0.030 A 
HETATM   15  C   UNL     1     -41.225  55.669 -51.490  1.00  0.00     0.014 A 
HETATM   16  C   UNL     1     -41.325  55.866 -50.107  1.00  0.00     0.001 A 
HETATM   17  C   UNL     1     -41.039  54.830 -49.221  1.00  0.00     0.002 A 
ENDBRANCH   6   7
ENDBRANCH   1   5
BRANCH   2  18
HETATM   18  C   UNL     1     -42.695  57.610 -57.495  1.00  0.00     0.197 C 
BRANCH  18  19
HETATM   19  N   UNL     1     -43.081  56.511 -58.386  1.00  0.00    -0.282 NA
HETATM   20  H   UNL     1     -42.880  55.604 -57.951  1.00  0.00     0.128 HD
BRANCH  19  21
HETATM   21  C   UNL     1     -44.377  56.510 -58.927  1.00  0.00     0.047 A 
HETATM   22  C   UNL     1     -44.756  55.504 -59.833  1.00  0.00     0.137 A 
HETATM   23  F   UNL     1     -43.893  54.514 -60.111  1.00  0.00    -0.204 F 
HETATM   24  C   UNL     1     -46.008  55.492 -60.443  1.00  0.00     0.044 A 
HETATM   25  C   UNL     1     -46.912  56.514 -60.171  1.00  0.00     0.003 A 
HETATM   26  C   UNL     1     -46.552  57.541 -59.299  1.00  0.00     0.002 A 
HETATM   27  C   UNL     1     -45.291  57.543 -58.689  1.00  0.00     0.026 A 
ENDBRANCH  19  21
ENDBRANCH  18  19
ENDBRANCH   2  18
TORSDOF 5
ENDMDL
MODEL 7
REMARK VINA RESULT:      -7.6      5.319      6.861
REMARK  5 active torsions:
REMARK  status: ('A' for Active; 'I' for Inactive)
REMARK    1  A    between atoms: C_7  and  C_8 
REMARK    2  A    between atoms: N_9  and  N_10 
REMARK       I    between atoms: N_10  and  C_11 
REMARK    3  A    between atoms: C_11  and  C_12 
REMARK    4  A    between atoms: C_12  and  N_13 
REMARK    5  A    between atoms: N_13  and  C_14 
ROOT
HETATM    1  N   UNL     1     -43.113  57.780 -50.935  1.00  0.00    -0.246 N 
HETATM    2  C   UNL     1     -44.452  58.157 -50.993  1.00  0.00     0.250 C 
HETATM    3  O   UNL     1     -45.415  57.394 -51.042  1.00  0.00    -0.270 OA
HETATM    4  H   UNL     1     -42.403  58.502 -51.019  1.00  0.00     0.192 HD
ENDROOT
BRANCH   1   5
HETATM    5  N   UNL     1     -42.627  56.513 -51.150  1.00  0.00    -0.184 NA
HETATM    6  C   UNL     1     -41.445  56.210 -50.714  1.00  0.00     0.153 C 
BRANCH   6   7
HETATM    7  C   UNL     1     -40.938  54.853 -50.856  1.00  0.00     0.018 A 
HETATM    8  C   UNL     1     -40.540  53.986 -49.845  1.00  0.00     0.018 A 
HETATM    9  C   UNL     1     -40.509  54.149 -48.367  1.00  0.00     0.069 C 
HETATM   10  N   UNL     1     -40.124  52.819 -50.436  1.00  0.00    -0.358 N 
HETATM   11  H   UNL     1     -39.777  52.009 -49.941  1.00  0.00     0.166 HD
HETATM   12  C   UNL     1     -40.233  52.898 -51.803  1.00  0.00     0.043 A 
HETATM   13  C   UNL     1     -40.742  54.161 -52.100  1.00  0.00     0.004 A 
HETATM   14  C   UNL     1     -39.917  51.954 -52.787  1.00  0.00     0.030 A 
HETATM   15  C   UNL     1     -40.944  54.498 -53.456  1.00  0.00     0.014 A 
HETATM   16  C   UNL     1     -40.633  53.566 -54.454  1.00  0.00     0.001 A 
HETATM   17  C   UNL     1     -40.127  52.312 -54.122  1.00  0.00     0.002 A 
ENDBRANCH   6   7
ENDBRANCH   1   5
BRANCH   2  18
HETATM   18  C   UNL     1     -44.651  59.678 -50.972  1.00  0.00     0.197 C 
BRANCH  18  19
HETATM   19  N   UNL     1     -44.449  60.226 -49.626  1.00  0.00    -0.282 NA
HETATM   20  H   UNL     1     -43.835  59.616 -49.076  1.00  0.00     0.128 HD
BRANCH  19  21
HETATM   21  C   UNL     1     -44.039  61.563 -49.502  1.00  0.00     0.047 A 
HETATM   22  C   UNL     1     -44.668  62.403 -48.566  1.00  0.00     0.137 A 
HETATM   23  F   UNL     1     -45.604  61.891 -47.751  1.00  0.00    -0.204 F 
HETATM   24  C   UNL     1     -44.340  63.751 -48.445  1.00  0.00     0.044 A 
HETATM   25  C   UNL     1     -43.377  64.300 -49.286  1.00  0.00     0.003 A 
HETATM   26  C   UNL     1     -42.759  63.497 -50.244  1.00  0.00     0.002 A 
HETATM   27  C   UNL     1     -43.093  62.142 -50.356  1.00  0.00     0.026 A 
ENDBRANCH  19  21
ENDBRANCH  18  19
ENDBRANCH   2  18
TORSDOF 5
ENDMDL
MODEL 8
REMARK VINA RESULT:      -7.6      4.580      6.002
REMARK  5 active torsions:
REMARK  status: ('A' for Active; 'I' for Inactive)
REMARK    1  A    between atoms: C_7  and  C_8 
REMARK    2  A    between atoms: N_9  and  N_10 
REMARK       I    between atoms: N_10  and  C_11 
REMARK    3  A    between atoms: C_11  and  C_12 
REMARK    4  A    between atoms: C_12  and  N_13 
REMARK    5  A    between atoms: N_13  and  C_14 
ROOT
HETATM    1  N   UNL     1     -41.540  58.062 -50.546  1.00  0.00    -0.246 N 
HETATM    2  C   UNL     1     -40.928  59.229 -50.996  1.00  0.00     0.250 C 
HETATM    3  O   UNL     1     -39.854  59.297 -51.592  1.00  0.00    -0.270 OA
HETATM    4  H   UNL     1     -42.368  58.144 -49.962  1.00  0.00     0.192 HD
ENDROOT
BRANCH   1   5
HETATM    5  N   UNL     1     -40.953  56.821 -50.484  1.00  0.00    -0.184 NA
HETATM    6  C   UNL     1     -41.610  55.793 -50.917  1.00  0.00     0.153 C 
BRANCH   6   7
HETATM    7  C   UNL     1     -40.983  54.479 -50.939  1.00  0.00     0.018 A 
HETATM    8  C   UNL     1     -40.549  53.728 -49.853  1.00  0.00     0.018 A 
HETATM    9  C   UNL     1     -40.586  54.002 -48.393  1.00  0.00     0.069 C 
HETATM   10  N   UNL     1     -40.013  52.561 -50.340  1.00  0.00    -0.358 N 
HETATM   11  H   UNL     1     -39.616  51.824 -49.774  1.00  0.00     0.166 HD
HETATM   12  C   UNL     1     -40.079  52.529 -51.712  1.00  0.00     0.043 A 
HETATM   13  C   UNL     1     -40.683  53.717 -52.120  1.00  0.00     0.004 A 
HETATM   14  C   UNL     1     -39.647  51.546 -52.611  1.00  0.00     0.030 A 
HETATM   15  C   UNL     1     -40.864  53.933 -53.504  1.00  0.00     0.014 A 
HETATM   16  C   UNL     1     -40.438  52.961 -54.417  1.00  0.00     0.001 A 
HETATM   17  C   UNL     1     -39.839  51.785 -53.974  1.00  0.00     0.002 A 
ENDBRANCH   6   7
ENDBRANCH   1   5
BRANCH   2  18
HETATM   18  C   UNL     1     -41.744  60.493 -50.696  1.00  0.00     0.197 C 
BRANCH  18  19
HETATM   19  N   UNL     1     -42.888  60.196 -49.826  1.00  0.00    -0.282 NA
HETATM   20  H   UNL     1     -42.671  60.427 -48.851  1.00  0.00     0.128 HD
BRANCH  19  21
HETATM   21  C   UNL     1     -44.147  60.711 -50.175  1.00  0.00     0.047 A 
HETATM   22  C   UNL     1     -44.937  60.042 -51.125  1.00  0.00     0.137 A 
HETATM   23  F   UNL     1     -44.506  58.875 -51.632  1.00  0.00    -0.204 F 
HETATM   24  C   UNL     1     -46.166  60.543 -51.550  1.00  0.00     0.044 A 
HETATM   25  C   UNL     1     -46.624  61.754 -51.042  1.00  0.00     0.003 A 
HETATM   26  C   UNL     1     -45.847  62.455 -50.120  1.00  0.00     0.002 A 
HETATM   27  C   UNL     1     -44.614  61.941 -49.697  1.00  0.00     0.026 A 
ENDBRANCH  19  21
ENDBRANCH  18  19
ENDBRANCH   2  18
TORSDOF 5
ENDMDL
MODEL 9
REMARK VINA RESULT:      -7.2     14.815     16.852
REMARK  5 active torsions:
REMARK  status: ('A' for Active; 'I' for Inactive)
REMARK    1  A    between atoms: C_7  and  C_8 
REMARK    2  A    between atoms: N_9  and  N_10 
REMARK       I    between atoms: N_10  and  C_11 
REMARK    3  A    between atoms: C_11  and  C_12 
REMARK    4  A    between atoms: C_12  and  N_13 
REMARK    5  A    between atoms: N_13  and  C_14 
ROOT
HETATM    1  N   UNL     1     -38.618  39.532 -50.904  1.00  0.00    -0.246 N 
HETATM    2  C   UNL     1     -38.934  38.220 -50.560  1.00  0.00     0.250 C 
HETATM    3  O   UNL     1     -38.314  37.215 -50.902  1.00  0.00    -0.270 OA
HETATM    4  H   UNL     1     -39.274  40.268 -50.660  1.00  0.00     0.192 HD
ENDROOT
BRANCH   1   5
HETATM    5  N   UNL     1     -37.706  39.912 -51.859  1.00  0.00    -0.184 NA
HETATM    6  C   UNL     1     -37.826  41.077 -52.414  1.00  0.00     0.153 C 
BRANCH   6   7
HETATM    7  C   UNL     1     -36.829  41.539 -53.369  1.00  0.00     0.018 A 
HETATM    8  C   UNL     1     -35.563  42.045 -53.096  1.00  0.00     0.018 A 
HETATM    9  C   UNL     1     -34.850  42.265 -51.811  1.00  0.00     0.069 C 
HETATM   10  N   UNL     1     -34.974  42.364 -54.295  1.00  0.00    -0.358 N 
HETATM   11  H   UNL     1     -34.049  42.756 -54.401  1.00  0.00     0.166 HD
HETATM   12  C   UNL     1     -35.817  42.084 -55.343  1.00  0.00     0.043 A 
HETATM   13  C   UNL     1     -36.989  41.564 -54.797  1.00  0.00     0.004 A 
HETATM   14  C   UNL     1     -35.629  42.257 -56.719  1.00  0.00     0.030 A 
HETATM   15  C   UNL     1     -38.031  41.198 -55.677  1.00  0.00     0.014 A 
HETATM   16  C   UNL     1     -37.861  41.364 -57.057  1.00  0.00     0.001 A 
HETATM   17  C   UNL     1     -36.676  41.886 -57.568  1.00  0.00     0.002 A 
ENDBRANCH   6   7
ENDBRANCH   1   5
BRANCH   2  18
HETATM   18  C   UNL     1     -40.171  38.115 -49.659  1.00  0.00     0.197 C 
BRANCH  18  19
HETATM   19  N   UNL     1     -41.284  38.914 -50.183  1.00  0.00    -0.282 NA
HETATM   20  H   UNL     1     -40.949  39.593 -50.874  1.00  0.00     0.128 HD
BRANCH  19  21
HETATM   21  C   UNL     1     -42.416  38.244 -50.675  1.00  0.00     0.047 A 
HETATM   22  C   UNL     1     -43.398  37.781 -49.783  1.00  0.00     0.137 A 
HETATM   23  F   UNL     1     -43.274  38.054 -48.473  1.00  0.00    -0.204 F 
HETATM   24  C   UNL     1     -44.509  37.060 -50.214  1.00  0.00     0.044 A 
HETATM   25  C   UNL     1     -44.649  36.762 -51.566  1.00  0.00     0.003 A 
HETATM   26  C   UNL     1     -43.675  37.183 -52.470  1.00  0.00     0.002 A 
HETATM   27  C   UNL     1     -42.563  37.910 -52.027  1.00  0.00     0.026 A 
ENDBRANCH  19  21
ENDBRANCH  18  19
ENDBRANCH   2  18
TORSDOF 5
ENDMDL
MODEL 10
REMARK VINA RESULT:      -7.2      1.922      8.062
REMARK  5 active torsions:
REMARK  status: ('A' for Active; 'I' for Inactive)
REMARK    1  A    between atoms: C_7  and  C_8 
REMARK    2  A    between atoms: N_9  and  N_10 
REMARK       I    between atoms: N_10  and  C_11 
REMARK    3  A    between atoms: C_11  and  C_12 
REMARK    4  A    between atoms: C_12  and  N_13 
REMARK    5  A    between atoms: N_13  and  C_14 
ROOT
HETATM    1  N   UNL     1     -43.982  57.018 -54.664  1.00  0.00    -0.246 N 
HETATM    2  C   UNL     1     -42.958  56.995 -53.722  1.00  0.00     0.250 C 
HETATM    3  O   UNL     1     -41.867  57.553 -53.828  1.00  0.00    -0.270 OA
HETATM    4  H   UNL     1     -44.791  56.421 -54.515  1.00  0.00     0.192 HD
ENDROOT
BRANCH   1   5
HETATM    5  N   UNL     1     -43.872  57.469 -55.958  1.00  0.00    -0.184 NA
HETATM    6  C   UNL     1     -43.128  56.813 -56.791  1.00  0.00     0.153 C 
BRANCH   6   7
HETATM    7  C   UNL     1     -43.056  57.221 -58.187  1.00  0.00     0.018 A 
HETATM    8  C   UNL     1     -43.422  56.482 -59.306  1.00  0.00     0.018 A 
HETATM    9  C   UNL     1     -43.981  55.111 -59.438  1.00  0.00     0.069 C 
HETATM   10  N   UNL     1     -43.176  57.255 -60.414  1.00  0.00    -0.358 N 
HETATM   11  H   UNL     1     -43.346  56.971 -61.369  1.00  0.00     0.166 HD
HETATM   12  C   UNL     1     -42.657  58.474 -60.054  1.00  0.00     0.043 A 
HETATM   13  C   UNL     1     -42.570  58.486 -58.663  1.00  0.00     0.004 A 
HETATM   14  C   UNL     1     -42.258  59.554 -60.851  1.00  0.00     0.030 A 
HETATM   15  C   UNL     1     -42.054  59.641 -58.036  1.00  0.00     0.014 A 
HETATM   16  C   UNL     1     -41.650  60.731 -58.817  1.00  0.00     0.001 A 
HETATM   17  C   UNL     1     -41.752  60.685 -60.205  1.00  0.00     0.002 A 
ENDBRANCH   6   7
ENDBRANCH   1   5
BRANCH   2  18
HETATM   18  C   UNL     1     -43.314  56.194 -52.463  1.00  0.00     0.197 C 
BRANCH  18  19
HETATM   19  N   UNL     1     -43.444  54.763 -52.759  1.00  0.00    -0.282 NA
HETATM   20  H   UNL     1     -44.015  54.617 -53.598  1.00  0.00     0.128 HD
BRANCH  19  21
HETATM   21  C   UNL     1     -42.278  53.984 -52.827  1.00  0.00     0.047 A 
HETATM   22  C   UNL     1     -41.860  53.456 -54.060  1.00  0.00     0.137 A 
HETATM   23  F   UNL     1     -42.546  53.768 -55.172  1.00  0.00    -0.204 F 
HETATM   24  C   UNL     1     -40.745  52.630 -54.172  1.00  0.00     0.044 A 
HETATM   25  C   UNL     1     -40.026  52.291 -53.029  1.00  0.00     0.003 A 
HETATM   26  C   UNL     1     -40.436  52.776 -51.787  1.00  0.00     0.002 A 
HETATM   27  C   UNL     1     -41.557  53.609 -51.686  1.00  0.00     0.026 A 
ENDBRANCH  19  21
ENDBRANCH  18  19
ENDBRANCH   2  18
TORSDOF 5
ENDMDL
