MODEL 1
REMARK VINA RESULT:      -8.5      0.000      0.000
REMARK  3 active torsions:
REMARK  status: ('A' for Active; 'I' for Inactive)
REMARK    1  A    between atoms: C_5  and  C_6 
REMARK    2  A    between atoms: C_6  and  O_7 
REMARK       I    between atoms: N_10  and  C_11 
REMARK       I    between atoms: C_11  and  N_12 
REMARK    3  A    between atoms: N_12  and  C_13 
ROOT
HETATM    1  C   UNL     1     -44.415  60.126 -52.377  1.00  0.00     0.105 C 
HETATM    2  C   UNL     1     -43.116  59.563 -52.984  1.00  0.00     0.064 C 
HETATM    3  C   UNL     1     -42.368  58.662 -52.009  1.00  0.00     0.131 C 
HETATM    4  N   UNL     1     -43.232  57.588 -51.503  1.00  0.00    -0.334 N 
HETATM    5  C   UNL     1     -42.909  56.233 -51.395  1.00  0.00     0.322 C 
HETATM    6  N   UNL     1     -41.629  55.902 -51.774  1.00  0.00    -0.309 N 
HETATM    7  O   UNL     1     -43.733  55.417 -50.984  1.00  0.00    -0.247 OA
HETATM    8  C   UNL     1     -44.510  58.028 -50.945  1.00  0.00     0.131 C 
HETATM    9  C   UNL     1     -45.271  58.942 -51.902  1.00  0.00     0.064 C 
HETATM   10  H   UNL     1     -40.953  56.645 -51.755  1.00  0.00     0.170 HD
ENDROOT
BRANCH   6  11
HETATM   11  C   UNL     1     -41.094  54.606 -51.957  1.00  0.00     0.037 A 
HETATM   12  C   UNL     1     -41.114  53.923 -53.180  1.00  0.00     0.039 A 
HETATM   13  C   UNL     1     -40.547  52.661 -53.241  1.00  0.00    -0.021 A 
HETATM   14  C   UNL     1     -39.958  52.086 -52.120  1.00  0.00     0.041 A 
HETATM   15  C   UNL     1     -40.440  51.716 -54.401  1.00  0.00     0.144 A 
HETATM   16  N   UNL     1     -39.464  50.834 -52.442  1.00  0.00    -0.326 N 
HETATM   17  C   UNL     1     -39.907  52.730 -50.905  1.00  0.00     0.032 A 
HETATM   18  C   UNL     1     -39.703  50.525 -53.776  1.00  0.00     0.226 A 
HETATM   19  H   UNL     1     -38.988  50.204 -51.813  1.00  0.00     0.169 HD
HETATM   20  O   UNL     1     -39.379  49.490 -54.334  1.00  0.00    -0.273 OA
HETATM   21  C   UNL     1     -40.485  54.003 -50.831  1.00  0.00     0.032 A 
ENDBRANCH   6  11
BRANCH   1  22
HETATM   22  C   UNL     1     -44.128  61.234 -51.359  1.00  0.00     0.068 A 
HETATM   23  N   UNL     1     -43.262  62.197 -51.780  1.00  0.00    -0.262 NA
HETATM   24  C   UNL     1     -43.025  63.249 -50.963  1.00  0.00     0.123 A 
HETATM   25  C   UNL     1     -43.614  63.416 -49.720  1.00  0.00    -0.044 A 
HETATM   26  C   UNL     1     -43.346  64.626 -48.884  1.00  0.00     0.049 C 
HETATM   27  C   UNL     1     -44.525  62.444 -49.314  1.00  0.00     0.010 A 
HETATM   28  C   UNL     1     -44.791  61.350 -50.139  1.00  0.00     0.031 A 
ENDBRANCH   1  22
BRANCH   1  29
HETATM   29  O   UNL     1     -45.133  60.759 -53.457  1.00  0.00    -0.383 OA
HETATM   30  H   UNL     1     -45.145  60.101 -54.181  1.00  0.00     0.211 HD
ENDBRANCH   1  29
TORSDOF 3
ENDMDL
MODEL 2
REMARK VINA RESULT:      -8.2      5.700      7.029
REMARK  3 active torsions:
REMARK  status: ('A' for Active; 'I' for Inactive)
REMARK    1  A    between atoms: C_5  and  C_6 
REMARK    2  A    between atoms: C_6  and  O_7 
REMARK       I    between atoms: N_10  and  C_11 
REMARK       I    between atoms: C_11  and  N_12 
REMARK    3  A    between atoms: N_12  and  C_13 
ROOT
HETATM    1  C   UNL     1     -43.952  57.057 -59.975  1.00  0.00     0.105 C 
HETATM    2  C   UNL     1     -42.740  56.158 -59.662  1.00  0.00     0.064 C 
HETATM    3  C   UNL     1     -42.054  56.550 -58.360  1.00  0.00     0.131 C 
HETATM    4  N   UNL     1     -43.003  56.575 -57.241  1.00  0.00    -0.334 N 
HETATM    5  C   UNL     1     -42.818  56.026 -55.970  1.00  0.00     0.322 C 
HETATM    6  N   UNL     1     -41.594  55.435 -55.759  1.00  0.00    -0.309 N 
HETATM    7  O   UNL     1     -43.706  56.082 -55.121  1.00  0.00    -0.247 OA
HETATM    8  C   UNL     1     -44.209  57.373 -57.466  1.00  0.00     0.131 C 
HETATM    9  C   UNL     1     -44.906  57.005 -58.773  1.00  0.00     0.064 C 
HETATM   10  H   UNL     1     -40.844  55.738 -56.356  1.00  0.00     0.170 HD
ENDROOT
BRANCH   6  11
HETATM   11  C   UNL     1     -41.201  54.639 -54.659  1.00  0.00     0.037 A 
HETATM   12  C   UNL     1     -40.651  53.356 -54.787  1.00  0.00     0.039 A 
HETATM   13  C   UNL     1     -40.293  52.673 -53.636  1.00  0.00    -0.021 A 
HETATM   14  C   UNL     1     -40.460  53.249 -52.382  1.00  0.00     0.041 A 
HETATM   15  C   UNL     1     -39.701  51.304 -53.482  1.00  0.00     0.144 A 
HETATM   16  N   UNL     1     -40.023  52.373 -51.403  1.00  0.00    -0.326 N 
HETATM   17  C   UNL     1     -40.984  54.510 -52.215  1.00  0.00     0.032 A 
HETATM   18  C   UNL     1     -39.554  51.189 -51.959  1.00  0.00     0.226 A 
HETATM   19  H   UNL     1     -40.031  52.542 -50.408  1.00  0.00     0.169 HD
HETATM   20  O   UNL     1     -39.110  50.239 -51.337  1.00  0.00    -0.273 OA
HETATM   21  C   UNL     1     -41.357  55.205 -53.372  1.00  0.00     0.032 A 
ENDBRANCH   6  11
BRANCH   1  22
HETATM   22  C   UNL     1     -43.515  58.442 -60.462  1.00  0.00     0.068 A 
HETATM   23  N   UNL     1     -44.504  59.376 -60.514  1.00  0.00    -0.262 NA
HETATM   24  C   UNL     1     -44.174  60.642 -60.859  1.00  0.00     0.123 A 
HETATM   25  C   UNL     1     -42.886  61.055 -61.160  1.00  0.00    -0.044 A 
HETATM   26  C   UNL     1     -42.579  62.482 -61.488  1.00  0.00     0.049 C 
HETATM   27  C   UNL     1     -41.877  60.101 -61.069  1.00  0.00     0.010 A 
HETATM   28  C   UNL     1     -42.189  58.788 -60.712  1.00  0.00     0.031 A 
ENDBRANCH   1  22
BRANCH   1  29
HETATM   29  O   UNL     1     -44.640  56.447 -61.087  1.00  0.00    -0.383 OA
HETATM   30  H   UNL     1     -45.292  55.839 -60.687  1.00  0.00     0.211 HD
ENDBRANCH   1  29
TORSDOF 3
ENDMDL
MODEL 3
REMARK VINA RESULT:      -8.1      2.445      9.824
REMARK  3 active torsions:
REMARK  status: ('A' for Active; 'I' for Inactive)
REMARK    1  A    between atoms: C_5  and  C_6 
REMARK    2  A    between atoms: C_6  and  O_7 
REMARK       I    between atoms: N_10  and  C_11 
REMARK       I    between atoms: C_11  and  N_12 
REMARK    3  A    between atoms: N_12  and  C_13 
ROOT
HETATM    1  C   UNL     1     -40.655  54.452 -50.497  1.00  0.00     0.105 C 
HETATM    2  C   UNL     1     -40.535  55.904 -50.997  1.00  0.00     0.064 C 
HETATM    3  C   UNL     1     -41.712  56.310 -51.874  1.00  0.00     0.131 C 
HETATM    4  N   UNL     1     -42.991  56.084 -51.191  1.00  0.00    -0.334 N 
HETATM    5  C   UNL     1     -44.072  56.967 -51.119  1.00  0.00     0.322 C 
HETATM    6  N   UNL     1     -43.908  58.151 -51.799  1.00  0.00    -0.309 N 
HETATM    7  O   UNL     1     -45.085  56.676 -50.486  1.00  0.00    -0.247 OA
HETATM    8  C   UNL     1     -43.176  54.740 -50.644  1.00  0.00     0.131 C 
HETATM    9  C   UNL     1     -42.001  54.308 -49.771  1.00  0.00     0.064 C 
HETATM   10  H   UNL     1     -43.232  58.148 -52.542  1.00  0.00     0.170 HD
ENDROOT
BRANCH   6  11
HETATM   11  C   UNL     1     -44.735  59.296 -51.743  1.00  0.00     0.037 A 
HETATM   12  C   UNL     1     -44.962  60.033 -50.573  1.00  0.00     0.039 A 
HETATM   13  C   UNL     1     -45.784  61.147 -50.643  1.00  0.00    -0.021 A 
HETATM   14  C   UNL     1     -46.361  61.535 -51.847  1.00  0.00     0.041 A 
HETATM   15  C   UNL     1     -46.200  62.097 -49.560  1.00  0.00     0.144 A 
HETATM   16  N   UNL     1     -47.127  62.672 -51.653  1.00  0.00    -0.326 N 
HETATM   17  C   UNL     1     -46.152  60.846 -53.019  1.00  0.00     0.032 A 
HETATM   18  C   UNL     1     -47.094  63.082 -50.325  1.00  0.00     0.226 A 
HETATM   19  H   UNL     1     -47.651  63.163 -52.361  1.00  0.00     0.169 HD
HETATM   20  O   UNL     1     -47.674  64.050 -49.866  1.00  0.00    -0.273 OA
HETATM   21  C   UNL     1     -45.330  59.715 -52.957  1.00  0.00     0.032 A 
ENDBRANCH   6  11
BRANCH   1  22
HETATM   22  C   UNL     1     -40.349  53.445 -51.610  1.00  0.00     0.068 A 
HETATM   23  N   UNL     1     -39.810  52.266 -51.193  1.00  0.00    -0.262 NA
HETATM   24  C   UNL     1     -39.589  51.299 -52.113  1.00  0.00     0.123 A 
HETATM   25  C   UNL     1     -39.881  51.429 -53.462  1.00  0.00    -0.044 A 
HETATM   26  C   UNL     1     -39.657  50.305 -54.422  1.00  0.00     0.049 C 
HETATM   27  C   UNL     1     -40.465  52.625 -53.872  1.00  0.00     0.010 A 
HETATM   28  C   UNL     1     -40.707  53.638 -52.942  1.00  0.00     0.031 A 
ENDBRANCH   1  22
BRANCH   1  29
HETATM   29  O   UNL     1     -39.620  54.271 -49.507  1.00  0.00    -0.383 OA
HETATM   30  H   UNL     1     -39.326  55.173 -49.271  1.00  0.00     0.211 HD
ENDBRANCH   1  29
TORSDOF 3
ENDMDL
MODEL 4
REMARK VINA RESULT:      -7.8      5.461      7.236
REMARK  3 active torsions:
REMARK  status: ('A' for Active; 'I' for Inactive)
REMARK    1  A    between atoms: C_5  and  C_6 
REMARK    2  A    between atoms: C_6  and  O_7 
REMARK       I    between atoms: N_10  and  C_11 
REMARK       I    between atoms: C_11  and  N_12 
REMARK    3  A    between atoms: N_12  and  C_13 
ROOT
HETATM    1  C   UNL     1     -42.615  57.290 -59.580  1.00  0.00     0.105 C 
HETATM    2  C   UNL     1     -41.818  57.779 -58.355  1.00  0.00     0.064 C 
HETATM    3  C   UNL     1     -42.541  57.491 -57.046  1.00  0.00     0.131 C 
HETATM    4  N   UNL     1     -42.886  56.070 -56.927  1.00  0.00    -0.334 N 
HETATM    5  C   UNL     1     -42.703  55.252 -55.808  1.00  0.00     0.322 C 
HETATM    6  N   UNL     1     -42.175  55.879 -54.703  1.00  0.00    -0.309 N 
HETATM    7  O   UNL     1     -43.003  54.060 -55.840  1.00  0.00    -0.247 OA
HETATM    8  C   UNL     1     -43.609  55.507 -58.067  1.00  0.00     0.131 C 
HETATM    9  C   UNL     1     -42.908  55.794 -59.391  1.00  0.00     0.064 C 
HETATM   10  H   UNL     1     -42.291  56.877 -54.660  1.00  0.00     0.170 HD
ENDROOT
BRANCH   6  11
HETATM   11  C   UNL     1     -41.704  55.276 -53.515  1.00  0.00     0.037 A 
HETATM   12  C   UNL     1     -42.089  55.686 -52.231  1.00  0.00     0.039 A 
HETATM   13  C   UNL     1     -41.570  55.010 -51.139  1.00  0.00    -0.021 A 
HETATM   14  C   UNL     1     -40.697  53.941 -51.309  1.00  0.00     0.041 A 
HETATM   15  C   UNL     1     -41.799  55.239 -49.675  1.00  0.00     0.144 A 
HETATM   16  N   UNL     1     -40.330  53.437 -50.073  1.00  0.00    -0.326 N 
HETATM   17  C   UNL     1     -40.305  53.501 -52.552  1.00  0.00     0.032 A 
HETATM   18  C   UNL     1     -40.934  54.144 -49.040  1.00  0.00     0.226 A 
HETATM   19  H   UNL     1     -39.708  52.659 -49.909  1.00  0.00     0.169 HD
HETATM   20  O   UNL     1     -40.792  53.923 -47.849  1.00  0.00    -0.273 OA
HETATM   21  C   UNL     1     -40.818  54.182 -53.662  1.00  0.00     0.032 A 
ENDBRANCH   6  11
BRANCH   1  22
HETATM   22  C   UNL     1     -43.808  58.204 -59.879  1.00  0.00     0.068 A 
HETATM   23  N   UNL     1     -44.980  57.562 -60.138  1.00  0.00    -0.262 NA
HETATM   24  C   UNL     1     -46.092  58.308 -60.331  1.00  0.00     0.123 A 
HETATM   25  C   UNL     1     -46.118  59.692 -60.278  1.00  0.00    -0.044 A 
HETATM   26  C   UNL     1     -47.391  60.458 -60.453  1.00  0.00     0.049 C 
HETATM   27  C   UNL     1     -44.922  60.338 -59.977  1.00  0.00     0.010 A 
HETATM   28  C   UNL     1     -43.760  59.592 -59.770  1.00  0.00     0.031 A 
ENDBRANCH   1  22
BRANCH   1  29
HETATM   29  O   UNL     1     -41.735  57.408 -60.717  1.00  0.00    -0.383 OA
HETATM   30  H   UNL     1     -42.323  57.515 -61.491  1.00  0.00     0.211 HD
ENDBRANCH   1  29
TORSDOF 3
ENDMDL
MODEL 5
REMARK VINA RESULT:      -7.7      5.780      7.504
REMARK  3 active torsions:
REMARK  status: ('A' for Active; 'I' for Inactive)
REMARK    1  A    between atoms: C_5  and  C_6 
REMARK    2  A    between atoms: C_6  and  O_7 
REMARK       I    between atoms: N_10  and  C_11 
REMARK       I    between atoms: C_11  and  N_12 
REMARK    3  A    between atoms: N_12  and  C_13 
ROOT
HETATM    1  C   UNL     1     -44.086  57.231 -59.745  1.00  0.00     0.105 C 
HETATM    2  C   UNL     1     -42.908  56.432 -59.153  1.00  0.00     0.064 C 
HETATM    3  C   UNL     1     -42.400  57.038 -57.851  1.00  0.00     0.131 C 
HETATM    4  N   UNL     1     -43.485  57.195 -56.874  1.00  0.00    -0.334 N 
HETATM    5  C   UNL     1     -43.453  56.846 -55.521  1.00  0.00     0.322 C 
HETATM    6  N   UNL     1     -42.255  56.339 -55.074  1.00  0.00    -0.309 N 
HETATM    7  O   UNL     1     -44.442  56.996 -54.806  1.00  0.00    -0.247 OA
HETATM    8  C   UNL     1     -44.665  57.905 -57.364  1.00  0.00     0.131 C 
HETATM    9  C   UNL     1     -45.184  57.322 -58.676  1.00  0.00     0.064 C 
HETATM   10  H   UNL     1     -41.442  56.577 -55.613  1.00  0.00     0.170 HD
ENDROOT
BRANCH   6  11
HETATM   11  C   UNL     1     -41.992  55.729 -53.826  1.00  0.00     0.037 A 
HETATM   12  C   UNL     1     -41.837  56.443 -52.630  1.00  0.00     0.039 A 
HETATM   13  C   UNL     1     -41.594  55.735 -51.464  1.00  0.00    -0.021 A 
HETATM   14  C   UNL     1     -41.518  54.347 -51.474  1.00  0.00     0.041 A 
HETATM   15  C   UNL     1     -41.381  56.236 -50.067  1.00  0.00     0.144 A 
HETATM   16  N   UNL     1     -41.274  53.883 -50.193  1.00  0.00    -0.326 N 
HETATM   17  C   UNL     1     -41.677  53.609 -52.625  1.00  0.00     0.032 A 
HETATM   18  C   UNL     1     -41.176  54.932 -49.287  1.00  0.00     0.226 A 
HETATM   19  H   UNL     1     -41.176  52.916 -49.920  1.00  0.00     0.169 HD
HETATM   20  O   UNL     1     -40.966  54.821 -48.091  1.00  0.00    -0.273 OA
HETATM   21  C   UNL     1     -41.915  54.316 -53.809  1.00  0.00     0.032 A 
ENDBRANCH   6  11
BRANCH   1  22
HETATM   22  C   UNL     1     -43.615  58.543 -60.379  1.00  0.00     0.068 A 
HETATM   23  N   UNL     1     -42.284  58.607 -60.659  1.00  0.00    -0.262 NA
HETATM   24  C   UNL     1     -41.813  59.706 -61.293  1.00  0.00     0.123 A 
HETATM   25  C   UNL     1     -42.602  60.775 -61.684  1.00  0.00    -0.044 A 
HETATM   26  C   UNL     1     -42.029  61.941 -62.425  1.00  0.00     0.049 C 
HETATM   27  C   UNL     1     -43.967  60.684 -61.426  1.00  0.00     0.010 A 
HETATM   28  C   UNL     1     -44.480  59.561 -60.775  1.00  0.00     0.031 A 
ENDBRANCH   1  22
BRANCH   1  29
HETATM   29  O   UNL     1     -44.615  56.438 -60.828  1.00  0.00    -0.383 OA
HETATM   30  H   UNL     1     -44.676  57.047 -61.591  1.00  0.00     0.211 HD
ENDBRANCH   1  29
TORSDOF 3
ENDMDL
MODEL 6
REMARK VINA RESULT:      -7.6      1.371      2.004
REMARK  3 active torsions:
REMARK  status: ('A' for Active; 'I' for Inactive)
REMARK    1  A    between atoms: C_5  and  C_6 
REMARK    2  A    between atoms: C_6  and  O_7 
REMARK       I    between atoms: N_10  and  C_11 
REMARK       I    between atoms: C_11  and  N_12 
REMARK    3  A    between atoms: N_12  and  C_13 
ROOT
HETATM    1  C   UNL     1     -43.567  60.857 -53.085  1.00  0.00     0.105 C 
HETATM    2  C   UNL     1     -42.159  60.230 -53.100  1.00  0.00     0.064 C 
HETATM    3  C   UNL     1     -42.101  58.927 -52.314  1.00  0.00     0.131 C 
HETATM    4  N   UNL     1     -43.116  57.975 -52.781  1.00  0.00    -0.334 N 
HETATM    5  C   UNL     1     -42.930  56.617 -53.052  1.00  0.00     0.322 C 
HETATM    6  N   UNL     1     -41.663  56.138 -52.814  1.00  0.00    -0.309 N 
HETATM    7  O   UNL     1     -43.855  55.923 -53.473  1.00  0.00    -0.247 OA
HETATM    8  C   UNL     1     -44.480  58.498 -52.841  1.00  0.00     0.131 C 
HETATM    9  C   UNL     1     -44.559  59.811 -53.614  1.00  0.00     0.064 C 
HETATM   10  H   UNL     1     -41.102  56.665 -52.167  1.00  0.00     0.170 HD
ENDROOT
BRANCH   6  11
HETATM   11  C   UNL     1     -41.137  54.877 -53.176  1.00  0.00     0.037 A 
HETATM   12  C   UNL     1     -40.947  53.826 -52.269  1.00  0.00     0.039 A 
HETATM   13  C   UNL     1     -40.435  52.629 -52.743  1.00  0.00    -0.021 A 
HETATM   14  C   UNL     1     -40.127  52.466 -54.089  1.00  0.00     0.041 A 
HETATM   15  C   UNL     1     -40.126  51.361 -52.004  1.00  0.00     0.144 A 
HETATM   16  N   UNL     1     -39.641  51.188 -54.307  1.00  0.00    -0.326 N 
HETATM   17  C   UNL     1     -40.311  53.469 -55.013  1.00  0.00     0.032 A 
HETATM   18  C   UNL     1     -39.602  50.456 -53.125  1.00  0.00     0.226 A 
HETATM   19  H   UNL     1     -39.345  50.808 -55.193  1.00  0.00     0.169 HD
HETATM   20  O   UNL     1     -39.218  49.304 -53.017  1.00  0.00    -0.273 OA
HETATM   21  C   UNL     1     -40.821  54.685 -54.542  1.00  0.00     0.032 A 
ENDBRANCH   6  11
BRANCH   1  22
HETATM   22  C   UNL     1     -43.884  61.500 -51.732  1.00  0.00     0.068 A 
HETATM   23  N   UNL     1     -45.051  61.097 -51.157  1.00  0.00    -0.262 NA
HETATM   24  C   UNL     1     -45.354  61.564 -49.924  1.00  0.00     0.123 A 
HETATM   25  C   UNL     1     -44.548  62.428 -49.200  1.00  0.00    -0.044 A 
HETATM   26  C   UNL     1     -44.918  62.870 -47.820  1.00  0.00     0.049 C 
HETATM   27  C   UNL     1     -43.341  62.805 -49.781  1.00  0.00     0.010 A 
HETATM   28  C   UNL     1     -43.001  62.336 -51.051  1.00  0.00     0.031 A 
ENDBRANCH   1  22
BRANCH   1  29
HETATM   29  O   UNL     1     -43.545  61.939 -54.040  1.00  0.00    -0.383 OA
HETATM   30  H   UNL     1     -43.449  62.753 -53.507  1.00  0.00     0.211 HD
ENDBRANCH   1  29
TORSDOF 3
ENDMDL
MODEL 7
REMARK VINA RESULT:      -7.6      5.205     10.052
REMARK  3 active torsions:
REMARK  status: ('A' for Active; 'I' for Inactive)
REMARK    1  A    between atoms: C_5  and  C_6 
REMARK    2  A    between atoms: C_6  and  O_7 
REMARK       I    between atoms: N_10  and  C_11 
REMARK       I    between atoms: C_11  and  N_12 
REMARK    3  A    between atoms: N_12  and  C_13 
ROOT
HETATM    1  C   UNL     1     -41.871  54.578 -53.118  1.00  0.00     0.105 C 
HETATM    2  C   UNL     1     -41.021  55.759 -53.627  1.00  0.00     0.064 C 
HETATM    3  C   UNL     1     -40.904  55.770 -55.146  1.00  0.00     0.131 C 
HETATM    4  N   UNL     1     -42.226  55.747 -55.785  1.00  0.00    -0.334 N 
HETATM    5  C   UNL     1     -42.660  56.549 -56.844  1.00  0.00     0.322 C 
HETATM    6  N   UNL     1     -41.719  57.417 -57.347  1.00  0.00    -0.309 N 
HETATM    7  O   UNL     1     -43.808  56.460 -57.275  1.00  0.00    -0.247 OA
HETATM    8  C   UNL     1     -43.119  54.682 -55.330  1.00  0.00     0.131 C 
HETATM    9  C   UNL     1     -43.241  54.645 -53.809  1.00  0.00     0.064 C 
HETATM   10  H   UNL     1     -40.758  57.177 -57.179  1.00  0.00     0.170 HD
ENDROOT
BRANCH   6  11
HETATM   11  C   UNL     1     -41.925  58.468 -58.270  1.00  0.00     0.037 A 
HETATM   12  C   UNL     1     -42.044  59.814 -57.899  1.00  0.00     0.039 A 
HETATM   13  C   UNL     1     -42.232  60.759 -58.894  1.00  0.00    -0.021 A 
HETATM   14  C   UNL     1     -42.288  60.387 -60.232  1.00  0.00     0.041 A 
HETATM   15  C   UNL     1     -42.397  62.246 -58.782  1.00  0.00     0.144 A 
HETATM   16  N   UNL     1     -42.476  61.508 -61.022  1.00  0.00    -0.326 N 
HETATM   17  C   UNL     1     -42.164  59.078 -60.637  1.00  0.00     0.032 A 
HETATM   18  C   UNL     1     -42.553  62.662 -60.250  1.00  0.00     0.226 A 
HETATM   19  H   UNL     1     -42.550  61.520 -62.028  1.00  0.00     0.169 HD
HETATM   20  O   UNL     1     -42.716  63.792 -60.676  1.00  0.00    -0.273 OA
HETATM   21  C   UNL     1     -41.981  58.114 -59.639  1.00  0.00     0.032 A 
ENDBRANCH   6  11
BRANCH   1  22
HETATM   22  C   UNL     1     -41.106  53.254 -53.206  1.00  0.00     0.068 A 
HETATM   23  N   UNL     1     -40.426  52.901 -52.081  1.00  0.00    -0.262 NA
HETATM   24  C   UNL     1     -39.794  51.705 -52.060  1.00  0.00     0.123 A 
HETATM   25  C   UNL     1     -39.797  50.806 -53.115  1.00  0.00    -0.044 A 
HETATM   26  C   UNL     1     -39.119  49.478 -53.012  1.00  0.00     0.049 C 
HETATM   27  C   UNL     1     -40.526  51.160 -54.247  1.00  0.00     0.010 A 
HETATM   28  C   UNL     1     -41.189  52.387 -54.294  1.00  0.00     0.031 A 
ENDBRANCH   1  22
BRANCH   1  29
HETATM   29  O   UNL     1     -42.095  54.810 -51.711  1.00  0.00    -0.383 OA
HETATM   30  H   UNL     1     -41.863  55.749 -51.563  1.00  0.00     0.211 HD
ENDBRANCH   1  29
TORSDOF 3
ENDMDL
MODEL 8
REMARK VINA RESULT:      -7.5      1.696      2.432
REMARK  3 active torsions:
REMARK  status: ('A' for Active; 'I' for Inactive)
REMARK    1  A    between atoms: C_5  and  C_6 
REMARK    2  A    between atoms: C_6  and  O_7 
REMARK       I    between atoms: N_10  and  C_11 
REMARK       I    between atoms: C_11  and  N_12 
REMARK    3  A    between atoms: N_12  and  C_13 
ROOT
HETATM    1  C   UNL     1     -45.303  61.326 -51.409  1.00  0.00     0.105 C 
HETATM    2  C   UNL     1     -43.873  60.960 -51.853  1.00  0.00     0.064 C 
HETATM    3  C   UNL     1     -43.284  59.829 -51.022  1.00  0.00     0.131 C 
HETATM    4  N   UNL     1     -44.161  58.652 -51.021  1.00  0.00    -0.334 N 
HETATM    5  C   UNL     1     -43.781  57.322 -51.217  1.00  0.00     0.322 C 
HETATM    6  N   UNL     1     -42.432  57.116 -51.390  1.00  0.00    -0.309 N 
HETATM    7  O   UNL     1     -44.617  56.420 -51.228  1.00  0.00    -0.247 OA
HETATM    8  C   UNL     1     -45.552  58.912 -50.652  1.00  0.00     0.131 C 
HETATM    9  C   UNL     1     -46.159  60.052 -51.465  1.00  0.00     0.064 C 
HETATM   10  H   UNL     1     -41.823  57.828 -51.026  1.00  0.00     0.170 HD
ENDROOT
BRANCH   6  11
HETATM   11  C   UNL     1     -41.789  55.925 -51.796  1.00  0.00     0.037 A 
HETATM   12  C   UNL     1     -41.407  54.908 -50.911  1.00  0.00     0.039 A 
HETATM   13  C   UNL     1     -40.793  53.778 -51.428  1.00  0.00    -0.021 A 
HETATM   14  C   UNL     1     -40.571  53.647 -52.794  1.00  0.00     0.041 A 
HETATM   15  C   UNL     1     -40.280  52.560 -50.720  1.00  0.00     0.144 A 
HETATM   16  N   UNL     1     -39.953  52.436 -53.054  1.00  0.00    -0.326 N 
HETATM   17  C   UNL     1     -40.942  54.617 -53.696  1.00  0.00     0.032 A 
HETATM   18  C   UNL     1     -39.738  51.719 -51.882  1.00  0.00     0.226 A 
HETATM   19  H   UNL     1     -39.682  52.090 -53.962  1.00  0.00     0.169 HD
HETATM   20  O   UNL     1     -39.213  50.621 -51.808  1.00  0.00    -0.273 OA
HETATM   21  C   UNL     1     -41.556  55.766 -53.183  1.00  0.00     0.032 A 
ENDBRANCH   6  11
BRANCH   1  22
HETATM   22  C   UNL     1     -45.301  62.110 -50.093  1.00  0.00     0.068 A 
HETATM   23  N   UNL     1     -46.257  61.740 -49.196  1.00  0.00    -0.262 NA
HETATM   24  C   UNL     1     -46.263  62.335 -47.982  1.00  0.00     0.123 A 
HETATM   25  C   UNL     1     -45.352  63.300 -47.585  1.00  0.00    -0.044 A 
HETATM   26  C   UNL     1     -45.383  63.887 -46.209  1.00  0.00     0.049 C 
HETATM   27  C   UNL     1     -44.357  63.646 -48.495  1.00  0.00     0.010 A 
HETATM   28  C   UNL     1     -44.325  63.045 -49.755  1.00  0.00     0.031 A 
ENDBRANCH   1  22
BRANCH   1  29
HETATM   29  O   UNL     1     -45.824  62.230 -52.405  1.00  0.00    -0.383 OA
HETATM   30  H   UNL     1     -45.418  61.949 -53.249  1.00  0.00     0.211 HD
ENDBRANCH   1  29
TORSDOF 3
ENDMDL
MODEL 9
REMARK VINA RESULT:      -7.4      3.033      9.882
REMARK  3 active torsions:
REMARK  status: ('A' for Active; 'I' for Inactive)
REMARK    1  A    between atoms: C_5  and  C_6 
REMARK    2  A    between atoms: C_6  and  O_7 
REMARK       I    between atoms: N_10  and  C_11 
REMARK       I    between atoms: C_11  and  N_12 
REMARK    3  A    between atoms: N_12  and  C_13 
ROOT
HETATM    1  C   UNL     1     -42.158  56.848 -53.726  1.00  0.00     0.105 C 
HETATM    2  C   UNL     1     -43.626  57.030 -53.292  1.00  0.00     0.064 C 
HETATM    3  C   UNL     1     -43.748  57.402 -51.821  1.00  0.00     0.131 C 
HETATM    4  N   UNL     1     -42.944  58.588 -51.500  1.00  0.00    -0.334 N 
HETATM    5  C   UNL     1     -43.345  59.696 -50.749  1.00  0.00     0.322 C 
HETATM    6  N   UNL     1     -44.620  59.628 -50.237  1.00  0.00    -0.309 N 
HETATM    7  O   UNL     1     -42.588  60.649 -50.574  1.00  0.00    -0.247 OA
HETATM    8  C   UNL     1     -41.543  58.521 -51.915  1.00  0.00     0.131 C 
HETATM    9  C   UNL     1     -41.397  58.137 -53.384  1.00  0.00     0.064 C 
HETATM   10  H   UNL     1     -45.010  58.707 -50.135  1.00  0.00     0.170 HD
ENDROOT
BRANCH   6  11
HETATM   11  C   UNL     1     -45.354  60.664 -49.616  1.00  0.00     0.037 A 
HETATM   12  C   UNL     1     -45.466  60.812 -48.227  1.00  0.00     0.039 A 
HETATM   13  C   UNL     1     -46.203  61.876 -47.733  1.00  0.00    -0.021 A 
HETATM   14  C   UNL     1     -46.809  62.785 -48.593  1.00  0.00     0.041 A 
HETATM   15  C   UNL     1     -46.492  62.262 -46.313  1.00  0.00     0.144 A 
HETATM   16  N   UNL     1     -47.477  63.750 -47.857  1.00  0.00    -0.326 N 
HETATM   17  C   UNL     1     -46.713  62.682 -49.961  1.00  0.00     0.032 A 
HETATM   18  C   UNL     1     -47.346  63.523 -46.492  1.00  0.00     0.226 A 
HETATM   19  H   UNL     1     -47.998  64.528 -48.233  1.00  0.00     0.169 HD
HETATM   20  O   UNL     1     -47.828  64.211 -45.608  1.00  0.00    -0.273 OA
HETATM   21  C   UNL     1     -45.976  61.606 -50.470  1.00  0.00     0.032 A 
ENDBRANCH   6  11
BRANCH   1  22
HETATM   22  C   UNL     1     -41.575  55.531 -53.204  1.00  0.00     0.068 A 
HETATM   23  N   UNL     1     -41.181  54.650 -54.164  1.00  0.00    -0.262 NA
HETATM   24  C   UNL     1     -40.583  53.501 -53.774  1.00  0.00     0.123 A 
HETATM   25  C   UNL     1     -40.339  53.160 -52.453  1.00  0.00    -0.044 A 
HETATM   26  C   UNL     1     -39.630  51.895 -52.090  1.00  0.00     0.049 C 
HETATM   27  C   UNL     1     -40.713  54.084 -51.481  1.00  0.00     0.010 A 
HETATM   28  C   UNL     1     -41.329  55.279 -51.855  1.00  0.00     0.031 A 
ENDBRANCH   1  22
BRANCH   1  29
HETATM   29  O   UNL     1     -42.167  56.731 -55.165  1.00  0.00    -0.383 OA
HETATM   30  H   UNL     1     -41.952  57.624 -55.499  1.00  0.00     0.211 HD
ENDBRANCH   1  29
TORSDOF 3
ENDMDL
MODEL 10
REMARK VINA RESULT:      -7.3      5.362      9.407
REMARK  3 active torsions:
REMARK  status: ('A' for Active; 'I' for Inactive)
REMARK    1  A    between atoms: C_5  and  C_6 
REMARK    2  A    between atoms: C_6  and  O_7 
REMARK       I    between atoms: N_10  and  C_11 
REMARK       I    between atoms: C_11  and  N_12 
REMARK    3  A    between atoms: N_12  and  C_13 
ROOT
HETATM    1  C   UNL     1     -41.077  53.344 -54.111  1.00  0.00     0.105 C 
HETATM    2  C   UNL     1     -42.491  53.294 -54.724  1.00  0.00     0.064 C 
HETATM    3  C   UNL     1     -43.137  54.672 -54.791  1.00  0.00     0.131 C 
HETATM    4  N   UNL     1     -42.280  55.631 -55.500  1.00  0.00    -0.334 N 
HETATM    5  C   UNL     1     -42.673  56.535 -56.490  1.00  0.00     0.322 C 
HETATM    6  N   UNL     1     -44.016  56.532 -56.788  1.00  0.00    -0.309 N 
HETATM    7  O   UNL     1     -41.852  57.269 -57.037  1.00  0.00    -0.247 OA
HETATM    8  C   UNL     1     -40.904  55.714 -55.013  1.00  0.00     0.131 C 
HETATM    9  C   UNL     1     -40.241  54.342 -54.925  1.00  0.00     0.064 C 
HETATM   10  H   UNL     1     -44.629  56.174 -56.077  1.00  0.00     0.170 HD
ENDROOT
BRANCH   6  11
HETATM   11  C   UNL     1     -44.659  57.186 -57.864  1.00  0.00     0.037 A 
HETATM   12  C   UNL     1     -45.416  58.357 -57.720  1.00  0.00     0.039 A 
HETATM   13  C   UNL     1     -45.991  58.915 -58.850  1.00  0.00    -0.021 A 
HETATM   14  C   UNL     1     -45.813  58.337 -60.102  1.00  0.00     0.041 A 
HETATM   15  C   UNL     1     -46.845  60.140 -58.983  1.00  0.00     0.144 A 
HETATM   16  N   UNL     1     -46.478  59.082 -61.060  1.00  0.00    -0.326 N 
HETATM   17  C   UNL     1     -45.067  57.195 -60.286  1.00  0.00     0.032 A 
HETATM   18  C   UNL     1     -47.123  60.175 -60.491  1.00  0.00     0.226 A 
HETATM   19  H   UNL     1     -46.510  58.886 -62.049  1.00  0.00     0.169 HD
HETATM   20  O   UNL     1     -47.784  61.002 -61.094  1.00  0.00    -0.273 OA
HETATM   21  C   UNL     1     -44.489  56.619 -59.149  1.00  0.00     0.032 A 
ENDBRANCH   6  11
BRANCH   1  22
HETATM   22  C   UNL     1     -41.127  53.546 -52.594  1.00  0.00     0.068 A 
HETATM   23  N   UNL     1     -39.956  53.314 -51.939  1.00  0.00    -0.262 NA
HETATM   24  C   UNL     1     -39.906  53.550 -50.608  1.00  0.00     0.123 A 
HETATM   25  C   UNL     1     -40.974  54.022 -49.862  1.00  0.00    -0.044 A 
HETATM   26  C   UNL     1     -40.841  54.309 -48.400  1.00  0.00     0.049 C 
HETATM   27  C   UNL     1     -42.157  54.291 -50.547  1.00  0.00     0.010 A 
HETATM   28  C   UNL     1     -42.235  54.058 -51.921  1.00  0.00     0.031 A 
ENDBRANCH   1  22
BRANCH   1  29
HETATM   29  O   UNL     1     -40.495  52.039 -54.315  1.00  0.00    -0.383 OA
HETATM   30  H   UNL     1     -40.053  52.086 -55.186  1.00  0.00     0.211 HD
ENDBRANCH   1  29
TORSDOF 3
ENDMDL
