MODEL 1
REMARK VINA RESULT:      -8.2      0.000      0.000
REMARK  6 active torsions:
REMARK  status: ('A' for Active; 'I' for Inactive)
REMARK    1  A    between atoms: C_8  and  N_9 
REMARK       I    between atoms: N_9  and  C_10 
REMARK    2  A    between atoms: C_10  and  C_11 
REMARK    3  A    between atoms: C_11  and  N_12 
REMARK    4  A    between atoms: N_12  and  C_13 
REMARK    5  A    between atoms: C_13  and  C_14 
REMARK    6  A    between atoms: C_15  and  C_16 
ROOT
HETATM    1  N   UNL     1     -42.144  53.795 -53.730  1.00  0.00     0.100 N 
HETATM    2  H   UNL     1     -42.586  53.003 -54.207  1.00  0.00     0.317 HD
ENDROOT
BRANCH   1   3
HETATM    3  C   UNL     1     -42.583  55.013 -54.440  1.00  0.00     0.372 C 
BRANCH   3   4
HETATM    4  C   UNL     1     -42.870  56.183 -53.483  1.00  0.00     0.250 C 
HETATM    5  N   UNL     1     -41.712  56.671 -52.910  1.00  0.00    -0.322 N 
HETATM    6  H   UNL     1     -40.846  56.199 -53.138  1.00  0.00     0.169 HD
HETATM    7  O   UNL     1     -44.015  56.574 -53.283  1.00  0.00    -0.271 OA
BRANCH   5   8
HETATM    8  C   UNL     1     -41.586  57.732 -52.028  1.00  0.00     0.085 A 
HETATM    9  C   UNL     1     -41.342  57.520 -50.683  1.00  0.00     0.052 A 
HETATM   10  C   UNL     1     -41.175  56.289 -49.875  1.00  0.00     0.072 C 
HETATM   11  N   UNL     1     -41.280  58.760 -50.114  1.00  0.00    -0.280 N 
HETATM   12  H   UNL     1     -41.124  58.996 -49.139  1.00  0.00     0.189 HD
HETATM   13  N   UNL     1     -41.451  59.759 -50.980  1.00  0.00    -0.177 NA
HETATM   14  C   UNL     1     -41.642  59.151 -52.161  1.00  0.00     0.079 A 
HETATM   15  C   UNL     1     -41.856  60.006 -53.356  1.00  0.00     0.075 C 
ENDBRANCH   5   8
ENDBRANCH   3   4
ENDBRANCH   1   3
BRANCH   1  16
HETATM   16  C   UNL     1     -40.693  53.580 -53.760  1.00  0.00     0.250 C 
HETATM   17  C   UNL     1     -40.127  53.967 -55.132  1.00  0.00     0.048 C 
BRANCH  16  18
HETATM   18  C   UNL     1     -40.261  52.167 -53.381  1.00  0.00    -0.011 A 
HETATM   19  C   UNL     1     -40.083  51.698 -52.056  1.00  0.00     0.056 A 
HETATM   20  C   UNL     1     -39.669  50.360 -51.864  1.00  0.00     0.017 A 
HETATM   21  C   UNL     1     -39.459  49.496 -52.939  1.00  0.00     0.001 A 
HETATM   22  C   UNL     1     -39.651  49.951 -54.233  1.00  0.00     0.001 A 
HETATM   23  C   UNL     1     -40.047  51.269 -54.452  1.00  0.00     0.010 A 
BRANCH  19  24
HETATM   24  C   UNL     1     -40.254  52.556 -50.812  1.00  0.00     0.418 C 
HETATM   25  F   UNL     1     -39.383  53.593 -50.700  1.00  0.00    -0.166 F 
HETATM   26  F   UNL     1     -41.490  53.148 -50.765  1.00  0.00    -0.166 F 
HETATM   27  F   UNL     1     -40.180  51.836 -49.656  1.00  0.00    -0.166 F 
ENDBRANCH  19  24
ENDBRANCH  16  18
ENDBRANCH   1  16
TORSDOF 6
ENDMDL
MODEL 2
REMARK VINA RESULT:      -8.0      3.531      5.261
REMARK  6 active torsions:
REMARK  status: ('A' for Active; 'I' for Inactive)
REMARK    1  A    between atoms: C_8  and  N_9 
REMARK       I    between atoms: N_9  and  C_10 
REMARK    2  A    between atoms: C_10  and  C_11 
REMARK    3  A    between atoms: C_11  and  N_12 
REMARK    4  A    between atoms: N_12  and  C_13 
REMARK    5  A    between atoms: C_13  and  C_14 
REMARK    6  A    between atoms: C_15  and  C_16 
ROOT
HETATM    1  N   UNL     1     -43.226  54.607 -53.814  1.00  0.00     0.100 N 
HETATM    2  H   UNL     1     -42.909  53.862 -54.442  1.00  0.00     0.317 HD
ENDROOT
BRANCH   1   3
HETATM    3  C   UNL     1     -43.404  55.814 -54.645  1.00  0.00     0.372 C 
BRANCH   3   4
HETATM    4  C   UNL     1     -42.864  55.631 -56.073  1.00  0.00     0.250 C 
HETATM    5  N   UNL     1     -43.602  56.348 -56.995  1.00  0.00    -0.322 N 
HETATM    6  H   UNL     1     -44.407  56.857 -56.651  1.00  0.00     0.169 HD
HETATM    7  O   UNL     1     -41.901  54.906 -56.301  1.00  0.00    -0.271 OA
BRANCH   5   8
HETATM    8  C   UNL     1     -43.389  56.443 -58.360  1.00  0.00     0.085 A 
HETATM    9  C   UNL     1     -42.668  57.494 -58.901  1.00  0.00     0.052 A 
HETATM   10  C   UNL     1     -42.007  58.674 -58.295  1.00  0.00     0.072 C 
HETATM   11  N   UNL     1     -42.654  57.282 -60.249  1.00  0.00    -0.280 N 
HETATM   12  H   UNL     1     -42.224  57.854 -60.970  1.00  0.00     0.189 HD
HETATM   13  N   UNL     1     -43.293  56.175 -60.628  1.00  0.00    -0.177 NA
HETATM   14  C   UNL     1     -43.754  55.646 -59.485  1.00  0.00     0.079 A 
HETATM   15  C   UNL     1     -44.518  54.375 -59.566  1.00  0.00     0.075 C 
ENDBRANCH   5   8
ENDBRANCH   3   4
ENDBRANCH   1   3
BRANCH   1  16
HETATM   16  C   UNL     1     -42.220  54.757 -52.757  1.00  0.00     0.250 C 
HETATM   17  C   UNL     1     -41.473  56.087 -52.920  1.00  0.00     0.048 C 
BRANCH  16  18
HETATM   18  C   UNL     1     -41.233  53.597 -52.661  1.00  0.00    -0.011 A 
HETATM   19  C   UNL     1     -40.581  53.180 -51.474  1.00  0.00     0.056 A 
HETATM   20  C   UNL     1     -39.683  52.090 -51.546  1.00  0.00     0.017 A 
HETATM   21  C   UNL     1     -39.450  51.409 -52.741  1.00  0.00     0.001 A 
HETATM   22  C   UNL     1     -40.103  51.807 -53.897  1.00  0.00     0.001 A 
HETATM   23  C   UNL     1     -40.984  52.887 -53.857  1.00  0.00     0.010 A 
BRANCH  19  24
HETATM   24  C   UNL     1     -40.734  53.864 -50.125  1.00  0.00     0.418 C 
HETATM   25  F   UNL     1     -42.015  54.104 -49.741  1.00  0.00    -0.166 F 
HETATM   26  F   UNL     1     -40.213  53.108 -49.107  1.00  0.00    -0.166 F 
HETATM   27  F   UNL     1     -40.059  55.046 -50.049  1.00  0.00    -0.166 F 
ENDBRANCH  19  24
ENDBRANCH  16  18
ENDBRANCH   1  16
TORSDOF 6
ENDMDL
MODEL 3
REMARK VINA RESULT:      -7.9      0.309      1.838
REMARK  6 active torsions:
REMARK  status: ('A' for Active; 'I' for Inactive)
REMARK    1  A    between atoms: C_8  and  N_9 
REMARK       I    between atoms: N_9  and  C_10 
REMARK    2  A    between atoms: C_10  and  C_11 
REMARK    3  A    between atoms: C_11  and  N_12 
REMARK    4  A    between atoms: N_12  and  C_13 
REMARK    5  A    between atoms: C_13  and  C_14 
REMARK    6  A    between atoms: C_15  and  C_16 
ROOT
HETATM    1  N   UNL     1     -42.210  53.651 -54.098  1.00  0.00     0.100 N 
HETATM    2  H   UNL     1     -42.494  52.951 -54.791  1.00  0.00     0.317 HD
ENDROOT
BRANCH   1   3
HETATM    3  C   UNL     1     -42.637  54.963 -54.624  1.00  0.00     0.372 C 
BRANCH   3   4
HETATM    4  C   UNL     1     -42.811  56.015 -53.517  1.00  0.00     0.250 C 
HETATM    5  N   UNL     1     -41.603  56.575 -53.149  1.00  0.00    -0.322 N 
HETATM    6  H   UNL     1     -40.769  56.216 -53.597  1.00  0.00     0.169 HD
HETATM    7  O   UNL     1     -43.915  56.267 -53.046  1.00  0.00    -0.271 OA
BRANCH   5   8
HETATM    8  C   UNL     1     -41.382  57.569 -52.210  1.00  0.00     0.085 A 
HETATM    9  C   UNL     1     -41.360  58.904 -52.573  1.00  0.00     0.052 A 
HETATM   10  C   UNL     1     -41.527  59.593 -53.874  1.00  0.00     0.072 C 
HETATM   11  N   UNL     1     -41.118  59.600 -51.424  1.00  0.00    -0.280 N 
HETATM   12  H   UNL     1     -41.026  60.604 -51.306  1.00  0.00     0.189 HD
HETATM   13  N   UNL     1     -40.994  58.829 -50.342  1.00  0.00    -0.177 NA
HETATM   14  C   UNL     1     -41.150  57.578 -50.803  1.00  0.00     0.079 A 
HETATM   15  C   UNL     1     -41.075  56.464 -49.825  1.00  0.00     0.075 C 
ENDBRANCH   5   8
ENDBRANCH   3   4
ENDBRANCH   1   3
BRANCH   1  16
HETATM   16  C   UNL     1     -40.760  53.531 -53.910  1.00  0.00     0.250 C 
HETATM   17  C   UNL     1     -40.023  53.935 -55.192  1.00  0.00     0.048 C 
BRANCH  16  18
HETATM   18  C   UNL     1     -40.302  52.154 -53.440  1.00  0.00    -0.011 A 
HETATM   19  C   UNL     1     -40.101  51.781 -52.087  1.00  0.00     0.056 A 
HETATM   20  C   UNL     1     -39.664  50.465 -51.809  1.00  0.00     0.017 A 
HETATM   21  C   UNL     1     -39.453  49.531 -52.824  1.00  0.00     0.001 A 
HETATM   22  C   UNL     1     -39.668  49.893 -54.144  1.00  0.00     0.001 A 
HETATM   23  C   UNL     1     -40.087  51.187 -54.448  1.00  0.00     0.010 A 
BRANCH  19  24
HETATM   24  C   UNL     1     -40.269  52.720 -50.904  1.00  0.00     0.418 C 
HETATM   25  F   UNL     1     -41.448  53.394 -50.864  1.00  0.00    -0.166 F 
HETATM   26  F   UNL     1     -40.223  52.050 -49.709  1.00  0.00    -0.166 F 
HETATM   27  F   UNL     1     -39.270  53.644 -50.813  1.00  0.00    -0.166 F 
ENDBRANCH  19  24
ENDBRANCH  16  18
ENDBRANCH   1  16
TORSDOF 6
ENDMDL
MODEL 4
REMARK VINA RESULT:      -7.5      4.019      6.022
REMARK  6 active torsions:
REMARK  status: ('A' for Active; 'I' for Inactive)
REMARK    1  A    between atoms: C_8  and  N_9 
REMARK       I    between atoms: N_9  and  C_10 
REMARK    2  A    between atoms: C_10  and  C_11 
REMARK    3  A    between atoms: C_11  and  N_12 
REMARK    4  A    between atoms: N_12  and  C_13 
REMARK    5  A    between atoms: C_13  and  C_14 
REMARK    6  A    between atoms: C_15  and  C_16 
ROOT
HETATM    1  N   UNL     1     -42.160  56.153 -54.080  1.00  0.00     0.100 N 
HETATM    2  H   UNL     1     -43.088  56.587 -54.044  1.00  0.00     0.317 HD
ENDROOT
BRANCH   1   3
HETATM    3  C   UNL     1     -41.624  56.415 -55.430  1.00  0.00     0.372 C 
BRANCH   3   4
HETATM    4  C   UNL     1     -42.733  56.639 -56.472  1.00  0.00     0.250 C 
HETATM    5  N   UNL     1     -42.288  56.384 -57.755  1.00  0.00    -0.322 N 
HETATM    6  H   UNL     1     -41.315  56.132 -57.868  1.00  0.00     0.169 HD
HETATM    7  O   UNL     1     -43.851  57.016 -56.139  1.00  0.00    -0.271 OA
BRANCH   5   8
HETATM    8  C   UNL     1     -43.016  56.452 -58.932  1.00  0.00     0.085 A 
HETATM    9  C   UNL     1     -42.996  57.588 -59.722  1.00  0.00     0.052 A 
HETATM   10  C   UNL     1     -42.310  58.894 -59.583  1.00  0.00     0.072 C 
HETATM   11  N   UNL     1     -43.810  57.319 -60.783  1.00  0.00    -0.280 N 
HETATM   12  H   UNL     1     -44.043  57.925 -61.565  1.00  0.00     0.189 HD
HETATM   13  N   UNL     1     -44.348  56.099 -60.756  1.00  0.00    -0.177 NA
HETATM   14  C   UNL     1     -43.875  55.550 -59.626  1.00  0.00     0.079 A 
HETATM   15  C   UNL     1     -44.288  54.161 -59.304  1.00  0.00     0.075 C 
ENDBRANCH   5   8
ENDBRANCH   3   4
ENDBRANCH   1   3
BRANCH   1  16
HETATM   16  C   UNL     1     -42.322  54.728 -53.772  1.00  0.00     0.250 C 
HETATM   17  C   UNL     1     -43.799  54.405 -53.512  1.00  0.00     0.048 C 
BRANCH  16  18
HETATM   18  C   UNL     1     -41.455  54.233 -52.619  1.00  0.00    -0.011 A 
HETATM   19  C   UNL     1     -40.510  53.180 -52.705  1.00  0.00     0.056 A 
HETATM   20  C   UNL     1     -39.785  52.829 -51.543  1.00  0.00     0.017 A 
HETATM   21  C   UNL     1     -39.961  53.505 -50.335  1.00  0.00     0.001 A 
HETATM   22  C   UNL     1     -40.873  54.546 -50.258  1.00  0.00     0.001 A 
HETATM   23  C   UNL     1     -41.610  54.905 -51.385  1.00  0.00     0.010 A 
BRANCH  19  24
HETATM   24  C   UNL     1     -40.256  52.355 -53.957  1.00  0.00     0.418 C 
HETATM   25  F   UNL     1     -41.322  51.643 -54.406  1.00  0.00    -0.166 F 
HETATM   26  F   UNL     1     -39.902  53.141 -55.023  1.00  0.00    -0.166 F 
HETATM   27  F   UNL     1     -39.215  51.485 -53.817  1.00  0.00    -0.166 F 
ENDBRANCH  19  24
ENDBRANCH  16  18
ENDBRANCH   1  16
TORSDOF 6
ENDMDL
MODEL 5
REMARK VINA RESULT:      -7.5      2.568      3.699
REMARK  6 active torsions:
REMARK  status: ('A' for Active; 'I' for Inactive)
REMARK    1  A    between atoms: C_8  and  N_9 
REMARK       I    between atoms: N_9  and  C_10 
REMARK    2  A    between atoms: C_10  and  C_11 
REMARK    3  A    between atoms: C_11  and  N_12 
REMARK    4  A    between atoms: N_12  and  C_13 
REMARK    5  A    between atoms: C_13  and  C_14 
REMARK    6  A    between atoms: C_15  and  C_16 
ROOT
HETATM    1  N   UNL     1     -40.652  55.157 -50.476  1.00  0.00     0.100 N 
HETATM    2  H   UNL     1     -40.589  54.404 -49.783  1.00  0.00     0.317 HD
ENDROOT
BRANCH   1   3
HETATM    3  C   UNL     1     -41.396  56.259 -49.836  1.00  0.00     0.372 C 
BRANCH   3   4
HETATM    4  C   UNL     1     -41.157  57.612 -50.525  1.00  0.00     0.250 C 
HETATM    5  N   UNL     1     -42.330  58.150 -51.018  1.00  0.00    -0.322 N 
HETATM    6  H   UNL     1     -43.173  57.600 -50.914  1.00  0.00     0.169 HD
HETATM    7  O   UNL     1     -40.031  58.092 -50.610  1.00  0.00    -0.271 OA
BRANCH   5   8
HETATM    8  C   UNL     1     -42.498  59.362 -51.667  1.00  0.00     0.085 A 
HETATM    9  C   UNL     1     -42.178  59.507 -53.006  1.00  0.00     0.052 A 
HETATM   10  C   UNL     1     -41.630  58.570 -54.014  1.00  0.00     0.072 C 
HETATM   11  N   UNL     1     -42.458  60.806 -53.318  1.00  0.00    -0.280 N 
HETATM   12  H   UNL     1     -42.341  61.277 -54.210  1.00  0.00     0.189 HD
HETATM   13  N   UNL     1     -42.945  61.513 -52.297  1.00  0.00    -0.177 NA
HETATM   14  C   UNL     1     -42.976  60.646 -51.273  1.00  0.00     0.079 A 
HETATM   15  C   UNL     1     -43.488  61.132 -49.968  1.00  0.00     0.075 C 
ENDBRANCH   5   8
ENDBRANCH   3   4
ENDBRANCH   1   3
BRANCH   1  16
HETATM   16  C   UNL     1     -41.309  54.611 -51.669  1.00  0.00     0.250 C 
HETATM   17  C   UNL     1     -42.794  54.356 -51.387  1.00  0.00     0.048 C 
BRANCH  16  18
HETATM   18  C   UNL     1     -40.647  53.356 -52.230  1.00  0.00    -0.011 A 
HETATM   19  C   UNL     1     -40.358  53.130 -53.599  1.00  0.00     0.056 A 
HETATM   20  C   UNL     1     -39.748  51.909 -53.967  1.00  0.00     0.017 A 
HETATM   21  C   UNL     1     -39.406  50.945 -53.019  1.00  0.00     0.001 A 
HETATM   22  C   UNL     1     -39.672  51.175 -51.679  1.00  0.00     0.001 A 
HETATM   23  C   UNL     1     -40.284  52.365 -51.289  1.00  0.00     0.010 A 
BRANCH  19  24
HETATM   24  C   UNL     1     -40.712  54.095 -54.720  1.00  0.00     0.418 C 
HETATM   25  F   UNL     1     -40.281  55.370 -54.544  1.00  0.00    -0.166 F 
HETATM   26  F   UNL     1     -40.159  53.714 -55.915  1.00  0.00    -0.166 F 
HETATM   27  F   UNL     1     -42.052  54.150 -54.970  1.00  0.00    -0.166 F 
ENDBRANCH  19  24
ENDBRANCH  16  18
ENDBRANCH   1  16
TORSDOF 6
ENDMDL
MODEL 6
REMARK VINA RESULT:      -7.4      3.845      5.365
REMARK  6 active torsions:
REMARK  status: ('A' for Active; 'I' for Inactive)
REMARK    1  A    between atoms: C_8  and  N_9 
REMARK       I    between atoms: N_9  and  C_10 
REMARK    2  A    between atoms: C_10  and  C_11 
REMARK    3  A    between atoms: C_11  and  N_12 
REMARK    4  A    between atoms: N_12  and  C_13 
REMARK    5  A    between atoms: C_13  and  C_14 
REMARK    6  A    between atoms: C_15  and  C_16 
ROOT
HETATM    1  N   UNL     1     -42.667  54.605 -54.513  1.00  0.00     0.100 N 
HETATM    2  H   UNL     1     -42.872  53.601 -54.494  1.00  0.00     0.317 HD
ENDROOT
BRANCH   1   3
HETATM    3  C   UNL     1     -42.080  54.890 -55.838  1.00  0.00     0.372 C 
BRANCH   3   4
HETATM    4  C   UNL     1     -42.911  55.902 -56.645  1.00  0.00     0.250 C 
HETATM    5  N   UNL     1     -42.657  55.808 -57.999  1.00  0.00    -0.322 N 
HETATM    6  H   UNL     1     -41.953  55.144 -58.295  1.00  0.00     0.169 HD
HETATM    7  O   UNL     1     -43.675  56.685 -56.089  1.00  0.00    -0.271 OA
BRANCH   5   8
HETATM    8  C   UNL     1     -43.241  56.537 -59.022  1.00  0.00     0.085 A 
HETATM    9  C   UNL     1     -44.180  55.965 -59.863  1.00  0.00     0.052 A 
HETATM   10  C   UNL     1     -44.764  54.605 -59.939  1.00  0.00     0.072 C 
HETATM   11  N   UNL     1     -44.539  56.945 -60.743  1.00  0.00    -0.280 N 
HETATM   12  H   UNL     1     -45.202  56.887 -61.510  1.00  0.00     0.189 HD
HETATM   13  N   UNL     1     -43.921  58.108 -60.536  1.00  0.00    -0.177 NA
HETATM   14  C   UNL     1     -43.118  57.880 -59.486  1.00  0.00     0.079 A 
HETATM   15  C   UNL     1     -42.285  59.004 -58.991  1.00  0.00     0.075 C 
ENDBRANCH   5   8
ENDBRANCH   3   4
ENDBRANCH   1   3
BRANCH   1  16
HETATM   16  C   UNL     1     -41.768  54.898 -53.391  1.00  0.00     0.250 C 
HETATM   17  C   UNL     1     -40.816  56.043 -53.757  1.00  0.00     0.048 C 
BRANCH  16  18
HETATM   18  C   UNL     1     -40.984  53.691 -52.884  1.00  0.00    -0.011 A 
HETATM   19  C   UNL     1     -40.773  53.373 -51.520  1.00  0.00     0.056 A 
HETATM   20  C   UNL     1     -40.014  52.221 -51.206  1.00  0.00     0.017 A 
HETATM   21  C   UNL     1     -39.498  51.389 -52.200  1.00  0.00     0.001 A 
HETATM   22  C   UNL     1     -39.722  51.692 -53.533  1.00  0.00     0.001 A 
HETATM   23  C   UNL     1     -40.455  52.828 -53.871  1.00  0.00     0.010 A 
BRANCH  19  24
HETATM   24  C   UNL     1     -41.260  54.220 -50.355  1.00  0.00     0.418 C 
HETATM   25  F   UNL     1     -40.950  53.743 -49.122  1.00  0.00    -0.166 F 
HETATM   26  F   UNL     1     -40.717  55.479 -50.376  1.00  0.00    -0.166 F 
HETATM   27  F   UNL     1     -42.608  54.434 -50.382  1.00  0.00    -0.166 F 
ENDBRANCH  19  24
ENDBRANCH  16  18
ENDBRANCH   1  16
TORSDOF 6
ENDMDL
MODEL 7
REMARK VINA RESULT:      -7.2      2.250      3.253
REMARK  6 active torsions:
REMARK  status: ('A' for Active; 'I' for Inactive)
REMARK    1  A    between atoms: C_8  and  N_9 
REMARK       I    between atoms: N_9  and  C_10 
REMARK    2  A    between atoms: C_10  and  C_11 
REMARK    3  A    between atoms: C_11  and  N_12 
REMARK    4  A    between atoms: N_12  and  C_13 
REMARK    5  A    between atoms: C_13  and  C_14 
REMARK    6  A    between atoms: C_15  and  C_16 
ROOT
HETATM    1  N   UNL     1     -41.177  55.861 -54.488  1.00  0.00     0.100 N 
HETATM    2  H   UNL     1     -40.791  56.259 -53.626  1.00  0.00     0.317 HD
ENDROOT
BRANCH   1   3
HETATM    3  C   UNL     1     -42.166  56.831 -54.996  1.00  0.00     0.372 C 
BRANCH   3   4
HETATM    4  C   UNL     1     -42.202  58.126 -54.168  1.00  0.00     0.250 C 
HETATM    5  N   UNL     1     -42.203  57.866 -52.811  1.00  0.00    -0.322 N 
HETATM    6  H   UNL     1     -42.223  56.896 -52.525  1.00  0.00     0.169 HD
HETATM    7  O   UNL     1     -42.242  59.226 -54.709  1.00  0.00    -0.271 OA
BRANCH   5   8
HETATM    8  C   UNL     1     -42.201  58.783 -51.773  1.00  0.00     0.085 A 
HETATM    9  C   UNL     1     -43.382  59.308 -51.279  1.00  0.00     0.052 A 
HETATM   10  C   UNL     1     -44.803  59.102 -51.647  1.00  0.00     0.072 C 
HETATM   11  N   UNL     1     -43.021  60.168 -50.282  1.00  0.00    -0.280 N 
HETATM   12  H   UNL     1     -43.624  60.740 -49.699  1.00  0.00     0.189 HD
HETATM   13  N   UNL     1     -41.705  60.235 -50.079  1.00  0.00    -0.177 NA
HETATM   14  C   UNL     1     -41.182  59.395 -50.985  1.00  0.00     0.079 A 
HETATM   15  C   UNL     1     -39.707  59.233 -51.011  1.00  0.00     0.075 C 
ENDBRANCH   5   8
ENDBRANCH   3   4
ENDBRANCH   1   3
BRANCH   1  16
HETATM   16  C   UNL     1     -41.747  54.550 -54.158  1.00  0.00     0.250 C 
HETATM   17  C   UNL     1     -43.272  54.650 -54.031  1.00  0.00     0.048 C 
BRANCH  16  18
HETATM   18  C   UNL     1     -41.148  53.902 -52.913  1.00  0.00    -0.011 A 
HETATM   19  C   UNL     1     -40.409  52.692 -52.901  1.00  0.00     0.056 A 
HETATM   20  C   UNL     1     -39.924  52.212 -51.663  1.00  0.00     0.017 A 
HETATM   21  C   UNL     1     -40.133  52.908 -50.472  1.00  0.00     0.001 A 
HETATM   22  C   UNL     1     -40.840  54.100 -50.489  1.00  0.00     0.001 A 
HETATM   23  C   UNL     1     -41.340  54.590 -51.694  1.00  0.00     0.010 A 
BRANCH  19  24
HETATM   24  C   UNL     1     -40.146  51.836 -54.129  1.00  0.00     0.418 C 
HETATM   25  F   UNL     1     -39.177  50.895 -53.981  1.00  0.00    -0.166 F 
HETATM   26  F   UNL     1     -41.255  51.121 -54.502  1.00  0.00    -0.166 F 
HETATM   27  F   UNL     1     -39.832  52.573 -55.233  1.00  0.00    -0.166 F 
ENDBRANCH  19  24
ENDBRANCH  16  18
ENDBRANCH   1  16
TORSDOF 6
ENDMDL
MODEL 8
REMARK VINA RESULT:      -7.2      2.717      5.041
REMARK  6 active torsions:
REMARK  status: ('A' for Active; 'I' for Inactive)
REMARK    1  A    between atoms: C_8  and  N_9 
REMARK       I    between atoms: N_9  and  C_10 
REMARK    2  A    between atoms: C_10  and  C_11 
REMARK    3  A    between atoms: C_11  and  N_12 
REMARK    4  A    between atoms: N_12  and  C_13 
REMARK    5  A    between atoms: C_13  and  C_14 
REMARK    6  A    between atoms: C_15  and  C_16 
ROOT
HETATM    1  N   UNL     1     -41.517  57.529 -51.970  1.00  0.00     0.100 N 
HETATM    2  H   UNL     1     -42.288  58.182 -51.798  1.00  0.00     0.317 HD
ENDROOT
BRANCH   1   3
HETATM    3  C   UNL     1     -40.908  57.925 -53.256  1.00  0.00     0.372 C 
BRANCH   3   4
HETATM    4  C   UNL     1     -41.920  57.925 -54.413  1.00  0.00     0.250 C 
HETATM    5  N   UNL     1     -41.637  56.943 -55.341  1.00  0.00    -0.322 N 
HETATM    6  H   UNL     1     -40.807  56.384 -55.187  1.00  0.00     0.169 HD
HETATM    7  O   UNL     1     -42.837  58.740 -54.456  1.00  0.00    -0.271 OA
BRANCH   5   8
HETATM    8  C   UNL     1     -42.347  56.633 -56.489  1.00  0.00     0.085 A 
HETATM    9  C   UNL     1     -43.034  55.437 -56.606  1.00  0.00     0.052 A 
HETATM   10  C   UNL     1     -43.198  54.281 -55.693  1.00  0.00     0.072 C 
HETATM   11  N   UNL     1     -43.609  55.455 -57.843  1.00  0.00    -0.280 N 
HETATM   12  H   UNL     1     -44.184  54.740 -58.279  1.00  0.00     0.189 HD
HETATM   13  N   UNL     1     -43.364  56.569 -58.536  1.00  0.00    -0.177 NA
HETATM   14  C   UNL     1     -42.589  57.305 -57.724  1.00  0.00     0.079 A 
HETATM   15  C   UNL     1     -42.144  58.635 -58.208  1.00  0.00     0.075 C 
ENDBRANCH   5   8
ENDBRANCH   3   4
ENDBRANCH   1   3
BRANCH   1  16
HETATM   16  C   UNL     1     -42.073  56.172 -51.970  1.00  0.00     0.250 C 
HETATM   17  C   UNL     1     -43.584  56.217 -51.714  1.00  0.00     0.048 C 
BRANCH  16  18
HETATM   18  C   UNL     1     -41.393  55.216 -50.995  1.00  0.00    -0.011 A 
HETATM   19  C   UNL     1     -40.705  54.033 -51.361  1.00  0.00     0.056 A 
HETATM   20  C   UNL     1     -40.132  53.242 -50.339  1.00  0.00     0.017 A 
HETATM   21  C   UNL     1     -40.208  53.611 -48.996  1.00  0.00     0.001 A 
HETATM   22  C   UNL     1     -40.865  54.779 -48.641  1.00  0.00     0.001 A 
HETATM   23  C   UNL     1     -41.450  55.571 -49.628  1.00  0.00     0.010 A 
BRANCH  19  24
HETATM   24  C   UNL     1     -40.585  53.517 -52.786  1.00  0.00     0.418 C 
HETATM   25  F   UNL     1     -39.777  52.436 -52.945  1.00  0.00    -0.166 F 
HETATM   26  F   UNL     1     -41.795  53.109 -53.286  1.00  0.00    -0.166 F 
HETATM   27  F   UNL     1     -40.162  54.472 -53.663  1.00  0.00    -0.166 F 
ENDBRANCH  19  24
ENDBRANCH  16  18
ENDBRANCH   1  16
TORSDOF 6
ENDMDL
MODEL 9
REMARK VINA RESULT:      -7.1      2.509      4.016
REMARK  6 active torsions:
REMARK  status: ('A' for Active; 'I' for Inactive)
REMARK    1  A    between atoms: C_8  and  N_9 
REMARK       I    between atoms: N_9  and  C_10 
REMARK    2  A    between atoms: C_10  and  C_11 
REMARK    3  A    between atoms: C_11  and  N_12 
REMARK    4  A    between atoms: N_12  and  C_13 
REMARK    5  A    between atoms: C_13  and  C_14 
REMARK    6  A    between atoms: C_15  and  C_16 
ROOT
HETATM    1  N   UNL     1     -42.014  56.431 -53.147  1.00  0.00     0.100 N 
HETATM    2  H   UNL     1     -42.864  56.810 -53.577  1.00  0.00     0.317 HD
ENDROOT
BRANCH   1   3
HETATM    3  C   UNL     1     -40.881  57.189 -53.714  1.00  0.00     0.372 C 
BRANCH   3   4
HETATM    4  C   UNL     1     -40.918  58.678 -53.333  1.00  0.00     0.250 C 
HETATM    5  N   UNL     1     -42.208  59.170 -53.315  1.00  0.00    -0.322 N 
HETATM    6  H   UNL     1     -42.950  58.537 -53.585  1.00  0.00     0.169 HD
HETATM    7  O   UNL     1     -39.886  59.301 -53.102  1.00  0.00    -0.271 OA
BRANCH   5   8
HETATM    8  C   UNL     1     -42.621  60.451 -52.989  1.00  0.00     0.085 A 
HETATM    9  C   UNL     1     -42.971  61.363 -53.970  1.00  0.00     0.052 A 
HETATM   10  C   UNL     1     -43.002  61.282 -55.450  1.00  0.00     0.072 C 
HETATM   11  N   UNL     1     -43.319  62.506 -53.311  1.00  0.00    -0.280 N 
HETATM   12  H   UNL     1     -43.624  63.390 -53.707  1.00  0.00     0.189 HD
HETATM   13  N   UNL     1     -43.237  62.410 -51.984  1.00  0.00    -0.177 NA
HETATM   14  C   UNL     1     -42.808  61.157 -51.764  1.00  0.00     0.079 A 
HETATM   15  C   UNL     1     -42.620  60.725 -50.357  1.00  0.00     0.075 C 
ENDBRANCH   5   8
ENDBRANCH   3   4
ENDBRANCH   1   3
BRANCH   1  16
HETATM   16  C   UNL     1     -41.970  54.993 -53.437  1.00  0.00     0.250 C 
HETATM   17  C   UNL     1     -43.375  54.476 -53.772  1.00  0.00     0.048 C 
BRANCH  16  18
HETATM   18  C   UNL     1     -41.339  54.150 -52.333  1.00  0.00    -0.011 A 
HETATM   19  C   UNL     1     -40.532  53.005 -52.545  1.00  0.00     0.056 A 
HETATM   20  C   UNL     1     -40.023  52.320 -51.417  1.00  0.00     0.017 A 
HETATM   21  C   UNL     1     -40.276  52.759 -50.117  1.00  0.00     0.001 A 
HETATM   22  C   UNL     1     -41.050  53.890 -49.913  1.00  0.00     0.001 A 
HETATM   23  C   UNL     1     -41.574  54.577 -51.006  1.00  0.00     0.010 A 
BRANCH  19  24
HETATM   24  C   UNL     1     -40.216  52.419 -53.912  1.00  0.00     0.418 C 
HETATM   25  F   UNL     1     -39.765  53.310 -54.833  1.00  0.00    -0.166 F 
HETATM   26  F   UNL     1     -39.226  51.472 -53.847  1.00  0.00    -0.166 F 
HETATM   27  F   UNL     1     -41.276  51.763 -54.467  1.00  0.00    -0.166 F 
ENDBRANCH  19  24
ENDBRANCH  16  18
ENDBRANCH   1  16
TORSDOF 6
ENDMDL
MODEL 10
REMARK VINA RESULT:      -7.0      5.162      8.056
REMARK  6 active torsions:
REMARK  status: ('A' for Active; 'I' for Inactive)
REMARK    1  A    between atoms: C_8  and  N_9 
REMARK       I    between atoms: N_9  and  C_10 
REMARK    2  A    between atoms: C_10  and  C_11 
REMARK    3  A    between atoms: C_11  and  N_12 
REMARK    4  A    between atoms: N_12  and  C_13 
REMARK    5  A    between atoms: C_13  and  C_14 
REMARK    6  A    between atoms: C_15  and  C_16 
ROOT
HETATM    1  N   UNL     1     -43.426  56.118 -56.125  1.00  0.00     0.100 N 
HETATM    2  H   UNL     1     -42.871  56.632 -55.433  1.00  0.00     0.317 HD
ENDROOT
BRANCH   1   3
HETATM    3  C   UNL     1     -42.974  54.713 -56.070  1.00  0.00     0.372 C 
BRANCH   3   4
HETATM    4  C   UNL     1     -41.749  54.523 -55.161  1.00  0.00     0.250 C 
HETATM    5  N   UNL     1     -41.887  53.422 -54.338  1.00  0.00    -0.322 N 
HETATM    6  H   UNL     1     -42.759  52.910 -54.390  1.00  0.00     0.169 HD
HETATM    7  O   UNL     1     -40.802  55.302 -55.198  1.00  0.00    -0.271 OA
BRANCH   5   8
HETATM    8  C   UNL     1     -40.975  52.933 -53.418  1.00  0.00     0.085 A 
HETATM    9  C   UNL     1     -40.742  53.590 -52.222  1.00  0.00     0.052 A 
HETATM   10  C   UNL     1     -41.293  54.834 -51.637  1.00  0.00     0.072 C 
HETATM   11  N   UNL     1     -39.800  52.851 -51.567  1.00  0.00    -0.280 N 
HETATM   12  H   UNL     1     -39.378  53.032 -50.662  1.00  0.00     0.189 HD
HETATM   13  N   UNL     1     -39.411  51.761 -52.232  1.00  0.00    -0.177 NA
HETATM   14  C   UNL     1     -40.119  51.794 -53.372  1.00  0.00     0.079 A 
HETATM   15  C   UNL     1     -39.918  50.690 -54.344  1.00  0.00     0.075 C 
ENDBRANCH   5   8
ENDBRANCH   3   4
ENDBRANCH   1   3
BRANCH   1  16
HETATM   16  C   UNL     1     -43.217  56.758 -57.428  1.00  0.00     0.250 C 
HETATM   17  C   UNL     1     -42.396  58.043 -57.264  1.00  0.00     0.048 C 
BRANCH  16  18
HETATM   18  C   UNL     1     -44.501  57.038 -58.202  1.00  0.00    -0.011 A 
HETATM   19  C   UNL     1     -44.978  56.270 -59.293  1.00  0.00     0.056 A 
HETATM   20  C   UNL     1     -46.186  56.662 -59.917  1.00  0.00     0.017 A 
HETATM   21  C   UNL     1     -46.920  57.761 -59.469  1.00  0.00     0.001 A 
HETATM   22  C   UNL     1     -46.461  58.499 -58.390  1.00  0.00     0.001 A 
HETATM   23  C   UNL     1     -45.268  58.143 -57.765  1.00  0.00     0.010 A 
BRANCH  19  24
HETATM   24  C   UNL     1     -44.249  55.074 -59.884  1.00  0.00     0.418 C 
HETATM   25  F   UNL     1     -44.638  54.720 -61.137  1.00  0.00    -0.166 F 
HETATM   26  F   UNL     1     -42.902  55.304 -60.002  1.00  0.00    -0.166 F 
HETATM   27  F   UNL     1     -44.335  53.960 -59.102  1.00  0.00    -0.166 F 
ENDBRANCH  19  24
ENDBRANCH  16  18
ENDBRANCH   1  16
TORSDOF 6
ENDMDL
