MODEL 1
REMARK VINA RESULT:      -8.3      0.000      0.000
REMARK  5 active torsions:
REMARK  status: ('A' for Active; 'I' for Inactive)
REMARK    1  A    between atoms: C_9  and  C_10 
REMARK       I    between atoms: C_10  and  N_11 
REMARK    2  A    between atoms: N_11  and  C_12 
REMARK    3  A    between atoms: C_12  and  C_13 
REMARK    4  A    between atoms: C_15  and  O_16 
REMARK    5  A    between atoms: O_16  and  C_17 
ROOT
HETATM    1  C   UNL     1     -42.769  54.771 -54.254  1.00  0.00     0.273 C 
HETATM    2  N   UNL     1     -42.024  55.421 -55.212  1.00  0.00    -0.351 N 
HETATM    3  O   UNL     1     -43.990  54.656 -54.310  1.00  0.00    -0.266 OA
HETATM    4  H   UNL     1     -41.030  55.496 -55.014  1.00  0.00     0.163 HD
ENDROOT
BRANCH   2   5
HETATM    5  C   UNL     1     -42.603  56.057 -56.361  1.00  0.00     0.161 C 
BRANCH   5   6
HETATM    6  C   UNL     1     -42.344  57.536 -56.367  1.00  0.00    -0.035 A 
HETATM    7  C   UNL     1     -41.987  58.200 -55.190  1.00  0.00     0.066 A 
HETATM    8  C   UNL     1     -41.781  59.570 -55.230  1.00  0.00     0.164 A 
HETATM    9  N   UNL     1     -41.878  60.309 -56.354  1.00  0.00    -0.237 NA
HETATM   10  C   UNL     1     -42.193  59.646 -57.487  1.00  0.00     0.120 A 
HETATM   11  C   UNL     1     -42.433  58.282 -57.545  1.00  0.00     0.028 A 
BRANCH   8  12
HETATM   12  O   UNL     1     -41.458  60.171 -54.030  1.00  0.00    -0.329 OA
BRANCH  12  13
HETATM   13  C   UNL     1     -41.435  59.290 -52.908  1.00  0.00     0.130 C 
HETATM   14  C   UNL     1     -40.012  59.056 -52.397  1.00  0.00     0.032 C 
HETATM   15  C   UNL     1     -40.196  58.821 -50.910  1.00  0.00     0.002 C 
HETATM   16  C   UNL     1     -41.226  59.870 -50.528  1.00  0.00     0.002 C 
HETATM   17  C   UNL     1     -42.163  59.963 -51.731  1.00  0.00     0.032 C 
ENDBRANCH  12  13
ENDBRANCH   8  12
ENDBRANCH   5   6
ENDBRANCH   2   5
BRANCH   1  18
HETATM   18  C   UNL     1     -41.948  54.216 -53.165  1.00  0.00     0.157 A 
HETATM   19  C   UNL     1     -41.147  53.037 -53.197  1.00  0.00     0.029 A 
HETATM   20  C   UNL     1     -40.854  52.033 -54.143  1.00  0.00     0.023 A 
HETATM   21  C   UNL     1     -40.558  52.964 -51.942  1.00  0.00     0.063 A 
HETATM   22  C   UNL     1     -39.984  50.986 -53.796  1.00  0.00    -0.061 A 
HETATM   23  C   UNL     1     -39.657  49.907 -54.788  1.00  0.00     0.048 C 
HETATM   24  C   UNL     1     -39.403  50.958 -52.520  1.00  0.00     0.009 A 
HETATM   25  C   UNL     1     -39.679  51.944 -51.567  1.00  0.00     0.032 A 
HETATM   26  N   UNL     1     -41.029  54.051 -51.259  1.00  0.00    -0.277 N 
HETATM   27  H   UNL     1     -40.808  54.318 -50.307  1.00  0.00     0.189 HD
HETATM   28  N   UNL     1     -41.874  54.828 -51.960  1.00  0.00    -0.168 NA
ENDBRANCH   1  18
TORSDOF 5
ENDMDL
MODEL 2
REMARK VINA RESULT:      -8.2      1.489      2.376
REMARK  5 active torsions:
REMARK  status: ('A' for Active; 'I' for Inactive)
REMARK    1  A    between atoms: C_9  and  C_10 
REMARK       I    between atoms: C_10  and  N_11 
REMARK    2  A    between atoms: N_11  and  C_12 
REMARK    3  A    between atoms: C_12  and  C_13 
REMARK    4  A    between atoms: C_15  and  O_16 
REMARK    5  A    between atoms: O_16  and  C_17 
ROOT
HETATM    1  C   UNL     1     -42.593  54.495 -54.927  1.00  0.00     0.273 C 
HETATM    2  N   UNL     1     -42.035  55.177 -55.985  1.00  0.00    -0.351 N 
HETATM    3  O   UNL     1     -43.791  54.521 -54.660  1.00  0.00    -0.266 OA
HETATM    4  H   UNL     1     -41.024  55.119 -56.057  1.00  0.00     0.163 HD
ENDROOT
BRANCH   2   5
HETATM    5  C   UNL     1     -42.797  56.013 -56.870  1.00  0.00     0.161 C 
BRANCH   5   6
HETATM    6  C   UNL     1     -42.423  57.461 -56.725  1.00  0.00    -0.035 A 
HETATM    7  C   UNL     1     -42.322  58.046 -55.459  1.00  0.00     0.066 A 
HETATM    8  C   UNL     1     -41.998  59.390 -55.367  1.00  0.00     0.164 A 
HETATM    9  N   UNL     1     -41.746  60.174 -56.435  1.00  0.00    -0.237 NA
HETATM   10  C   UNL     1     -41.818  59.585 -57.648  1.00  0.00     0.120 A 
HETATM   11  C   UNL     1     -42.148  58.252 -57.843  1.00  0.00     0.028 A 
BRANCH   8  12
HETATM   12  O   UNL     1     -41.941  59.916 -54.092  1.00  0.00    -0.329 OA
BRANCH  12  13
HETATM   13  C   UNL     1     -41.691  58.960 -53.064  1.00  0.00     0.130 C 
HETATM   14  C   UNL     1     -40.212  58.916 -52.675  1.00  0.00     0.032 C 
HETATM   15  C   UNL     1     -40.235  58.532 -51.207  1.00  0.00     0.002 C 
HETATM   16  C   UNL     1     -41.381  59.366 -50.659  1.00  0.00     0.002 C 
HETATM   17  C   UNL     1     -42.416  59.407 -51.782  1.00  0.00     0.032 C 
ENDBRANCH  12  13
ENDBRANCH   8  12
ENDBRANCH   5   6
ENDBRANCH   2   5
BRANCH   1  18
HETATM   18  C   UNL     1     -41.604  53.721 -54.157  1.00  0.00     0.157 A 
HETATM   19  C   UNL     1     -41.227  53.907 -52.795  1.00  0.00     0.029 A 
HETATM   20  C   UNL     1     -41.577  54.794 -51.756  1.00  0.00     0.023 A 
HETATM   21  C   UNL     1     -40.288  52.917 -52.539  1.00  0.00     0.063 A 
HETATM   22  C   UNL     1     -40.967  54.662 -50.497  1.00  0.00    -0.061 A 
HETATM   23  C   UNL     1     -41.325  55.596 -49.377  1.00  0.00     0.048 C 
HETATM   24  C   UNL     1     -40.032  53.641 -50.281  1.00  0.00     0.009 A 
HETATM   25  C   UNL     1     -39.672  52.749 -51.297  1.00  0.00     0.032 A 
HETATM   26  N   UNL     1     -40.157  52.233 -53.716  1.00  0.00    -0.277 N 
HETATM   27  H   UNL     1     -39.553  51.439 -53.898  1.00  0.00     0.189 HD
HETATM   28  N   UNL     1     -40.929  52.691 -54.718  1.00  0.00    -0.168 NA
ENDBRANCH   1  18
TORSDOF 5
ENDMDL
MODEL 3
REMARK VINA RESULT:      -8.1      2.421      4.849
REMARK  5 active torsions:
REMARK  status: ('A' for Active; 'I' for Inactive)
REMARK    1  A    between atoms: C_9  and  C_10 
REMARK       I    between atoms: C_10  and  N_11 
REMARK    2  A    between atoms: N_11  and  C_12 
REMARK    3  A    between atoms: C_12  and  C_13 
REMARK    4  A    between atoms: C_15  and  O_16 
REMARK    5  A    between atoms: O_16  and  C_17 
ROOT
HETATM    1  C   UNL     1     -40.633  53.423 -49.537  1.00  0.00     0.273 C 
HETATM    2  N   UNL     1     -40.564  54.619 -50.215  1.00  0.00    -0.351 N 
HETATM    3  O   UNL     1     -40.922  53.334 -48.348  1.00  0.00    -0.266 OA
HETATM    4  H   UNL     1     -40.254  54.557 -51.180  1.00  0.00     0.163 HD
ENDROOT
BRANCH   2   5
HETATM    5  C   UNL     1     -40.799  55.891 -49.590  1.00  0.00     0.161 C 
BRANCH   5   6
HETATM    6  C   UNL     1     -41.292  56.911 -50.576  1.00  0.00    -0.035 A 
HETATM    7  C   UNL     1     -42.130  56.534 -51.630  1.00  0.00     0.066 A 
HETATM    8  C   UNL     1     -42.545  57.500 -52.533  1.00  0.00     0.164 A 
HETATM    9  N   UNL     1     -42.208  58.803 -52.443  1.00  0.00    -0.237 NA
HETATM   10  C   UNL     1     -41.424  59.154 -51.402  1.00  0.00     0.120 A 
HETATM   11  C   UNL     1     -40.947  58.259 -50.456  1.00  0.00     0.028 A 
BRANCH   8  12
HETATM   12  O   UNL     1     -43.347  57.061 -53.567  1.00  0.00    -0.329 OA
BRANCH  12  13
HETATM   13  C   UNL     1     -42.676  56.279 -54.553  1.00  0.00     0.130 C 
HETATM   14  C   UNL     1     -43.576  55.180 -55.120  1.00  0.00     0.032 C 
HETATM   15  C   UNL     1     -43.083  55.008 -56.544  1.00  0.00     0.002 C 
HETATM   16  C   UNL     1     -42.859  56.440 -56.999  1.00  0.00     0.002 C 
HETATM   17  C   UNL     1     -42.350  57.175 -55.761  1.00  0.00     0.032 C 
ENDBRANCH  12  13
ENDBRANCH   8  12
ENDBRANCH   5   6
ENDBRANCH   2   5
BRANCH   1  18
HETATM   18  C   UNL     1     -40.335  52.261 -50.392  1.00  0.00     0.157 A 
HETATM   19  C   UNL     1     -40.200  52.241 -51.811  1.00  0.00     0.029 A 
HETATM   20  C   UNL     1     -40.295  53.185 -52.855  1.00  0.00     0.023 A 
HETATM   21  C   UNL     1     -39.896  50.924 -52.128  1.00  0.00     0.063 A 
HETATM   22  C   UNL     1     -40.089  52.774 -54.182  1.00  0.00    -0.061 A 
HETATM   23  C   UNL     1     -40.186  53.762 -55.308  1.00  0.00     0.048 C 
HETATM   24  C   UNL     1     -39.775  51.436 -54.455  1.00  0.00     0.009 A 
HETATM   25  C   UNL     1     -39.673  50.483 -53.436  1.00  0.00     0.032 A 
HETATM   26  N   UNL     1     -39.878  50.260 -50.933  1.00  0.00    -0.277 N 
HETATM   27  H   UNL     1     -39.690  49.276 -50.782  1.00  0.00     0.189 HD
HETATM   28  N   UNL     1     -40.144  51.031 -49.863  1.00  0.00    -0.168 NA
ENDBRANCH   1  18
TORSDOF 5
ENDMDL
MODEL 4
REMARK VINA RESULT:      -7.9      2.572      4.915
REMARK  5 active torsions:
REMARK  status: ('A' for Active; 'I' for Inactive)
REMARK    1  A    between atoms: C_9  and  C_10 
REMARK       I    between atoms: C_10  and  N_11 
REMARK    2  A    between atoms: N_11  and  C_12 
REMARK    3  A    between atoms: C_12  and  C_13 
REMARK    4  A    between atoms: C_15  and  O_16 
REMARK    5  A    between atoms: O_16  and  C_17 
ROOT
HETATM    1  C   UNL     1     -43.298  55.275 -53.646  1.00  0.00     0.273 C 
HETATM    2  N   UNL     1     -43.516  56.632 -53.564  1.00  0.00    -0.351 N 
HETATM    3  O   UNL     1     -43.835  54.552 -54.480  1.00  0.00    -0.266 OA
HETATM    4  H   UNL     1     -43.056  57.102 -52.791  1.00  0.00     0.163 HD
ENDROOT
BRANCH   2   5
HETATM    5  C   UNL     1     -44.418  57.336 -54.431  1.00  0.00     0.161 C 
BRANCH   5   6
HETATM    6  C   UNL     1     -43.699  57.961 -55.592  1.00  0.00    -0.035 A 
HETATM    7  C   UNL     1     -43.982  57.561 -56.902  1.00  0.00     0.066 A 
HETATM    8  C   UNL     1     -43.279  58.143 -57.945  1.00  0.00     0.164 A 
HETATM    9  N   UNL     1     -42.347  59.103 -57.777  1.00  0.00    -0.237 NA
HETATM   10  C   UNL     1     -42.109  59.499 -56.508  1.00  0.00     0.120 A 
HETATM   11  C   UNL     1     -42.749  58.967 -55.399  1.00  0.00     0.028 A 
BRANCH   8  12
HETATM   12  O   UNL     1     -43.584  57.687 -59.212  1.00  0.00    -0.329 OA
BRANCH  12  13
HETATM   13  C   UNL     1     -44.572  56.659 -59.254  1.00  0.00     0.130 C 
HETATM   14  C   UNL     1     -45.808  57.089 -60.047  1.00  0.00     0.032 C 
HETATM   15  C   UNL     1     -46.327  55.792 -60.639  1.00  0.00     0.002 C 
HETATM   16  C   UNL     1     -45.055  55.093 -61.087  1.00  0.00     0.002 C 
HETATM   17  C   UNL     1     -44.009  55.458 -60.035  1.00  0.00     0.032 C 
ENDBRANCH  12  13
ENDBRANCH   8  12
ENDBRANCH   5   6
ENDBRANCH   2   5
BRANCH   1  18
HETATM   18  C   UNL     1     -42.343  54.785 -52.638  1.00  0.00     0.157 A 
HETATM   19  C   UNL     1     -41.463  53.669 -52.748  1.00  0.00     0.029 A 
HETATM   20  C   UNL     1     -41.182  52.689 -53.722  1.00  0.00     0.023 A 
HETATM   21  C   UNL     1     -40.759  53.642 -51.551  1.00  0.00     0.063 A 
HETATM   22  C   UNL     1     -40.208  51.710 -53.459  1.00  0.00    -0.061 A 
HETATM   23  C   UNL     1     -39.893  50.657 -54.483  1.00  0.00     0.048 C 
HETATM   24  C   UNL     1     -39.516  51.727 -52.241  1.00  0.00     0.009 A 
HETATM   25  C   UNL     1     -39.777  52.691 -51.262  1.00  0.00     0.032 A 
HETATM   26  N   UNL     1     -41.246  54.692 -50.823  1.00  0.00    -0.277 N 
HETATM   27  H   UNL     1     -40.962  54.976 -49.893  1.00  0.00     0.189 HD
HETATM   28  N   UNL     1     -42.207  55.402 -51.442  1.00  0.00    -0.168 NA
ENDBRANCH   1  18
TORSDOF 5
ENDMDL
MODEL 5
REMARK VINA RESULT:      -7.9      2.676      6.900
REMARK  5 active torsions:
REMARK  status: ('A' for Active; 'I' for Inactive)
REMARK    1  A    between atoms: C_9  and  C_10 
REMARK       I    between atoms: C_10  and  N_11 
REMARK    2  A    between atoms: N_11  and  C_12 
REMARK    3  A    between atoms: C_12  and  C_13 
REMARK    4  A    between atoms: C_15  and  O_16 
REMARK    5  A    between atoms: O_16  and  C_17 
ROOT
HETATM    1  C   UNL     1     -41.395  55.132 -54.517  1.00  0.00     0.273 C 
HETATM    2  N   UNL     1     -41.592  53.813 -54.858  1.00  0.00    -0.351 N 
HETATM    3  O   UNL     1     -40.289  55.665 -54.486  1.00  0.00    -0.266 OA
HETATM    4  H   UNL     1     -42.550  53.482 -54.785  1.00  0.00     0.163 HD
ENDROOT
BRANCH   2   5
HETATM    5  C   UNL     1     -40.520  52.917 -55.186  1.00  0.00     0.161 C 
BRANCH   5   6
HETATM    6  C   UNL     1     -40.193  51.999 -54.043  1.00  0.00    -0.035 A 
HETATM    7  C   UNL     1     -40.236  52.463 -52.725  1.00  0.00     0.066 A 
HETATM    8  C   UNL     1     -39.904  51.593 -51.698  1.00  0.00     0.164 A 
HETATM    9  N   UNL     1     -39.563  50.302 -51.892  1.00  0.00    -0.237 NA
HETATM   10  C   UNL     1     -39.557  49.863 -53.168  1.00  0.00     0.120 A 
HETATM   11  C   UNL     1     -39.860  50.660 -54.262  1.00  0.00     0.028 A 
BRANCH   8  12
HETATM   12  O   UNL     1     -39.938  52.118 -50.422  1.00  0.00    -0.329 OA
BRANCH  12  13
HETATM   13  C   UNL     1     -40.148  53.527 -50.362  1.00  0.00     0.130 C 
HETATM   14  C   UNL     1     -41.627  53.890 -50.515  1.00  0.00     0.032 C 
HETATM   15  C   UNL     1     -41.774  55.160 -49.699  1.00  0.00     0.002 C 
HETATM   16  C   UNL     1     -40.950  54.861 -48.459  1.00  0.00     0.002 C 
HETATM   17  C   UNL     1     -39.770  54.027 -48.956  1.00  0.00     0.032 C 
ENDBRANCH  12  13
ENDBRANCH   8  12
ENDBRANCH   5   6
ENDBRANCH   2   5
BRANCH   1  18
HETATM   18  C   UNL     1     -42.649  55.839 -54.206  1.00  0.00     0.157 A 
HETATM   19  C   UNL     1     -42.831  56.920 -53.294  1.00  0.00     0.029 A 
HETATM   20  C   UNL     1     -42.012  57.657 -52.415  1.00  0.00     0.023 A 
HETATM   21  C   UNL     1     -44.178  57.245 -53.381  1.00  0.00     0.063 A 
HETATM   22  C   UNL     1     -42.573  58.691 -51.647  1.00  0.00    -0.061 A 
HETATM   23  C   UNL     1     -41.718  59.489 -50.704  1.00  0.00     0.048 C 
HETATM   24  C   UNL     1     -43.936  58.991 -51.774  1.00  0.00     0.009 A 
HETATM   25  C   UNL     1     -44.767  58.274 -52.642  1.00  0.00     0.032 A 
HETATM   26  N   UNL     1     -44.701  56.371 -54.293  1.00  0.00    -0.277 N 
HETATM   27  H   UNL     1     -45.663  56.316 -54.607  1.00  0.00     0.189 HD
HETATM   28  N   UNL     1     -43.812  55.503 -54.809  1.00  0.00    -0.168 NA
ENDBRANCH   1  18
TORSDOF 5
ENDMDL
MODEL 6
REMARK VINA RESULT:      -7.8      1.562      6.912
REMARK  5 active torsions:
REMARK  status: ('A' for Active; 'I' for Inactive)
REMARK    1  A    between atoms: C_9  and  C_10 
REMARK       I    between atoms: C_10  and  N_11 
REMARK    2  A    between atoms: N_11  and  C_12 
REMARK    3  A    between atoms: C_12  and  C_13 
REMARK    4  A    between atoms: C_15  and  O_16 
REMARK    5  A    between atoms: O_16  and  C_17 
ROOT
HETATM    1  C   UNL     1     -41.913  59.925 -54.672  1.00  0.00     0.273 C 
HETATM    2  N   UNL     1     -41.201  59.013 -53.926  1.00  0.00    -0.351 N 
HETATM    3  O   UNL     1     -42.434  60.929 -54.197  1.00  0.00    -0.266 OA
HETATM    4  H   UNL     1     -40.874  58.195 -54.432  1.00  0.00     0.163 HD
ENDROOT
BRANCH   2   5
HETATM    5  C   UNL     1     -41.019  59.131 -52.506  1.00  0.00     0.161 C 
BRANCH   5   6
HETATM    6  C   UNL     1     -41.142  57.801 -51.818  1.00  0.00    -0.035 A 
HETATM    7  C   UNL     1     -41.338  56.632 -52.561  1.00  0.00     0.066 A 
HETATM    8  C   UNL     1     -41.471  55.428 -51.889  1.00  0.00     0.164 A 
HETATM    9  N   UNL     1     -41.397  55.306 -50.548  1.00  0.00    -0.237 NA
HETATM   10  C   UNL     1     -41.177  56.440 -49.850  1.00  0.00     0.120 A 
HETATM   11  C   UNL     1     -41.044  57.693 -50.429  1.00  0.00     0.028 A 
BRANCH   8  12
HETATM   12  O   UNL     1     -41.691  54.314 -52.675  1.00  0.00    -0.329 OA
BRANCH  12  13
HETATM   13  C   UNL     1     -40.508  53.633 -53.087  1.00  0.00     0.130 C 
HETATM   14  C   UNL     1     -40.151  52.486 -52.139  1.00  0.00     0.032 C 
HETATM   15  C   UNL     1     -39.466  51.474 -53.038  1.00  0.00     0.002 C 
HETATM   16  C   UNL     1     -40.329  51.495 -54.289  1.00  0.00     0.002 C 
HETATM   17  C   UNL     1     -40.772  52.949 -54.440  1.00  0.00     0.032 C 
ENDBRANCH  12  13
ENDBRANCH   8  12
ENDBRANCH   5   6
ENDBRANCH   2   5
BRANCH   1  18
HETATM   18  C   UNL     1     -41.972  59.575 -56.102  1.00  0.00     0.157 A 
HETATM   19  C   UNL     1     -42.302  58.311 -56.672  1.00  0.00     0.029 A 
HETATM   20  C   UNL     1     -42.647  57.034 -56.183  1.00  0.00     0.023 A 
HETATM   21  C   UNL     1     -42.242  58.506 -58.046  1.00  0.00     0.063 A 
HETATM   22  C   UNL     1     -42.913  55.993 -57.088  1.00  0.00    -0.061 A 
HETATM   23  C   UNL     1     -43.282  54.626 -56.588  1.00  0.00     0.048 C 
HETATM   24  C   UNL     1     -42.850  56.238 -58.467  1.00  0.00     0.009 A 
HETATM   25  C   UNL     1     -42.513  57.497 -58.974  1.00  0.00     0.032 A 
HETATM   26  N   UNL     1     -41.885  59.815 -58.208  1.00  0.00    -0.277 N 
HETATM   27  H   UNL     1     -41.747  60.308 -59.083  1.00  0.00     0.189 HD
HETATM   28  N   UNL     1     -41.707  60.493 -57.060  1.00  0.00    -0.168 NA
ENDBRANCH   1  18
TORSDOF 5
ENDMDL
MODEL 7
REMARK VINA RESULT:      -7.8      1.972      7.570
REMARK  5 active torsions:
REMARK  status: ('A' for Active; 'I' for Inactive)
REMARK    1  A    between atoms: C_9  and  C_10 
REMARK       I    between atoms: C_10  and  N_11 
REMARK    2  A    between atoms: N_11  and  C_12 
REMARK    3  A    between atoms: C_12  and  C_13 
REMARK    4  A    between atoms: C_15  and  O_16 
REMARK    5  A    between atoms: O_16  and  C_17 
ROOT
HETATM    1  C   UNL     1     -42.527  58.277 -55.304  1.00  0.00     0.273 C 
HETATM    2  N   UNL     1     -41.399  57.973 -54.576  1.00  0.00    -0.351 N 
HETATM    3  O   UNL     1     -43.443  58.972 -54.875  1.00  0.00    -0.266 OA
HETATM    4  H   UNL     1     -40.746  57.339 -55.027  1.00  0.00     0.163 HD
ENDROOT
BRANCH   2   5
HETATM    5  C   UNL     1     -41.191  58.417 -53.227  1.00  0.00     0.161 C 
BRANCH   5   6
HETATM    6  C   UNL     1     -41.276  57.280 -52.248  1.00  0.00    -0.035 A 
HETATM    7  C   UNL     1     -41.406  55.963 -52.700  1.00  0.00     0.066 A 
HETATM    8  C   UNL     1     -41.506  54.943 -51.767  1.00  0.00     0.164 A 
HETATM    9  N   UNL     1     -41.458  55.141 -50.433  1.00  0.00    -0.237 NA
HETATM   10  C   UNL     1     -41.301  56.415 -50.017  1.00  0.00     0.120 A 
HETATM   11  C   UNL     1     -41.207  57.503 -50.871  1.00  0.00     0.028 A 
BRANCH   8  12
HETATM   12  O   UNL     1     -41.660  53.669 -52.274  1.00  0.00    -0.329 OA
BRANCH  12  13
HETATM   13  C   UNL     1     -40.535  53.174 -52.996  1.00  0.00     0.130 C 
HETATM   14  C   UNL     1     -39.813  52.060 -52.234  1.00  0.00     0.032 C 
HETATM   15  C   UNL     1     -39.242  51.183 -53.332  1.00  0.00     0.002 C 
HETATM   16  C   UNL     1     -40.378  51.120 -54.339  1.00  0.00     0.002 C 
HETATM   17  C   UNL     1     -41.029  52.501 -54.289  1.00  0.00     0.032 C 
ENDBRANCH  12  13
ENDBRANCH   8  12
ENDBRANCH   5   6
ENDBRANCH   2   5
BRANCH   1  18
HETATM   18  C   UNL     1     -42.514  57.692 -56.656  1.00  0.00     0.157 A 
HETATM   19  C   UNL     1     -42.311  58.372 -57.892  1.00  0.00     0.029 A 
HETATM   20  C   UNL     1     -42.086  59.705 -58.294  1.00  0.00     0.023 A 
HETATM   21  C   UNL     1     -42.364  57.381 -58.864  1.00  0.00     0.063 A 
HETATM   22  C   UNL     1     -41.929  60.000 -59.659  1.00  0.00    -0.061 A 
HETATM   23  C   UNL     1     -41.688  61.412 -60.109  1.00  0.00     0.048 C 
HETATM   24  C   UNL     1     -41.979  58.967 -60.605  1.00  0.00     0.009 A 
HETATM   25  C   UNL     1     -42.199  57.637 -60.228  1.00  0.00     0.032 A 
HETATM   26  N   UNL     1     -42.595  56.219 -58.182  1.00  0.00    -0.277 N 
HETATM   27  H   UNL     1     -42.693  55.289 -58.572  1.00  0.00     0.189 HD
HETATM   28  N   UNL     1     -42.698  56.365 -56.848  1.00  0.00    -0.168 NA
ENDBRANCH   1  18
TORSDOF 5
ENDMDL
MODEL 8
REMARK VINA RESULT:      -7.7      2.242      6.287
REMARK  5 active torsions:
REMARK  status: ('A' for Active; 'I' for Inactive)
REMARK    1  A    between atoms: C_9  and  C_10 
REMARK       I    between atoms: C_10  and  N_11 
REMARK    2  A    between atoms: N_11  and  C_12 
REMARK    3  A    between atoms: C_12  and  C_13 
REMARK    4  A    between atoms: C_15  and  O_16 
REMARK    5  A    between atoms: O_16  and  C_17 
ROOT
HETATM    1  C   UNL     1     -42.363  54.824 -55.957  1.00  0.00     0.273 C 
HETATM    2  N   UNL     1     -41.063  54.739 -55.513  1.00  0.00    -0.351 N 
HETATM    3  O   UNL     1     -43.206  53.956 -55.753  1.00  0.00    -0.266 OA
HETATM    4  H   UNL     1     -40.452  55.497 -55.802  1.00  0.00     0.163 HD
ENDROOT
BRANCH   2   5
HETATM    5  C   UNL     1     -40.552  53.609 -54.789  1.00  0.00     0.161 C 
BRANCH   5   6
HETATM    6  C   UNL     1     -40.645  53.813 -53.304  1.00  0.00    -0.035 A 
HETATM    7  C   UNL     1     -41.241  54.964 -52.781  1.00  0.00     0.066 A 
HETATM    8  C   UNL     1     -41.286  55.128 -51.405  1.00  0.00     0.164 A 
HETATM    9  N   UNL     1     -40.809  54.222 -50.527  1.00  0.00    -0.237 NA
HETATM   10  C   UNL     1     -40.266  53.102 -51.050  1.00  0.00     0.120 A 
HETATM   11  C   UNL     1     -40.161  52.854 -52.410  1.00  0.00     0.028 A 
BRANCH   8  12
HETATM   12  O   UNL     1     -41.861  56.298 -50.951  1.00  0.00    -0.329 OA
BRANCH  12  13
HETATM   13  C   UNL     1     -41.440  57.475 -51.637  1.00  0.00     0.130 C 
HETATM   14  C   UNL     1     -42.594  58.459 -51.843  1.00  0.00     0.032 C 
HETATM   15  C   UNL     1     -41.918  59.817 -51.823  1.00  0.00     0.002 C 
HETATM   16  C   UNL     1     -40.922  59.682 -50.684  1.00  0.00     0.002 C 
HETATM   17  C   UNL     1     -40.436  58.235 -50.751  1.00  0.00     0.032 C 
ENDBRANCH  12  13
ENDBRANCH   8  12
ENDBRANCH   5   6
ENDBRANCH   2   5
BRANCH   1  18
HETATM   18  C   UNL     1     -42.640  56.072 -56.689  1.00  0.00     0.157 A 
HETATM   19  C   UNL     1     -43.266  56.209 -57.963  1.00  0.00     0.029 A 
HETATM   20  C   UNL     1     -43.797  55.335 -58.933  1.00  0.00     0.023 A 
HETATM   21  C   UNL     1     -43.315  57.576 -58.198  1.00  0.00     0.063 A 
HETATM   22  C   UNL     1     -44.353  55.862 -60.111  1.00  0.00    -0.061 A 
HETATM   23  C   UNL     1     -44.924  54.949 -61.157  1.00  0.00     0.048 C 
HETATM   24  C   UNL     1     -44.390  57.250 -60.302  1.00  0.00     0.009 A 
HETATM   25  C   UNL     1     -43.871  58.135 -59.351  1.00  0.00     0.032 A 
HETATM   26  N   UNL     1     -42.731  58.151 -57.103  1.00  0.00    -0.277 N 
HETATM   27  H   UNL     1     -42.594  59.140 -56.931  1.00  0.00     0.189 HD
HETATM   28  N   UNL     1     -42.305  57.277 -56.173  1.00  0.00    -0.168 NA
ENDBRANCH   1  18
TORSDOF 5
ENDMDL
MODEL 9
REMARK VINA RESULT:      -7.7      2.587      3.654
REMARK  5 active torsions:
REMARK  status: ('A' for Active; 'I' for Inactive)
REMARK    1  A    between atoms: C_9  and  C_10 
REMARK       I    between atoms: C_10  and  N_11 
REMARK    2  A    between atoms: N_11  and  C_12 
REMARK    3  A    between atoms: C_12  and  C_13 
REMARK    4  A    between atoms: C_15  and  O_16 
REMARK    5  A    between atoms: O_16  and  C_17 
ROOT
HETATM    1  C   UNL     1     -42.889  54.969 -54.674  1.00  0.00     0.273 C 
HETATM    2  N   UNL     1     -43.200  56.310 -54.689  1.00  0.00    -0.351 N 
HETATM    3  O   UNL     1     -43.289  54.172 -55.516  1.00  0.00    -0.266 OA
HETATM    4  H   UNL     1     -42.854  56.848 -53.900  1.00  0.00     0.163 HD
ENDROOT
BRANCH   2   5
HETATM    5  C   UNL     1     -44.048  56.909 -55.680  1.00  0.00     0.161 C 
BRANCH   5   6
HETATM    6  C   UNL     1     -43.255  57.467 -56.827  1.00  0.00    -0.035 A 
HETATM    7  C   UNL     1     -42.504  58.636 -56.669  1.00  0.00     0.066 A 
HETATM    8  C   UNL     1     -41.805  59.134 -57.757  1.00  0.00     0.164 A 
HETATM    9  N   UNL     1     -41.781  58.540 -58.968  1.00  0.00    -0.237 NA
HETATM   10  C   UNL     1     -42.487  57.396 -59.093  1.00  0.00     0.120 A 
HETATM   11  C   UNL     1     -43.229  56.828 -58.069  1.00  0.00     0.028 A 
BRANCH   8  12
HETATM   12  O   UNL     1     -41.105  60.305 -57.546  1.00  0.00    -0.329 OA
BRANCH  12  13
HETATM   13  C   UNL     1     -41.526  61.405 -58.350  1.00  0.00     0.130 C 
HETATM   14  C   UNL     1     -42.445  62.356 -57.581  1.00  0.00     0.032 C 
HETATM   15  C   UNL     1     -42.162  63.711 -58.200  1.00  0.00     0.002 C 
HETATM   16  C   UNL     1     -40.651  63.703 -58.356  1.00  0.00     0.002 C 
HETATM   17  C   UNL     1     -40.296  62.259 -58.708  1.00  0.00     0.032 C 
ENDBRANCH  12  13
ENDBRANCH   8  12
ENDBRANCH   5   6
ENDBRANCH   2   5
BRANCH   1  18
HETATM   18  C   UNL     1     -42.017  54.595 -53.548  1.00  0.00     0.157 A 
HETATM   19  C   UNL     1     -41.217  53.421 -53.425  1.00  0.00     0.029 A 
HETATM   20  C   UNL     1     -40.968  52.274 -54.206  1.00  0.00     0.023 A 
HETATM   21  C   UNL     1     -40.569  53.550 -52.203  1.00  0.00     0.063 A 
HETATM   22  C   UNL     1     -40.081  51.292 -53.733  1.00  0.00    -0.061 A 
HETATM   23  C   UNL     1     -39.801  50.063 -54.550  1.00  0.00     0.048 C 
HETATM   24  C   UNL     1     -39.441  51.468 -52.499  1.00  0.00     0.009 A 
HETATM   25  C   UNL     1     -39.672  52.599 -51.708  1.00  0.00     0.032 A 
HETATM   26  N   UNL     1     -41.008  54.737 -51.686  1.00  0.00    -0.277 N 
HETATM   27  H   UNL     1     -40.743  55.154 -50.802  1.00  0.00     0.189 HD
HETATM   28  N   UNL     1     -41.887  55.394 -52.464  1.00  0.00    -0.168 NA
ENDBRANCH   1  18
TORSDOF 5
ENDMDL
MODEL 10
REMARK VINA RESULT:      -7.7      2.195      4.619
REMARK  5 active torsions:
REMARK  status: ('A' for Active; 'I' for Inactive)
REMARK    1  A    between atoms: C_9  and  C_10 
REMARK       I    between atoms: C_10  and  N_11 
REMARK    2  A    between atoms: N_11  and  C_12 
REMARK    3  A    between atoms: C_12  and  C_13 
REMARK    4  A    between atoms: C_15  and  O_16 
REMARK    5  A    between atoms: O_16  and  C_17 
ROOT
HETATM    1  C   UNL     1     -41.645  56.453 -50.510  1.00  0.00     0.273 C 
HETATM    2  N   UNL     1     -42.849  56.450 -51.177  1.00  0.00    -0.351 N 
HETATM    3  O   UNL     1     -41.061  57.478 -50.170  1.00  0.00    -0.266 OA
HETATM    4  H   UNL     1     -43.193  55.535 -51.453  1.00  0.00     0.163 HD
ENDROOT
BRANCH   2   5
HETATM    5  C   UNL     1     -43.533  57.650 -51.568  1.00  0.00     0.161 C 
BRANCH   5   6
HETATM    6  C   UNL     1     -43.144  58.086 -52.952  1.00  0.00    -0.035 A 
HETATM    7  C   UNL     1     -43.790  57.555 -54.072  1.00  0.00     0.066 A 
HETATM    8  C   UNL     1     -43.386  57.963 -55.333  1.00  0.00     0.164 A 
HETATM    9  N   UNL     1     -42.414  58.873 -55.550  1.00  0.00    -0.237 NA
HETATM   10  C   UNL     1     -41.823  59.399 -54.456  1.00  0.00     0.120 A 
HETATM   11  C   UNL     1     -42.147  59.043 -53.155  1.00  0.00     0.028 A 
BRANCH   8  12
HETATM   12  O   UNL     1     -44.042  57.382 -56.400  1.00  0.00    -0.329 OA
BRANCH  12  13
HETATM   13  C   UNL     1     -43.258  57.252 -57.583  1.00  0.00     0.130 C 
HETATM   14  C   UNL     1     -42.971  55.786 -57.919  1.00  0.00     0.032 C 
HETATM   15  C   UNL     1     -42.874  55.775 -59.433  1.00  0.00     0.002 C 
HETATM   16  C   UNL     1     -44.017  56.683 -59.852  1.00  0.00     0.002 C 
HETATM   17  C   UNL     1     -44.073  57.772 -58.781  1.00  0.00     0.032 C 
ENDBRANCH  12  13
ENDBRANCH   8  12
ENDBRANCH   5   6
ENDBRANCH   2   5
BRANCH   1  18
HETATM   18  C   UNL     1     -41.136  55.098 -50.236  1.00  0.00     0.157 A 
HETATM   19  C   UNL     1     -40.760  54.105 -51.188  1.00  0.00     0.029 A 
HETATM   20  C   UNL     1     -40.732  54.003 -52.594  1.00  0.00     0.023 A 
HETATM   21  C   UNL     1     -40.328  53.023 -50.431  1.00  0.00     0.063 A 
HETATM   22  C   UNL     1     -40.278  52.817 -53.194  1.00  0.00    -0.061 A 
HETATM   23  C   UNL     1     -40.239  52.688 -54.690  1.00  0.00     0.048 C 
HETATM   24  C   UNL     1     -39.842  51.754 -52.392  1.00  0.00     0.009 A 
HETATM   25  C   UNL     1     -39.859  51.834 -50.995  1.00  0.00     0.032 A 
HETATM   26  N   UNL     1     -40.476  53.412 -49.129  1.00  0.00    -0.277 N 
HETATM   27  H   UNL     1     -40.258  52.871 -48.300  1.00  0.00     0.189 HD
HETATM   28  N   UNL     1     -40.966  54.655 -48.969  1.00  0.00    -0.168 NA
ENDBRANCH   1  18
TORSDOF 5
ENDMDL
