MODEL 1
REMARK VINA RESULT:      -9.2      0.000      0.000
REMARK  6 active torsions:
REMARK  status: ('A' for Active; 'I' for Inactive)
REMARK    1  A    between atoms: C_7  and  S_8 
REMARK    2  A    between atoms: S_8  and  C_9 
REMARK    3  A    between atoms: C_9  and  C_10 
REMARK    4  A    between atoms: C_18  and  C_19 
REMARK    5  A    between atoms: C_29  and  C_30 
REMARK    6  A    between atoms: C_30  and  O_31 
ROOT
HETATM    1  C   UNL     1     -42.078  60.932 -50.806  1.00  0.00     0.070 C 
HETATM    2  C   UNL     1     -42.363  59.884 -51.853  1.00  0.00     0.037 C 
HETATM    3  N   UNL     1     -43.668  59.859 -52.338  1.00  0.00    -0.192 N 
HETATM    4  C   UNL     1     -44.027  59.125 -53.409  1.00  0.00     0.726 A 
HETATM    5  N   UNL     1     -43.162  58.186 -53.901  1.00  0.00    -0.082 N 
HETATM    6  N   UNL     1     -43.620  57.654 -55.053  1.00  0.00    -0.128 NA
HETATM    7  C   UNL     1     -44.806  58.267 -55.157  1.00  0.00     0.226 A 
HETATM    8  N   UNL     1     -45.090  59.174 -54.165  1.00  0.00    -0.035 NA
HETATM    9  C   UNL     1     -41.855  57.888 -53.303  1.00  0.00     0.204 C 
HETATM   10  C   UNL     1     -41.455  58.988 -52.319  1.00  0.00     0.070 C 
HETATM   11  H   UNL     1     -44.283  60.618 -52.056  1.00  0.00     0.184 HD
ENDROOT
BRANCH   9  12
HETATM   12  C   UNL     1     -41.898  56.479 -52.692  1.00  0.00    -0.017 A 
HETATM   13  C   UNL     1     -41.319  55.345 -53.348  1.00  0.00    -0.017 A 
HETATM   14  C   UNL     1     -41.385  54.080 -52.703  1.00  0.00    -0.025 A 
HETATM   15  C   UNL     1     -40.685  55.381 -54.615  1.00  0.00     0.013 A 
HETATM   16  C   UNL     1     -40.815  52.944 -53.302  1.00  0.00     0.012 A 
HETATM   17  C   UNL     1     -42.025  53.950 -51.465  1.00  0.00     0.012 A 
HETATM   18  C   UNL     1     -40.187  53.023 -54.542  1.00  0.00     0.001 A 
HETATM   19  C   UNL     1     -40.126  54.240 -55.201  1.00  0.00     0.001 A 
HETATM   20  C   UNL     1     -42.619  55.044 -50.849  1.00  0.00     0.002 A 
HETATM   21  C   UNL     1     -42.561  56.292 -51.458  1.00  0.00     0.010 A 
ENDBRANCH   9  12
BRANCH  10  22
HETATM   22  C   UNL     1     -40.013  59.026 -51.999  1.00  0.00     0.293 C 
HETATM   23  O   UNL     1     -39.137  59.220 -52.825  1.00  0.00    -0.259 OA
BRANCH  22  24
HETATM   24  O   UNL     1     -39.832  58.932 -50.658  1.00  0.00    -0.323 OA
HETATM   25  C   UNL     1     -38.685  59.626 -50.162  1.00  0.00     0.213 C 
ENDBRANCH  22  24
ENDBRANCH  10  22
BRANCH   7  26
HETATM   26  S   UNL     1     -45.905  58.009 -56.482  1.00  0.00    -0.083 SA
BRANCH  26  27
HETATM   27  C   UNL     1     -44.799  58.201 -57.906  1.00  0.00     0.123 C 
BRANCH  27  28
HETATM   28  C   UNL     1     -44.937  57.033 -58.857  1.00  0.00    -0.027 A 
HETATM   29  C   UNL     1     -44.037  55.955 -58.876  1.00  0.00     0.041 A 
HETATM   30 CL   UNL     1     -42.709  55.846 -57.776  1.00  0.00    -0.084 Cl
HETATM   31  C   UNL     1     -44.188  54.918 -59.805  1.00  0.00     0.024 A 
HETATM   32  C   UNL     1     -45.231  54.949 -60.730  1.00  0.00     0.002 A 
HETATM   33  C   UNL     1     -46.126  56.014 -60.729  1.00  0.00     0.001 A 
HETATM   34  C   UNL     1     -45.980  57.048 -59.803  1.00  0.00     0.009 A 
ENDBRANCH  27  28
ENDBRANCH  26  27
ENDBRANCH   7  26
TORSDOF 6
ENDMDL
MODEL 2
REMARK VINA RESULT:      -8.9      3.001      6.828
REMARK  6 active torsions:
REMARK  status: ('A' for Active; 'I' for Inactive)
REMARK    1  A    between atoms: C_7  and  S_8 
REMARK    2  A    between atoms: S_8  and  C_9 
REMARK    3  A    between atoms: C_9  and  C_10 
REMARK    4  A    between atoms: C_18  and  C_19 
REMARK    5  A    between atoms: C_29  and  C_30 
REMARK    6  A    between atoms: C_30  and  O_31 
ROOT
HETATM    1  C   UNL     1     -44.549  57.693 -58.065  1.00  0.00     0.070 C 
HETATM    2  C   UNL     1     -43.608  57.345 -56.939  1.00  0.00     0.037 C 
HETATM    3  N   UNL     1     -43.490  55.988 -56.652  1.00  0.00    -0.192 N 
HETATM    4  C   UNL     1     -42.547  55.504 -55.820  1.00  0.00     0.726 A 
HETATM    5  N   UNL     1     -41.833  56.370 -55.038  1.00  0.00    -0.082 N 
HETATM    6  N   UNL     1     -40.840  55.733 -54.383  1.00  0.00    -0.128 NA
HETATM    7  C   UNL     1     -41.064  54.467 -54.761  1.00  0.00     0.226 A 
HETATM    8  N   UNL     1     -42.104  54.290 -55.640  1.00  0.00    -0.035 NA
HETATM    9  C   UNL     1     -42.056  57.821 -55.013  1.00  0.00     0.204 C 
HETATM   10  C   UNL     1     -42.907  58.250 -56.209  1.00  0.00     0.070 C 
HETATM   11  H   UNL     1     -43.934  55.337 -57.295  1.00  0.00     0.184 HD
ENDROOT
BRANCH   9  12
HETATM   12  C   UNL     1     -42.642  58.209 -53.647  1.00  0.00    -0.017 A 
HETATM   13  C   UNL     1     -41.819  58.643 -52.559  1.00  0.00    -0.017 A 
HETATM   14  C   UNL     1     -42.445  59.005 -51.335  1.00  0.00    -0.025 A 
HETATM   15  C   UNL     1     -40.404  58.734 -52.601  1.00  0.00     0.013 A 
HETATM   16  C   UNL     1     -41.677  59.452 -50.247  1.00  0.00     0.012 A 
HETATM   17  C   UNL     1     -43.834  58.911 -51.197  1.00  0.00     0.012 A 
HETATM   18  C   UNL     1     -40.290  59.541 -50.332  1.00  0.00     0.001 A 
HETATM   19  C   UNL     1     -39.654  59.177 -51.508  1.00  0.00     0.001 A 
HETATM   20  C   UNL     1     -44.627  58.453 -52.242  1.00  0.00     0.002 A 
HETATM   21  C   UNL     1     -44.038  58.101 -53.450  1.00  0.00     0.010 A 
ENDBRANCH   9  12
BRANCH  10  22
HETATM   22  C   UNL     1     -42.829  59.691 -56.527  1.00  0.00     0.293 C 
HETATM   23  O   UNL     1     -43.683  60.504 -56.213  1.00  0.00    -0.259 OA
BRANCH  22  24
HETATM   24  O   UNL     1     -41.635  59.977 -57.103  1.00  0.00    -0.323 OA
HETATM   25  C   UNL     1     -41.650  59.985 -58.531  1.00  0.00     0.213 C 
ENDBRANCH  22  24
ENDBRANCH  10  22
BRANCH   7  26
HETATM   26  S   UNL     1     -40.079  53.127 -54.247  1.00  0.00    -0.083 SA
BRANCH  26  27
HETATM   27  C   UNL     1     -41.015  52.522 -52.817  1.00  0.00     0.123 C 
BRANCH  27  28
HETATM   28  C   UNL     1     -41.030  53.551 -51.708  1.00  0.00    -0.027 A 
HETATM   29  C   UNL     1     -42.120  54.406 -51.476  1.00  0.00     0.041 A 
HETATM   30 CL   UNL     1     -43.567  54.328 -52.417  1.00  0.00    -0.084 Cl
HETATM   31  C   UNL     1     -42.065  55.368 -50.460  1.00  0.00     0.024 A 
HETATM   32  C   UNL     1     -40.922  55.494 -49.671  1.00  0.00     0.002 A 
HETATM   33  C   UNL     1     -39.832  54.659 -49.894  1.00  0.00     0.001 A 
HETATM   34  C   UNL     1     -39.884  53.697 -50.904  1.00  0.00     0.009 A 
ENDBRANCH  27  28
ENDBRANCH  26  27
ENDBRANCH   7  26
TORSDOF 6
ENDMDL
MODEL 3
REMARK VINA RESULT:      -8.4      4.170      8.252
REMARK  6 active torsions:
REMARK  status: ('A' for Active; 'I' for Inactive)
REMARK    1  A    between atoms: C_7  and  S_8 
REMARK    2  A    between atoms: S_8  and  C_9 
REMARK    3  A    between atoms: C_9  and  C_10 
REMARK    4  A    between atoms: C_18  and  C_19 
REMARK    5  A    between atoms: C_29  and  C_30 
REMARK    6  A    between atoms: C_30  and  O_31 
ROOT
HETATM    1  C   UNL     1     -44.279  55.216 -60.205  1.00  0.00     0.070 C 
HETATM    2  C   UNL     1     -43.632  55.744 -58.950  1.00  0.00     0.037 C 
HETATM    3  N   UNL     1     -43.654  54.884 -57.855  1.00  0.00    -0.192 N 
HETATM    4  C   UNL     1     -42.947  55.123 -56.733  1.00  0.00     0.726 A 
HETATM    5  N   UNL     1     -42.380  56.354 -56.546  1.00  0.00    -0.082 N 
HETATM    6  N   UNL     1     -41.594  56.369 -55.450  1.00  0.00    -0.128 NA
HETATM    7  C   UNL     1     -41.795  55.131 -54.981  1.00  0.00     0.226 A 
HETATM    8  N   UNL     1     -42.621  54.339 -55.741  1.00  0.00    -0.035 NA
HETATM    9  C   UNL     1     -42.525  57.471 -57.487  1.00  0.00     0.204 C 
HETATM   10  C   UNL     1     -43.064  56.972 -58.828  1.00  0.00     0.070 C 
HETATM   11  H   UNL     1     -43.978  53.934 -58.018  1.00  0.00     0.184 HD
ENDROOT
BRANCH   9  12
HETATM   12  C   UNL     1     -43.379  58.566 -56.830  1.00  0.00    -0.017 A 
HETATM   13  C   UNL     1     -43.076  59.958 -56.970  1.00  0.00    -0.017 A 
HETATM   14  C   UNL     1     -43.931  60.907 -56.347  1.00  0.00    -0.025 A 
HETATM   15  C   UNL     1     -41.965  60.475 -57.684  1.00  0.00     0.013 A 
HETATM   16  C   UNL     1     -43.681  62.283 -56.472  1.00  0.00     0.012 A 
HETATM   17  C   UNL     1     -45.030  60.479 -55.593  1.00  0.00     0.012 A 
HETATM   18  C   UNL     1     -42.587  62.753 -57.194  1.00  0.00     0.001 A 
HETATM   19  C   UNL     1     -41.726  61.849 -57.796  1.00  0.00     0.001 A 
HETATM   20  C   UNL     1     -45.301  59.127 -55.427  1.00  0.00     0.002 A 
HETATM   21  C   UNL     1     -44.483  58.182 -56.033  1.00  0.00     0.010 A 
ENDBRANCH   9  12
BRANCH  10  22
HETATM   22  C   UNL     1     -42.841  57.897 -59.959  1.00  0.00     0.293 C 
HETATM   23  O   UNL     1     -41.778  58.009 -60.547  1.00  0.00    -0.259 OA
BRANCH  22  24
HETATM   24  O   UNL     1     -44.006  58.499 -60.304  1.00  0.00    -0.323 OA
HETATM   25  C   UNL     1     -43.866  59.844 -60.768  1.00  0.00     0.213 C 
ENDBRANCH  22  24
ENDBRANCH  10  22
BRANCH   7  26
HETATM   26  S   UNL     1     -41.023  54.511 -53.549  1.00  0.00    -0.083 SA
BRANCH  26  27
HETATM   27  C   UNL     1     -40.342  52.946 -54.159  1.00  0.00     0.123 C 
BRANCH  27  28
HETATM   28  C   UNL     1     -40.093  51.985 -53.017  1.00  0.00    -0.027 A 
HETATM   29  C   UNL     1     -39.780  50.630 -53.215  1.00  0.00     0.041 A 
HETATM   30 CL   UNL     1     -39.610  49.947 -54.793  1.00  0.00    -0.084 Cl
HETATM   31  C   UNL     1     -39.598  49.775 -52.121  1.00  0.00     0.024 A 
HETATM   32  C   UNL     1     -39.733  50.258 -50.820  1.00  0.00     0.002 A 
HETATM   33  C   UNL     1     -40.050  51.596 -50.608  1.00  0.00     0.001 A 
HETATM   34  C   UNL     1     -40.229  52.452 -51.696  1.00  0.00     0.009 A 
ENDBRANCH  27  28
ENDBRANCH  26  27
ENDBRANCH   7  26
TORSDOF 6
ENDMDL
MODEL 4
REMARK VINA RESULT:      -8.3      2.632      5.601
REMARK  6 active torsions:
REMARK  status: ('A' for Active; 'I' for Inactive)
REMARK    1  A    between atoms: C_7  and  S_8 
REMARK    2  A    between atoms: S_8  and  C_9 
REMARK    3  A    between atoms: C_9  and  C_10 
REMARK    4  A    between atoms: C_18  and  C_19 
REMARK    5  A    between atoms: C_29  and  C_30 
REMARK    6  A    between atoms: C_30  and  O_31 
ROOT
HETATM    1  C   UNL     1     -40.241  53.285 -54.713  1.00  0.00     0.070 C 
HETATM    2  C   UNL     1     -41.247  54.408 -54.741  1.00  0.00     0.037 C 
HETATM    3  N   UNL     1     -41.424  55.026 -55.977  1.00  0.00    -0.192 N 
HETATM    4  C   UNL     1     -42.422  55.899 -56.212  1.00  0.00     0.726 A 
HETATM    5  N   UNL     1     -43.144  56.394 -55.160  1.00  0.00    -0.082 N 
HETATM    6  N   UNL     1     -44.188  57.134 -55.587  1.00  0.00    -0.128 NA
HETATM    7  C   UNL     1     -43.989  57.105 -56.912  1.00  0.00     0.226 A 
HETATM    8  N   UNL     1     -42.914  56.359 -57.330  1.00  0.00    -0.035 NA
HETATM    9  C   UNL     1     -42.874  56.061 -53.756  1.00  0.00     0.204 C 
HETATM   10  C   UNL     1     -41.952  54.844 -53.665  1.00  0.00     0.070 C 
HETATM   11  H   UNL     1     -40.972  54.595 -56.779  1.00  0.00     0.184 HD
ENDROOT
BRANCH   9  12
HETATM   12  C   UNL     1     -42.341  57.313 -53.042  1.00  0.00    -0.017 A 
HETATM   13  C   UNL     1     -43.181  58.145 -52.235  1.00  0.00    -0.017 A 
HETATM   14  C   UNL     1     -42.603  59.273 -51.592  1.00  0.00    -0.025 A 
HETATM   15  C   UNL     1     -44.568  57.938 -52.030  1.00  0.00     0.013 A 
HETATM   16  C   UNL     1     -43.385  60.108 -50.776  1.00  0.00     0.012 A 
HETATM   17  C   UNL     1     -41.246  59.571 -51.770  1.00  0.00     0.012 A 
HETATM   18  C   UNL     1     -44.742  59.863 -50.588  1.00  0.00     0.001 A 
HETATM   19  C   UNL     1     -45.335  58.780 -51.218  1.00  0.00     0.001 A 
HETATM   20  C   UNL     1     -40.443  58.783 -52.584  1.00  0.00     0.002 A 
HETATM   21  C   UNL     1     -40.985  57.670 -53.217  1.00  0.00     0.010 A 
ENDBRANCH   9  12
BRANCH  10  22
HETATM   22  C   UNL     1     -41.965  54.165 -52.353  1.00  0.00     0.293 C 
HETATM   23  O   UNL     1     -40.969  53.968 -51.678  1.00  0.00    -0.259 OA
BRANCH  22  24
HETATM   24  O   UNL     1     -43.243  53.908 -51.975  1.00  0.00    -0.323 OA
HETATM   25  C   UNL     1     -43.584  54.383 -50.671  1.00  0.00     0.213 C 
ENDBRANCH  22  24
ENDBRANCH  10  22
BRANCH   7  26
HETATM   26  S   UNL     1     -45.042  57.888 -58.056  1.00  0.00    -0.083 SA
BRANCH  26  27
HETATM   27  C   UNL     1     -44.327  59.553 -58.118  1.00  0.00     0.123 C 
BRANCH  27  28
HETATM   28  C   UNL     1     -44.275  60.170 -56.738  1.00  0.00    -0.027 A 
HETATM   29  C   UNL     1     -43.071  60.506 -56.098  1.00  0.00     0.041 A 
HETATM   30 CL   UNL     1     -41.533  60.281 -56.854  1.00  0.00    -0.084 Cl
HETATM   31  C   UNL     1     -43.078  61.038 -54.803  1.00  0.00     0.024 A 
HETATM   32  C   UNL     1     -44.284  61.233 -54.129  1.00  0.00     0.002 A 
HETATM   33  C   UNL     1     -45.484  60.899 -54.747  1.00  0.00     0.001 A 
HETATM   34  C   UNL     1     -45.481  60.370 -56.039  1.00  0.00     0.009 A 
ENDBRANCH  27  28
ENDBRANCH  26  27
ENDBRANCH   7  26
TORSDOF 6
ENDMDL
MODEL 5
REMARK VINA RESULT:      -8.2     17.377     19.504
REMARK  6 active torsions:
REMARK  status: ('A' for Active; 'I' for Inactive)
REMARK    1  A    between atoms: C_7  and  S_8 
REMARK    2  A    between atoms: S_8  and  C_9 
REMARK    3  A    between atoms: C_9  and  C_10 
REMARK    4  A    between atoms: C_18  and  C_19 
REMARK    5  A    between atoms: C_29  and  C_30 
REMARK    6  A    between atoms: C_30  and  O_31 
ROOT
HETATM    1  C   UNL     1     -30.151  39.310 -56.588  1.00  0.00     0.070 C 
HETATM    2  C   UNL     1     -31.639  39.083 -56.497  1.00  0.00     0.037 C 
HETATM    3  N   UNL     1     -32.294  38.896 -57.712  1.00  0.00    -0.192 N 
HETATM    4  C   UNL     1     -33.574  38.484 -57.787  1.00  0.00     0.726 A 
HETATM    5  N   UNL     1     -34.345  38.478 -56.657  1.00  0.00    -0.082 N 
HETATM    6  N   UNL     1     -35.544  37.902 -56.885  1.00  0.00    -0.128 NA
HETATM    7  C   UNL     1     -35.454  37.652 -58.198  1.00  0.00     0.226 A 
HETATM    8  N   UNL     1     -34.262  37.998 -58.784  1.00  0.00    -0.035 NA
HETATM    9  C   UNL     1     -33.874  38.937 -55.344  1.00  0.00     0.204 C 
HETATM   10  C   UNL     1     -32.351  39.066 -55.341  1.00  0.00     0.070 C 
HETATM   11  H   UNL     1     -31.713  38.794 -58.541  1.00  0.00     0.184 HD
ENDROOT
BRANCH   9  12
HETATM   12  C   UNL     1     -34.620  40.228 -54.974  1.00  0.00    -0.017 A 
HETATM   13  C   UNL     1     -35.589  40.274 -53.922  1.00  0.00    -0.017 A 
HETATM   14  C   UNL     1     -36.218  41.515 -53.629  1.00  0.00    -0.025 A 
HETATM   15  C   UNL     1     -35.988  39.159 -53.141  1.00  0.00     0.013 A 
HETATM   16  C   UNL     1     -37.163  41.609 -52.594  1.00  0.00     0.012 A 
HETATM   17  C   UNL     1     -35.908  42.658 -54.376  1.00  0.00     0.012 A 
HETATM   18  C   UNL     1     -37.518  40.494 -51.839  1.00  0.00     0.001 A 
HETATM   19  C   UNL     1     -36.934  39.268 -52.116  1.00  0.00     0.001 A 
HETATM   20  C   UNL     1     -34.994  42.602 -55.421  1.00  0.00     0.002 A 
HETATM   21  C   UNL     1     -34.362  41.401 -55.720  1.00  0.00     0.010 A 
ENDBRANCH   9  12
BRANCH  10  22
HETATM   22  C   UNL     1     -31.744  39.092 -53.993  1.00  0.00     0.293 C 
HETATM   23  O   UNL     1     -31.335  38.100 -53.412  1.00  0.00    -0.259 OA
BRANCH  22  24
HETATM   24  O   UNL     1     -31.610  40.373 -53.567  1.00  0.00    -0.323 OA
HETATM   25  C   UNL     1     -32.077  40.609 -52.238  1.00  0.00     0.213 C 
ENDBRANCH  22  24
ENDBRANCH  10  22
BRANCH   7  26
HETATM   26  S   UNL     1     -36.717  36.878 -59.114  1.00  0.00    -0.083 SA
BRANCH  26  27
HETATM   27  C   UNL     1     -38.162  37.862 -58.632  1.00  0.00     0.123 C 
BRANCH  27  28
HETATM   28  C   UNL     1     -37.863  39.341 -58.727  1.00  0.00    -0.027 A 
HETATM   29  C   UNL     1     -37.542  39.979 -59.937  1.00  0.00     0.041 A 
HETATM   30 CL   UNL     1     -37.503  39.129 -61.442  1.00  0.00    -0.084 Cl
HETATM   31  C   UNL     1     -37.235  41.344 -59.963  1.00  0.00     0.024 A 
HETATM   32  C   UNL     1     -37.235  42.087 -58.783  1.00  0.00     0.002 A 
HETATM   33  C   UNL     1     -37.543  41.469 -57.575  1.00  0.00     0.001 A 
HETATM   34  C   UNL     1     -37.853  40.108 -57.547  1.00  0.00     0.009 A 
ENDBRANCH  27  28
ENDBRANCH  26  27
ENDBRANCH   7  26
TORSDOF 6
ENDMDL
MODEL 6
REMARK VINA RESULT:      -8.0      2.062      4.780
REMARK  6 active torsions:
REMARK  status: ('A' for Active; 'I' for Inactive)
REMARK    1  A    between atoms: C_7  and  S_8 
REMARK    2  A    between atoms: S_8  and  C_9 
REMARK    3  A    between atoms: C_9  and  C_10 
REMARK    4  A    between atoms: C_18  and  C_19 
REMARK    5  A    between atoms: C_29  and  C_30 
REMARK    6  A    between atoms: C_30  and  O_31 
ROOT
HETATM    1  C   UNL     1     -40.604  53.669 -54.554  1.00  0.00     0.070 C 
HETATM    2  C   UNL     1     -41.416  54.940 -54.546  1.00  0.00     0.037 C 
HETATM    3  N   UNL     1     -41.378  55.685 -55.721  1.00  0.00    -0.192 N 
HETATM    4  C   UNL     1     -42.201  56.728 -55.943  1.00  0.00     0.726 A 
HETATM    5  N   UNL     1     -42.932  57.240 -54.906  1.00  0.00    -0.082 N 
HETATM    6  N   UNL     1     -43.804  58.176 -55.335  1.00  0.00    -0.128 NA
HETATM    7  C   UNL     1     -43.488  58.232 -56.636  1.00  0.00     0.226 A 
HETATM    8  N   UNL     1     -42.508  57.360 -57.043  1.00  0.00    -0.035 NA
HETATM    9  C   UNL     1     -42.851  56.743 -53.527  1.00  0.00     0.204 C 
HETATM   10  C   UNL     1     -42.142  55.388 -53.490  1.00  0.00     0.070 C 
HETATM   11  H   UNL     1     -40.925  55.259 -56.526  1.00  0.00     0.184 HD
ENDROOT
BRANCH   9  12
HETATM   12  C   UNL     1     -42.200  57.822 -52.648  1.00  0.00    -0.017 A 
HETATM   13  C   UNL     1     -42.972  58.719 -51.843  1.00  0.00    -0.017 A 
HETATM   14  C   UNL     1     -42.289  59.674 -51.043  1.00  0.00    -0.025 A 
HETATM   15  C   UNL     1     -44.389  58.738 -51.787  1.00  0.00     0.013 A 
HETATM   16  C   UNL     1     -43.006  60.563 -50.225  1.00  0.00     0.012 A 
HETATM   17  C   UNL     1     -40.891  59.746 -51.067  1.00  0.00     0.012 A 
HETATM   18  C   UNL     1     -44.397  60.541 -50.186  1.00  0.00     0.001 A 
HETATM   19  C   UNL     1     -45.089  59.632 -50.971  1.00  0.00     0.001 A 
HETATM   20  C   UNL     1     -40.146  58.900 -51.877  1.00  0.00     0.002 A 
HETATM   21  C   UNL     1     -40.792  57.953 -52.663  1.00  0.00     0.010 A 
ENDBRANCH   9  12
BRANCH  10  22
HETATM   22  C   UNL     1     -42.385  54.606 -52.259  1.00  0.00     0.293 C 
HETATM   23  O   UNL     1     -43.389  53.944 -52.060  1.00  0.00    -0.259 OA
BRANCH  22  24
HETATM   24  O   UNL     1     -41.290  54.647 -51.459  1.00  0.00    -0.323 OA
HETATM   25  C   UNL     1     -40.985  53.414 -50.805  1.00  0.00     0.213 C 
ENDBRANCH  22  24
ENDBRANCH  10  22
BRANCH   7  26
HETATM   26  S   UNL     1     -44.294  59.276 -57.772  1.00  0.00    -0.083 SA
BRANCH  26  27
HETATM   27  C   UNL     1     -43.866  58.487 -59.348  1.00  0.00     0.123 C 
BRANCH  27  28
HETATM   28  C   UNL     1     -45.044  57.719 -59.904  1.00  0.00    -0.027 A 
HETATM   29  C   UNL     1     -45.010  56.335 -60.139  1.00  0.00     0.041 A 
HETATM   30 CL   UNL     1     -43.621  55.374 -59.771  1.00  0.00    -0.084 Cl
HETATM   31  C   UNL     1     -46.116  55.679 -60.693  1.00  0.00     0.024 A 
HETATM   32  C   UNL     1     -47.264  56.396 -61.026  1.00  0.00     0.002 A 
HETATM   33  C   UNL     1     -47.312  57.769 -60.806  1.00  0.00     0.001 A 
HETATM   34  C   UNL     1     -46.212  58.425 -60.252  1.00  0.00     0.009 A 
ENDBRANCH  27  28
ENDBRANCH  26  27
ENDBRANCH   7  26
TORSDOF 6
ENDMDL
MODEL 7
REMARK VINA RESULT:      -7.9      3.373      7.176
REMARK  6 active torsions:
REMARK  status: ('A' for Active; 'I' for Inactive)
REMARK    1  A    between atoms: C_7  and  S_8 
REMARK    2  A    between atoms: S_8  and  C_9 
REMARK    3  A    between atoms: C_9  and  C_10 
REMARK    4  A    between atoms: C_18  and  C_19 
REMARK    5  A    between atoms: C_29  and  C_30 
REMARK    6  A    between atoms: C_30  and  O_31 
ROOT
HETATM    1  C   UNL     1     -42.131  63.107 -58.197  1.00  0.00     0.070 C 
HETATM    2  C   UNL     1     -42.549  61.762 -57.658  1.00  0.00     0.037 C 
HETATM    3  N   UNL     1     -41.780  61.271 -56.606  1.00  0.00    -0.192 N 
HETATM    4  C   UNL     1     -42.144  60.191 -55.888  1.00  0.00     0.726 A 
HETATM    5  N   UNL     1     -43.162  59.396 -56.339  1.00  0.00    -0.082 N 
HETATM    6  N   UNL     1     -43.487  58.453 -55.430  1.00  0.00    -0.128 NA
HETATM    7  C   UNL     1     -42.570  58.693 -54.483  1.00  0.00     0.226 A 
HETATM    8  N   UNL     1     -41.728  59.750 -54.732  1.00  0.00    -0.035 NA
HETATM    9  C   UNL     1     -43.876  59.622 -57.602  1.00  0.00     0.204 C 
HETATM   10  C   UNL     1     -43.585  61.026 -58.134  1.00  0.00     0.070 C 
HETATM   11  H   UNL     1     -41.094  61.902 -56.200  1.00  0.00     0.184 HD
ENDROOT
BRANCH   9  12
HETATM   12  C   UNL     1     -43.527  58.489 -58.579  1.00  0.00    -0.017 A 
HETATM   13  C   UNL     1     -44.529  57.647 -59.160  1.00  0.00    -0.017 A 
HETATM   14  C   UNL     1     -44.121  56.636 -60.071  1.00  0.00    -0.025 A 
HETATM   15  C   UNL     1     -45.917  57.735 -58.885  1.00  0.00     0.013 A 
HETATM   16  C   UNL     1     -45.071  55.797 -60.678  1.00  0.00     0.012 A 
HETATM   17  C   UNL     1     -42.765  56.458 -60.371  1.00  0.00     0.012 A 
HETATM   18  C   UNL     1     -46.428  55.924 -60.394  1.00  0.00     0.001 A 
HETATM   19  C   UNL     1     -46.851  56.889 -59.494  1.00  0.00     0.001 A 
HETATM   20  C   UNL     1     -41.793  57.252 -59.777  1.00  0.00     0.002 A 
HETATM   21  C   UNL     1     -42.168  58.252 -58.887  1.00  0.00     0.010 A 
ENDBRANCH   9  12
BRANCH  10  22
HETATM   22  C   UNL     1     -44.561  61.514 -59.131  1.00  0.00     0.293 C 
HETATM   23  O   UNL     1     -44.350  61.547 -60.331  1.00  0.00    -0.259 OA
BRANCH  22  24
HETATM   24  O   UNL     1     -45.740  61.802 -58.525  1.00  0.00    -0.323 OA
HETATM   25  C   UNL     1     -45.935  63.187 -58.230  1.00  0.00     0.213 C 
ENDBRANCH  22  24
ENDBRANCH  10  22
BRANCH   7  26
HETATM   26  S   UNL     1     -42.470  57.792 -52.998  1.00  0.00    -0.083 SA
BRANCH  26  27
HETATM   27  C   UNL     1     -43.212  56.212 -53.486  1.00  0.00     0.123 C 
BRANCH  27  28
HETATM   28  C   UNL     1     -42.148  55.161 -53.708  1.00  0.00    -0.027 A 
HETATM   29  C   UNL     1     -41.762  54.723 -54.985  1.00  0.00     0.041 A 
HETATM   30 CL   UNL     1     -42.445  55.384 -56.429  1.00  0.00    -0.084 Cl
HETATM   31  C   UNL     1     -40.798  53.718 -55.132  1.00  0.00     0.024 A 
HETATM   32  C   UNL     1     -40.215  53.133 -54.009  1.00  0.00     0.002 A 
HETATM   33  C   UNL     1     -40.592  53.550 -52.737  1.00  0.00     0.001 A 
HETATM   34  C   UNL     1     -41.550  54.554 -52.586  1.00  0.00     0.009 A 
ENDBRANCH  27  28
ENDBRANCH  26  27
ENDBRANCH   7  26
TORSDOF 6
ENDMDL
MODEL 8
REMARK VINA RESULT:      -7.8      2.919      5.571
REMARK  6 active torsions:
REMARK  status: ('A' for Active; 'I' for Inactive)
REMARK    1  A    between atoms: C_7  and  S_8 
REMARK    2  A    between atoms: S_8  and  C_9 
REMARK    3  A    between atoms: C_9  and  C_10 
REMARK    4  A    between atoms: C_18  and  C_19 
REMARK    5  A    between atoms: C_29  and  C_30 
REMARK    6  A    between atoms: C_30  and  O_31 
ROOT
HETATM    1  C   UNL     1     -40.335  52.976 -54.316  1.00  0.00     0.070 C 
HETATM    2  C   UNL     1     -41.246  54.165 -54.487  1.00  0.00     0.037 C 
HETATM    3  N   UNL     1     -41.287  54.712 -55.767  1.00  0.00    -0.192 N 
HETATM    4  C   UNL     1     -42.196  55.639 -56.128  1.00  0.00     0.726 A 
HETATM    5  N   UNL     1     -42.949  56.252 -55.166  1.00  0.00    -0.082 N 
HETATM    6  N   UNL     1     -43.900  57.037 -55.714  1.00  0.00    -0.128 NA
HETATM    7  C   UNL     1     -43.611  56.907 -57.015  1.00  0.00     0.226 A 
HETATM    8  N   UNL     1     -42.570  56.059 -57.306  1.00  0.00    -0.035 NA
HETATM    9  C   UNL     1     -42.806  55.992 -53.728  1.00  0.00     0.204 C 
HETATM   10  C   UNL     1     -41.990  54.720 -53.496  1.00  0.00     0.070 C 
HETATM   11  H   UNL     1     -40.814  54.198 -56.506  1.00  0.00     0.184 HD
ENDROOT
BRANCH   9  12
HETATM   12  C   UNL     1     -42.230  57.246 -53.052  1.00  0.00    -0.017 A 
HETATM   13  C   UNL     1     -43.032  58.111 -52.240  1.00  0.00    -0.017 A 
HETATM   14  C   UNL     1     -42.415  59.238 -51.633  1.00  0.00    -0.025 A 
HETATM   15  C   UNL     1     -44.418  57.936 -51.997  1.00  0.00     0.013 A 
HETATM   16  C   UNL     1     -43.159  60.105 -50.816  1.00  0.00     0.012 A 
HETATM   17  C   UNL     1     -41.057  59.503 -51.850  1.00  0.00     0.012 A 
HETATM   18  C   UNL     1     -44.516  59.892 -50.589  1.00  0.00     0.001 A 
HETATM   19  C   UNL     1     -45.147  58.811 -51.184  1.00  0.00     0.001 A 
HETATM   20  C   UNL     1     -40.291  58.683 -52.668  1.00  0.00     0.002 A 
HETATM   21  C   UNL     1     -40.871  57.571 -53.267  1.00  0.00     0.010 A 
ENDBRANCH   9  12
BRANCH  10  22
HETATM   22  C   UNL     1     -42.149  54.130 -52.149  1.00  0.00     0.293 C 
HETATM   23  O   UNL     1     -41.230  53.972 -51.363  1.00  0.00    -0.259 OA
BRANCH  22  24
HETATM   24  O   UNL     1     -43.462  53.908 -51.891  1.00  0.00    -0.323 OA
HETATM   25  C   UNL     1     -43.899  54.358 -50.607  1.00  0.00     0.213 C 
ENDBRANCH  22  24
ENDBRANCH  10  22
BRANCH   7  26
HETATM   26  S   UNL     1     -44.516  57.689 -58.280  1.00  0.00    -0.083 SA
BRANCH  26  27
HETATM   27  C   UNL     1     -43.212  58.041 -59.488  1.00  0.00     0.123 C 
BRANCH  27  28
HETATM   28  C   UNL     1     -42.682  59.447 -59.316  1.00  0.00    -0.027 A 
HETATM   29  C   UNL     1     -43.009  60.498 -60.189  1.00  0.00     0.041 A 
HETATM   30 CL   UNL     1     -44.088  60.284 -61.522  1.00  0.00    -0.084 Cl
HETATM   31  C   UNL     1     -42.459  61.772 -60.006  1.00  0.00     0.024 A 
HETATM   32  C   UNL     1     -41.571  62.011 -58.958  1.00  0.00     0.002 A 
HETATM   33  C   UNL     1     -41.231  60.979 -58.089  1.00  0.00     0.001 A 
HETATM   34  C   UNL     1     -41.780  59.708 -58.267  1.00  0.00     0.009 A 
ENDBRANCH  27  28
ENDBRANCH  26  27
ENDBRANCH   7  26
TORSDOF 6
ENDMDL
MODEL 9
REMARK VINA RESULT:      -7.8      2.165      4.877
REMARK  6 active torsions:
REMARK  status: ('A' for Active; 'I' for Inactive)
REMARK    1  A    between atoms: C_7  and  S_8 
REMARK    2  A    between atoms: S_8  and  C_9 
REMARK    3  A    between atoms: C_9  and  C_10 
REMARK    4  A    between atoms: C_18  and  C_19 
REMARK    5  A    between atoms: C_29  and  C_30 
REMARK    6  A    between atoms: C_30  and  O_31 
ROOT
HETATM    1  C   UNL     1     -40.342  53.577 -53.464  1.00  0.00     0.070 C 
HETATM    2  C   UNL     1     -41.182  54.820 -53.619  1.00  0.00     0.037 C 
HETATM    3  N   UNL     1     -41.086  55.461 -54.852  1.00  0.00    -0.192 N 
HETATM    4  C   UNL     1     -41.917  56.457 -55.216  1.00  0.00     0.726 A 
HETATM    5  N   UNL     1     -42.724  57.036 -54.276  1.00  0.00    -0.082 N 
HETATM    6  N   UNL     1     -43.587  57.906 -54.840  1.00  0.00    -0.128 NA
HETATM    7  C   UNL     1     -43.191  57.857 -56.118  1.00  0.00     0.226 A 
HETATM    8  N   UNL     1     -42.167  56.981 -56.385  1.00  0.00    -0.035 NA
HETATM    9  C   UNL     1     -42.720  56.664 -52.855  1.00  0.00     0.204 C 
HETATM   10  C   UNL     1     -41.984  55.338 -52.654  1.00  0.00     0.070 C 
HETATM   11  H   UNL     1     -40.572  54.979 -55.586  1.00  0.00     0.184 HD
ENDROOT
BRANCH   9  12
HETATM   12  C   UNL     1     -42.151  57.834 -52.038  1.00  0.00    -0.017 A 
HETATM   13  C   UNL     1     -42.994  58.796 -51.396  1.00  0.00    -0.017 A 
HETATM   14  C   UNL     1     -42.386  59.836 -50.641  1.00  0.00    -0.025 A 
HETATM   15  C   UNL     1     -44.410  58.803 -51.462  1.00  0.00     0.013 A 
HETATM   16  C   UNL     1     -43.174  60.792 -49.980  1.00  0.00     0.012 A 
HETATM   17  C   UNL     1     -40.991  59.923 -50.553  1.00  0.00     0.012 A 
HETATM   18  C   UNL     1     -44.564  60.757 -50.057  1.00  0.00     0.001 A 
HETATM   19  C   UNL     1     -45.182  59.765 -50.802  1.00  0.00     0.001 A 
HETATM   20  C   UNL     1     -40.176  59.009 -51.208  1.00  0.00     0.002 A 
HETATM   21  C   UNL     1     -40.748  57.980 -51.946  1.00  0.00     0.010 A 
ENDBRANCH   9  12
BRANCH  10  22
HETATM   22  C   UNL     1     -42.287  54.660 -51.376  1.00  0.00     0.293 C 
HETATM   23  O   UNL     1     -43.253  53.937 -51.202  1.00  0.00    -0.259 OA
BRANCH  22  24
HETATM   24  O   UNL     1     -41.283  54.871 -50.488  1.00  0.00    -0.323 OA
HETATM   25  C   UNL     1     -40.815  53.692 -49.830  1.00  0.00     0.213 C 
ENDBRANCH  22  24
ENDBRANCH  10  22
BRANCH   7  26
HETATM   26  S   UNL     1     -43.946  58.774 -57.391  1.00  0.00    -0.083 SA
BRANCH  26  27
HETATM   27  C   UNL     1     -43.151  58.070 -58.860  1.00  0.00     0.123 C 
BRANCH  27  28
HETATM   28  C   UNL     1     -43.995  56.963 -59.452  1.00  0.00    -0.027 A 
HETATM   29  C   UNL     1     -45.192  57.206 -60.146  1.00  0.00     0.041 A 
HETATM   30 CL   UNL     1     -45.787  58.804 -60.423  1.00  0.00    -0.084 Cl
HETATM   31  C   UNL     1     -45.956  56.141 -60.639  1.00  0.00     0.024 A 
HETATM   32  C   UNL     1     -45.541  54.825 -60.440  1.00  0.00     0.002 A 
HETATM   33  C   UNL     1     -44.362  54.569 -59.748  1.00  0.00     0.001 A 
HETATM   34  C   UNL     1     -43.596  55.627 -59.257  1.00  0.00     0.009 A 
ENDBRANCH  27  28
ENDBRANCH  26  27
ENDBRANCH   7  26
TORSDOF 6
ENDMDL
MODEL 10
REMARK VINA RESULT:      -7.7      3.507      6.178
REMARK  6 active torsions:
REMARK  status: ('A' for Active; 'I' for Inactive)
REMARK    1  A    between atoms: C_7  and  S_8 
REMARK    2  A    between atoms: S_8  and  C_9 
REMARK    3  A    between atoms: C_9  and  C_10 
REMARK    4  A    between atoms: C_18  and  C_19 
REMARK    5  A    between atoms: C_29  and  C_30 
REMARK    6  A    between atoms: C_30  and  O_31 
ROOT
HETATM    1  C   UNL     1     -46.296  61.498 -55.847  1.00  0.00     0.070 C 
HETATM    2  C   UNL     1     -45.305  60.527 -55.254  1.00  0.00     0.037 C 
HETATM    3  N   UNL     1     -45.779  59.234 -55.051  1.00  0.00    -0.192 N 
HETATM    4  C   UNL     1     -44.968  58.210 -54.724  1.00  0.00     0.726 A 
HETATM    5  N   UNL     1     -43.682  58.469 -54.336  1.00  0.00    -0.082 N 
HETATM    6  N   UNL     1     -42.975  57.329 -54.188  1.00  0.00    -0.128 NA
HETATM    7  C   UNL     1     -43.924  56.415 -54.431  1.00  0.00     0.226 A 
HETATM    8  N   UNL     1     -45.158  56.919 -54.760  1.00  0.00    -0.035 NA
HETATM    9  C   UNL     1     -43.124  59.821 -54.212  1.00  0.00     0.204 C 
HETATM   10  C   UNL     1     -44.030  60.837 -54.907  1.00  0.00     0.070 C 
HETATM   11  H   UNL     1     -46.695  59.010 -55.434  1.00  0.00     0.184 HD
ENDROOT
BRANCH   9  12
HETATM   12  C   UNL     1     -42.864  60.117 -52.726  1.00  0.00    -0.017 A 
HETATM   13  C   UNL     1     -41.613  59.821 -52.097  1.00  0.00    -0.017 A 
HETATM   14  C   UNL     1     -41.449  60.146 -50.723  1.00  0.00    -0.025 A 
HETATM   15  C   UNL     1     -40.509  59.209 -52.742  1.00  0.00     0.013 A 
HETATM   16  C   UNL     1     -40.233  59.889 -50.069  1.00  0.00     0.012 A 
HETATM   17  C   UNL     1     -42.503  60.721 -50.002  1.00  0.00     0.012 A 
HETATM   18  C   UNL     1     -39.165  59.299 -50.741  1.00  0.00     0.001 A 
HETATM   19  C   UNL     1     -39.305  58.955 -52.076  1.00  0.00     0.001 A 
HETATM   20  C   UNL     1     -43.728  60.972 -50.606  1.00  0.00     0.002 A 
HETATM   21  C   UNL     1     -43.909  60.669 -51.950  1.00  0.00     0.010 A 
ENDBRANCH   9  12
BRANCH  10  22
HETATM   22  C   UNL     1     -43.374  62.124 -55.224  1.00  0.00     0.293 C 
HETATM   23  O   UNL     1     -43.250  63.038 -54.427  1.00  0.00    -0.259 OA
BRANCH  22  24
HETATM   24  O   UNL     1     -42.843  62.081 -56.471  1.00  0.00    -0.323 OA
HETATM   25  C   UNL     1     -43.060  63.258 -57.251  1.00  0.00     0.213 C 
ENDBRANCH  22  24
ENDBRANCH  10  22
BRANCH   7  26
HETATM   26  S   UNL     1     -43.628  54.700 -54.408  1.00  0.00    -0.083 SA
BRANCH  26  27
HETATM   27  C   UNL     1     -42.738  54.510 -52.840  1.00  0.00     0.123 C 
BRANCH  27  28
HETATM   28  C   UNL     1     -41.646  53.471 -52.961  1.00  0.00    -0.027 A 
HETATM   29  C   UNL     1     -40.823  53.101 -51.885  1.00  0.00     0.041 A 
HETATM   30 CL   UNL     1     -41.016  53.774 -50.305  1.00  0.00    -0.084 Cl
HETATM   31  C   UNL     1     -39.800  52.161 -52.062  1.00  0.00     0.024 A 
HETATM   32  C   UNL     1     -39.581  51.588 -53.314  1.00  0.00     0.002 A 
HETATM   33  C   UNL     1     -40.383  51.949 -54.391  1.00  0.00     0.001 A 
HETATM   34  C   UNL     1     -41.405  52.884 -54.218  1.00  0.00     0.009 A 
ENDBRANCH  27  28
ENDBRANCH  26  27
ENDBRANCH   7  26
TORSDOF 6
ENDMDL
