MODEL 1
REMARK VINA RESULT:      -8.2      0.000      0.000
REMARK  5 active torsions:
REMARK  status: ('A' for Active; 'I' for Inactive)
REMARK    1  A    between atoms: C_8  and  C_9 
REMARK    2  A    between atoms: C_9  and  N_10 
REMARK       I    between atoms: N_10  and  C_11 
REMARK       I    between atoms: C_11  and  N_12 
REMARK    3  A    between atoms: C_13  and  C_14 
REMARK    4  A    between atoms: C_14  and  C_15 
REMARK    5  A    between atoms: C_15  and  C_16 
ROOT
HETATM    1  N   UNL     1     -43.055  56.971 -53.084  1.00  0.00    -0.339 N 
HETATM    2  C   UNL     1     -43.704  57.191 -54.265  1.00  0.00     0.318 C 
HETATM    3  N   UNL     1     -42.821  57.294 -55.346  1.00  0.00    -0.330 N 
HETATM    4  C   UNL     1     -41.979  56.146 -55.795  1.00  0.00     0.089 C 
HETATM    5  C   UNL     1     -42.767  55.304 -56.824  1.00  0.00     0.025 C 
HETATM    6  C   UNL     1     -43.289  56.161 -57.979  1.00  0.00     0.004 C 
HETATM    7  C   UNL     1     -44.102  57.342 -57.465  1.00  0.00     0.020 C 
HETATM    8  C   UNL     1     -43.295  58.136 -56.442  1.00  0.00     0.128 C 
HETATM    9  O   UNL     1     -44.911  57.391 -54.342  1.00  0.00    -0.247 OA
HETATM   10  H   UNL     1     -42.101  57.296 -53.080  1.00  0.00     0.164 HD
ENDROOT
BRANCH   4  11
HETATM   11  C   UNL     1     -41.400  55.261 -54.671  1.00  0.00     0.030 C 
BRANCH  11  12
HETATM   12  C   UNL     1     -41.839  53.792 -54.713  1.00  0.00     0.040 C 
BRANCH  12  13
HETATM   13  C   UNL     1     -40.952  52.951 -53.824  1.00  0.00    -0.058 A 
HETATM   14  C   UNL     1     -40.463  51.718 -54.280  1.00  0.00     0.007 A 
HETATM   15  C   UNL     1     -39.682  50.915 -53.448  1.00  0.00     0.001 A 
HETATM   16  C   UNL     1     -39.389  51.332 -52.152  1.00  0.00     0.000 A 
HETATM   17  C   UNL     1     -39.875  52.552 -51.686  1.00  0.00     0.001 A 
HETATM   18  C   UNL     1     -40.654  53.359 -52.517  1.00  0.00     0.007 A 
ENDBRANCH  12  13
ENDBRANCH  11  12
ENDBRANCH   4  11
BRANCH   1  19
HETATM   19  C   UNL     1     -43.737  56.936 -51.813  1.00  0.00     0.167 C 
BRANCH  19  20
HETATM   20  C   UNL     1     -42.867  56.194 -50.859  1.00  0.00     0.009 A 
HETATM   21  C   UNL     1     -41.639  56.584 -50.351  1.00  0.00     0.034 A 
HETATM   22  C   UNL     1     -40.835  57.809 -50.567  1.00  0.00     0.070 C 
HETATM   23  N   UNL     1     -41.226  55.564 -49.544  1.00  0.00    -0.282 N 
HETATM   24  H   UNL     1     -40.370  55.501 -49.003  1.00  0.00     0.189 HD
HETATM   25  N   UNL     1     -42.079  54.531 -49.500  1.00  0.00    -0.179 NA
HETATM   26  C   UNL     1     -43.086  54.903 -50.298  1.00  0.00     0.060 A 
HETATM   27  C   UNL     1     -44.237  53.992 -50.524  1.00  0.00     0.073 C 
ENDBRANCH  19  20
ENDBRANCH   1  19
TORSDOF 5
ENDMDL
MODEL 2
REMARK VINA RESULT:      -8.0      2.848      6.118
REMARK  5 active torsions:
REMARK  status: ('A' for Active; 'I' for Inactive)
REMARK    1  A    between atoms: C_8  and  C_9 
REMARK    2  A    between atoms: C_9  and  N_10 
REMARK       I    between atoms: N_10  and  C_11 
REMARK       I    between atoms: C_11  and  N_12 
REMARK    3  A    between atoms: C_13  and  C_14 
REMARK    4  A    between atoms: C_14  and  C_15 
REMARK    5  A    between atoms: C_15  and  C_16 
ROOT
HETATM    1  N   UNL     1     -42.648  56.205 -57.771  1.00  0.00    -0.339 N 
HETATM    2  C   UNL     1     -42.380  57.328 -57.042  1.00  0.00     0.318 C 
HETATM    3  N   UNL     1     -42.731  57.185 -55.696  1.00  0.00    -0.330 N 
HETATM    4  C   UNL     1     -42.055  56.202 -54.798  1.00  0.00     0.089 C 
HETATM    5  C   UNL     1     -40.812  56.864 -54.159  1.00  0.00     0.025 C 
HETATM    6  C   UNL     1     -41.164  58.179 -53.461  1.00  0.00     0.004 C 
HETATM    7  C   UNL     1     -41.893  59.126 -54.406  1.00  0.00     0.020 C 
HETATM    8  C   UNL     1     -43.100  58.430 -55.026  1.00  0.00     0.128 C 
HETATM    9  O   UNL     1     -41.986  58.375 -57.543  1.00  0.00    -0.247 OA
HETATM   10  H   UNL     1     -43.375  55.629 -57.374  1.00  0.00     0.164 HD
ENDROOT
BRANCH   4  11
HETATM   11  C   UNL     1     -41.700  54.844 -55.440  1.00  0.00     0.030 C 
BRANCH  11  12
HETATM   12  C   UNL     1     -42.288  53.619 -54.729  1.00  0.00     0.040 C 
BRANCH  12  13
HETATM   13  C   UNL     1     -41.246  52.972 -53.845  1.00  0.00    -0.058 A 
HETATM   14  C   UNL     1     -40.535  51.851 -54.298  1.00  0.00     0.007 A 
HETATM   15  C   UNL     1     -39.606  51.221 -53.470  1.00  0.00     0.001 A 
HETATM   16  C   UNL     1     -39.383  51.699 -52.181  1.00  0.00     0.000 A 
HETATM   17  C   UNL     1     -40.089  52.809 -51.718  1.00  0.00     0.001 A 
HETATM   18  C   UNL     1     -41.017  53.443 -52.546  1.00  0.00     0.007 A 
ENDBRANCH  12  13
ENDBRANCH  11  12
ENDBRANCH   4  11
BRANCH   1  19
HETATM   19  C   UNL     1     -42.475  56.141 -59.201  1.00  0.00     0.167 C 
BRANCH  19  20
HETATM   20  C   UNL     1     -43.824  56.250 -59.821  1.00  0.00     0.009 A 
HETATM   21  C   UNL     1     -44.434  57.383 -60.331  1.00  0.00     0.034 A 
HETATM   22  C   UNL     1     -43.965  58.784 -60.437  1.00  0.00     0.070 C 
HETATM   23  N   UNL     1     -45.667  56.985 -60.762  1.00  0.00    -0.282 N 
HETATM   24  H   UNL     1     -46.391  57.548 -61.194  1.00  0.00     0.189 HD
HETATM   25  N   UNL     1     -45.916  55.685 -60.554  1.00  0.00    -0.179 NA
HETATM   26  C   UNL     1     -44.798  55.224 -59.981  1.00  0.00     0.060 A 
HETATM   27  C   UNL     1     -44.699  53.798 -59.577  1.00  0.00     0.073 C 
ENDBRANCH  19  20
ENDBRANCH   1  19
TORSDOF 5
ENDMDL
MODEL 3
REMARK VINA RESULT:      -7.6      1.580      2.265
REMARK  5 active torsions:
REMARK  status: ('A' for Active; 'I' for Inactive)
REMARK    1  A    between atoms: C_8  and  C_9 
REMARK    2  A    between atoms: C_9  and  N_10 
REMARK       I    between atoms: N_10  and  C_11 
REMARK       I    between atoms: C_11  and  N_12 
REMARK    3  A    between atoms: C_13  and  C_14 
REMARK    4  A    between atoms: C_14  and  C_15 
REMARK    5  A    between atoms: C_15  and  C_16 
ROOT
HETATM    1  N   UNL     1     -42.907  57.404 -53.457  1.00  0.00    -0.339 N 
HETATM    2  C   UNL     1     -43.545  57.512 -54.659  1.00  0.00     0.318 C 
HETATM    3  N   UNL     1     -42.673  57.350 -55.740  1.00  0.00    -0.330 N 
HETATM    4  C   UNL     1     -41.968  56.061 -56.007  1.00  0.00     0.089 C 
HETATM    5  C   UNL     1     -42.860  55.165 -56.896  1.00  0.00     0.025 C 
HETATM    6  C   UNL     1     -43.302  55.887 -58.170  1.00  0.00     0.004 C 
HETATM    7  C   UNL     1     -43.972  57.216 -57.844  1.00  0.00     0.020 C 
HETATM    8  C   UNL     1     -43.068  58.062 -56.954  1.00  0.00     0.128 C 
HETATM    9  O   UNL     1     -44.724  57.830 -54.768  1.00  0.00    -0.247 OA
HETATM   10  H   UNL     1     -41.922  57.618 -53.501  1.00  0.00     0.164 HD
ENDROOT
BRANCH   4  11
HETATM   11  C   UNL     1     -41.473  55.299 -54.759  1.00  0.00     0.030 C 
BRANCH  11  12
HETATM   12  C   UNL     1     -41.936  53.841 -54.666  1.00  0.00     0.040 C 
BRANCH  12  13
HETATM   13  C   UNL     1     -41.006  53.047 -53.778  1.00  0.00    -0.058 A 
HETATM   14  C   UNL     1     -40.396  51.880 -54.260  1.00  0.00     0.007 A 
HETATM   15  C   UNL     1     -39.572  51.117 -53.432  1.00  0.00     0.001 A 
HETATM   16  C   UNL     1     -39.356  51.509 -52.113  1.00  0.00     0.000 A 
HETATM   17  C   UNL     1     -39.962  52.664 -51.621  1.00  0.00     0.001 A 
HETATM   18  C   UNL     1     -40.784  53.431 -52.449  1.00  0.00     0.007 A 
ENDBRANCH  12  13
ENDBRANCH  11  12
ENDBRANCH   4  11
BRANCH   1  19
HETATM   19  C   UNL     1     -43.568  57.639 -52.197  1.00  0.00     0.167 C 
BRANCH  19  20
HETATM   20  C   UNL     1     -42.624  58.395 -51.329  1.00  0.00     0.009 A 
HETATM   21  C   UNL     1     -41.583  57.890 -50.568  1.00  0.00     0.034 A 
HETATM   22  C   UNL     1     -41.082  56.508 -50.387  1.00  0.00     0.070 C 
HETATM   23  N   UNL     1     -41.028  58.963 -49.931  1.00  0.00    -0.282 N 
HETATM   24  H   UNL     1     -40.243  58.974 -49.291  1.00  0.00     0.189 HD
HETATM   25  N   UNL     1     -41.639  60.124 -50.203  1.00  0.00    -0.179 NA
HETATM   26  C   UNL     1     -42.615  59.792 -51.056  1.00  0.00     0.060 A 
HETATM   27  C   UNL     1     -43.539  60.831 -51.577  1.00  0.00     0.073 C 
ENDBRANCH  19  20
ENDBRANCH   1  19
TORSDOF 5
ENDMDL
MODEL 4
REMARK VINA RESULT:      -7.5      2.368      5.657
REMARK  5 active torsions:
REMARK  status: ('A' for Active; 'I' for Inactive)
REMARK    1  A    between atoms: C_8  and  C_9 
REMARK    2  A    between atoms: C_9  and  N_10 
REMARK       I    between atoms: N_10  and  C_11 
REMARK       I    between atoms: C_11  and  N_12 
REMARK    3  A    between atoms: C_13  and  C_14 
REMARK    4  A    between atoms: C_14  and  C_15 
REMARK    5  A    between atoms: C_15  and  C_16 
ROOT
HETATM    1  N   UNL     1     -44.365  57.227 -56.580  1.00  0.00    -0.339 N 
HETATM    2  C   UNL     1     -44.148  58.131 -55.580  1.00  0.00     0.318 C 
HETATM    3  N   UNL     1     -44.008  57.519 -54.331  1.00  0.00    -0.330 N 
HETATM    4  C   UNL     1     -42.871  56.603 -54.018  1.00  0.00     0.089 C 
HETATM    5  C   UNL     1     -41.680  57.430 -53.483  1.00  0.00     0.025 C 
HETATM    6  C   UNL     1     -42.086  58.315 -52.303  1.00  0.00     0.004 C 
HETATM    7  C   UNL     1     -43.278  59.194 -52.660  1.00  0.00     0.020 C 
HETATM    8  C   UNL     1     -44.423  58.343 -53.198  1.00  0.00     0.128 C 
HETATM    9  O   UNL     1     -44.190  59.344 -55.751  1.00  0.00    -0.247 OA
HETATM   10  H   UNL     1     -44.773  56.361 -56.261  1.00  0.00     0.164 HD
ENDROOT
BRANCH   4  11
HETATM   11  C   UNL     1     -42.434  55.664 -55.163  1.00  0.00     0.030 C 
BRANCH  11  12
HETATM   12  C   UNL     1     -42.803  54.189 -54.967  1.00  0.00     0.040 C 
BRANCH  12  13
HETATM   13  C   UNL     1     -41.826  53.520 -54.028  1.00  0.00    -0.058 A 
HETATM   14  C   UNL     1     -41.880  53.780 -52.651  1.00  0.00     0.007 A 
HETATM   15  C   UNL     1     -40.952  53.202 -51.784  1.00  0.00     0.001 A 
HETATM   16  C   UNL     1     -39.957  52.366 -52.285  1.00  0.00     0.000 A 
HETATM   17  C   UNL     1     -39.890  52.106 -53.653  1.00  0.00     0.001 A 
HETATM   18  C   UNL     1     -40.819  52.680 -54.522  1.00  0.00     0.007 A 
ENDBRANCH  12  13
ENDBRANCH  11  12
ENDBRANCH   4  11
BRANCH   1  19
HETATM   19  C   UNL     1     -44.648  57.617 -57.939  1.00  0.00     0.167 C 
BRANCH  19  20
HETATM   20  C   UNL     1     -43.450  57.287 -58.759  1.00  0.00     0.009 A 
HETATM   21  C   UNL     1     -42.315  58.057 -58.949  1.00  0.00     0.034 A 
HETATM   22  C   UNL     1     -41.931  59.384 -58.415  1.00  0.00     0.070 C 
HETATM   23  N   UNL     1     -41.516  57.345 -59.797  1.00  0.00    -0.282 N 
HETATM   24  H   UNL     1     -40.602  57.598 -60.156  1.00  0.00     0.189 HD
HETATM   25  N   UNL     1     -42.050  56.181 -60.190  1.00  0.00    -0.179 NA
HETATM   26  C   UNL     1     -43.231  56.133 -59.563  1.00  0.00     0.060 A 
HETATM   27  C   UNL     1     -44.141  54.978 -59.770  1.00  0.00     0.073 C 
ENDBRANCH  19  20
ENDBRANCH   1  19
TORSDOF 5
ENDMDL
MODEL 5
REMARK VINA RESULT:      -7.4      2.091      5.716
REMARK  5 active torsions:
REMARK  status: ('A' for Active; 'I' for Inactive)
REMARK    1  A    between atoms: C_8  and  C_9 
REMARK    2  A    between atoms: C_9  and  N_10 
REMARK       I    between atoms: N_10  and  C_11 
REMARK       I    between atoms: C_11  and  N_12 
REMARK    3  A    between atoms: C_13  and  C_14 
REMARK    4  A    between atoms: C_14  and  C_15 
REMARK    5  A    between atoms: C_15  and  C_16 
ROOT
HETATM    1  N   UNL     1     -42.616  58.387 -54.938  1.00  0.00    -0.339 N 
HETATM    2  C   UNL     1     -41.955  58.992 -53.908  1.00  0.00     0.318 C 
HETATM    3  N   UNL     1     -42.505  58.673 -52.662  1.00  0.00    -0.330 N 
HETATM    4  C   UNL     1     -42.487  57.282 -52.119  1.00  0.00     0.089 C 
HETATM    5  C   UNL     1     -41.175  57.058 -51.332  1.00  0.00     0.025 C 
HETATM    6  C   UNL     1     -40.963  58.130 -50.261  1.00  0.00     0.004 C 
HETATM    7  C   UNL     1     -41.038  59.528 -50.860  1.00  0.00     0.020 C 
HETATM    8  C   UNL     1     -42.338  59.703 -51.639  1.00  0.00     0.128 C 
HETATM    9  O   UNL     1     -41.058  59.810 -54.074  1.00  0.00    -0.247 OA
HETATM   10  H   UNL     1     -43.572  58.149 -54.722  1.00  0.00     0.164 HD
ENDROOT
BRANCH   4  11
HETATM   11  C   UNL     1     -42.723  56.157 -53.149  1.00  0.00     0.030 C 
BRANCH  11  12
HETATM   12  C   UNL     1     -43.075  54.792 -52.547  1.00  0.00     0.040 C 
BRANCH  12  13
HETATM   13  C   UNL     1     -41.959  53.802 -52.796  1.00  0.00    -0.058 A 
HETATM   14  C   UNL     1     -41.129  53.396 -51.740  1.00  0.00     0.007 A 
HETATM   15  C   UNL     1     -40.070  52.518 -51.972  1.00  0.00     0.001 A 
HETATM   16  C   UNL     1     -39.824  52.045 -53.259  1.00  0.00     0.000 A 
HETATM   17  C   UNL     1     -40.638  52.448 -54.316  1.00  0.00     0.001 A 
HETATM   18  C   UNL     1     -41.702  53.323 -54.087  1.00  0.00     0.007 A 
ENDBRANCH  12  13
ENDBRANCH  11  12
ENDBRANCH   4  11
BRANCH   1  19
HETATM   19  C   UNL     1     -42.306  58.643 -56.323  1.00  0.00     0.167 C 
BRANCH  19  20
HETATM   20  C   UNL     1     -43.371  58.005 -57.146  1.00  0.00     0.009 A 
HETATM   21  C   UNL     1     -43.550  56.656 -57.402  1.00  0.00     0.034 A 
HETATM   22  C   UNL     1     -42.792  55.465 -56.953  1.00  0.00     0.070 C 
HETATM   23  N   UNL     1     -44.638  56.571 -58.222  1.00  0.00    -0.282 N 
HETATM   24  H   UNL     1     -45.063  55.738 -58.614  1.00  0.00     0.189 HD
HETATM   25  N   UNL     1     -45.169  57.760 -58.537  1.00  0.00    -0.179 NA
HETATM   26  C   UNL     1     -44.406  58.644 -57.886  1.00  0.00     0.060 A 
HETATM   27  C   UNL     1     -44.677  60.099 -58.008  1.00  0.00     0.073 C 
ENDBRANCH  19  20
ENDBRANCH   1  19
TORSDOF 5
ENDMDL
MODEL 6
REMARK VINA RESULT:      -7.2      2.120      5.810
REMARK  5 active torsions:
REMARK  status: ('A' for Active; 'I' for Inactive)
REMARK    1  A    between atoms: C_8  and  C_9 
REMARK    2  A    between atoms: C_9  and  N_10 
REMARK       I    between atoms: N_10  and  C_11 
REMARK       I    between atoms: C_11  and  N_12 
REMARK    3  A    between atoms: C_13  and  C_14 
REMARK    4  A    between atoms: C_14  and  C_15 
REMARK    5  A    between atoms: C_15  and  C_16 
ROOT
HETATM    1  N   UNL     1     -42.965  56.468 -52.486  1.00  0.00    -0.339 N 
HETATM    2  C   UNL     1     -41.976  55.582 -52.166  1.00  0.00     0.318 C 
HETATM    3  N   UNL     1     -42.207  54.311 -52.703  1.00  0.00    -0.330 N 
HETATM    4  C   UNL     1     -42.226  54.063 -54.175  1.00  0.00     0.089 C 
HETATM    5  C   UNL     1     -40.792  53.748 -54.659  1.00  0.00     0.025 C 
HETATM    6  C   UNL     1     -40.159  52.606 -53.860  1.00  0.00     0.004 C 
HETATM    7  C   UNL     1     -40.208  52.889 -52.364  1.00  0.00     0.020 C 
HETATM    8  C   UNL     1     -41.635  53.210 -51.931  1.00  0.00     0.128 C 
HETATM    9  O   UNL     1     -41.058  55.848 -51.399  1.00  0.00    -0.247 OA
HETATM   10  H   UNL     1     -43.850  56.030 -52.693  1.00  0.00     0.164 HD
ENDROOT
BRANCH   4  11
HETATM   11  C   UNL     1     -42.877  55.168 -55.033  1.00  0.00     0.030 C 
BRANCH  11  12
HETATM   12  C   UNL     1     -43.210  54.760 -56.472  1.00  0.00     0.040 C 
BRANCH  12  13
HETATM   13  C   UNL     1     -42.917  55.897 -57.424  1.00  0.00    -0.058 A 
HETATM   14  C   UNL     1     -43.012  55.698 -58.810  1.00  0.00     0.007 A 
HETATM   15  C   UNL     1     -42.699  56.729 -59.696  1.00  0.00     0.001 A 
HETATM   16  C   UNL     1     -42.282  57.965 -59.207  1.00  0.00     0.000 A 
HETATM   17  C   UNL     1     -42.178  58.172 -57.832  1.00  0.00     0.001 A 
HETATM   18  C   UNL     1     -42.494  57.142 -56.944  1.00  0.00     0.007 A 
ENDBRANCH  12  13
ENDBRANCH  11  12
ENDBRANCH   4  11
BRANCH   1  19
HETATM   19  C   UNL     1     -43.010  57.811 -51.962  1.00  0.00     0.167 C 
BRANCH  19  20
HETATM   20  C   UNL     1     -42.666  58.739 -53.075  1.00  0.00     0.009 A 
HETATM   21  C   UNL     1     -43.531  59.348 -53.968  1.00  0.00     0.034 A 
HETATM   22  C   UNL     1     -45.006  59.295 -54.095  1.00  0.00     0.070 C 
HETATM   23  N   UNL     1     -42.745  60.079 -54.813  1.00  0.00    -0.282 N 
HETATM   24  H   UNL     1     -43.034  60.658 -55.593  1.00  0.00     0.189 HD
HETATM   25  N   UNL     1     -41.435  59.977 -54.552  1.00  0.00    -0.179 NA
HETATM   26  C   UNL     1     -41.373  59.162 -53.492  1.00  0.00     0.060 A 
HETATM   27  C   UNL     1     -40.058  58.788 -52.913  1.00  0.00     0.073 C 
ENDBRANCH  19  20
ENDBRANCH   1  19
TORSDOF 5
ENDMDL
MODEL 7
REMARK VINA RESULT:      -7.2      2.335      5.651
REMARK  5 active torsions:
REMARK  status: ('A' for Active; 'I' for Inactive)
REMARK    1  A    between atoms: C_8  and  C_9 
REMARK    2  A    between atoms: C_9  and  N_10 
REMARK       I    between atoms: N_10  and  C_11 
REMARK       I    between atoms: C_11  and  N_12 
REMARK    3  A    between atoms: C_13  and  C_14 
REMARK    4  A    between atoms: C_14  and  C_15 
REMARK    5  A    between atoms: C_15  and  C_16 
ROOT
HETATM    1  N   UNL     1     -42.718  57.834 -55.883  1.00  0.00    -0.339 N 
HETATM    2  C   UNL     1     -42.240  58.656 -54.902  1.00  0.00     0.318 C 
HETATM    3  N   UNL     1     -42.639  58.247 -53.626  1.00  0.00    -0.330 N 
HETATM    4  C   UNL     1     -42.196  56.951 -53.031  1.00  0.00     0.089 C 
HETATM    5  C   UNL     1     -40.857  57.162 -52.287  1.00  0.00     0.025 C 
HETATM    6  C   UNL     1     -40.945  58.298 -51.266  1.00  0.00     0.004 C 
HETATM    7  C   UNL     1     -41.447  59.582 -51.914  1.00  0.00     0.020 C 
HETATM    8  C   UNL     1     -42.759  59.328 -52.649  1.00  0.00     0.128 C 
HETATM    9  O   UNL     1     -41.630  59.693 -55.133  1.00  0.00    -0.247 OA
HETATM   10  H   UNL     1     -43.555  57.336 -55.621  1.00  0.00     0.164 HD
ENDROOT
BRANCH   4  11
HETATM   11  C   UNL     1     -42.114  55.760 -54.008  1.00  0.00     0.030 C 
BRANCH  11  12
HETATM   12  C   UNL     1     -42.656  54.435 -53.461  1.00  0.00     0.040 C 
BRANCH  12  13
HETATM   13  C   UNL     1     -41.525  53.463 -53.213  1.00  0.00    -0.058 A 
HETATM   14  C   UNL     1     -41.130  52.570 -54.220  1.00  0.00     0.007 A 
HETATM   15  C   UNL     1     -40.118  51.639 -53.983  1.00  0.00     0.001 A 
HETATM   16  C   UNL     1     -39.497  51.587 -52.738  1.00  0.00     0.000 A 
HETATM   17  C   UNL     1     -39.885  52.466 -51.728  1.00  0.00     0.001 A 
HETATM   18  C   UNL     1     -40.896  53.400 -51.963  1.00  0.00     0.007 A 
ENDBRANCH  12  13
ENDBRANCH  11  12
ENDBRANCH   4  11
BRANCH   1  19
HETATM   19  C   UNL     1     -42.534  58.105 -57.288  1.00  0.00     0.167 C 
BRANCH  19  20
HETATM   20  C   UNL     1     -43.750  57.625 -58.000  1.00  0.00     0.009 A 
HETATM   21  C   UNL     1     -45.066  57.990 -57.770  1.00  0.00     0.034 A 
HETATM   22  C   UNL     1     -45.665  58.938 -56.803  1.00  0.00     0.070 C 
HETATM   23  N   UNL     1     -45.816  57.267 -58.652  1.00  0.00    -0.282 N 
HETATM   24  H   UNL     1     -46.823  57.275 -58.772  1.00  0.00     0.189 HD
HETATM   25  N   UNL     1     -45.094  56.444 -59.425  1.00  0.00    -0.179 NA
HETATM   26  C   UNL     1     -43.830  56.654 -59.038  1.00  0.00     0.060 A 
HETATM   27  C   UNL     1     -42.720  55.893 -59.665  1.00  0.00     0.073 C 
ENDBRANCH  19  20
ENDBRANCH   1  19
TORSDOF 5
ENDMDL
MODEL 8
REMARK VINA RESULT:      -7.1      2.071      5.039
REMARK  5 active torsions:
REMARK  status: ('A' for Active; 'I' for Inactive)
REMARK    1  A    between atoms: C_8  and  C_9 
REMARK    2  A    between atoms: C_9  and  N_10 
REMARK       I    between atoms: N_10  and  C_11 
REMARK       I    between atoms: C_11  and  N_12 
REMARK    3  A    between atoms: C_13  and  C_14 
REMARK    4  A    between atoms: C_14  and  C_15 
REMARK    5  A    between atoms: C_15  and  C_16 
ROOT
HETATM    1  N   UNL     1     -44.408  57.750 -53.410  1.00  0.00    -0.339 N 
HETATM    2  C   UNL     1     -43.799  58.863 -52.903  1.00  0.00     0.318 C 
HETATM    3  N   UNL     1     -43.440  58.707 -51.560  1.00  0.00    -0.330 N 
HETATM    4  C   UNL     1     -42.420  57.708 -51.122  1.00  0.00     0.089 C 
HETATM    5  C   UNL     1     -41.016  58.351 -51.178  1.00  0.00     0.025 C 
HETATM    6  C   UNL     1     -40.958  59.661 -50.390  1.00  0.00     0.004 C 
HETATM    7  C   UNL     1     -42.047  60.625 -50.844  1.00  0.00     0.020 C 
HETATM    8  C   UNL     1     -43.412  59.947 -50.788  1.00  0.00     0.128 C 
HETATM    9  O   UNL     1     -43.691  59.912 -53.526  1.00  0.00    -0.247 OA
HETATM   10  H   UNL     1     -44.851  57.176 -52.708  1.00  0.00     0.164 HD
ENDROOT
BRANCH   4  11
HETATM   11  C   UNL     1     -42.448  56.354 -51.863  1.00  0.00     0.030 C 
BRANCH  11  12
HETATM   12  C   UNL     1     -41.387  55.345 -51.408  1.00  0.00     0.040 C 
BRANCH  12  13
HETATM   13  C   UNL     1     -40.903  54.524 -52.581  1.00  0.00    -0.058 A 
HETATM   14  C   UNL     1     -40.486  55.157 -53.761  1.00  0.00     0.007 A 
HETATM   15  C   UNL     1     -40.081  54.404 -54.863  1.00  0.00     0.001 A 
HETATM   16  C   UNL     1     -40.096  53.012 -54.800  1.00  0.00     0.000 A 
HETATM   17  C   UNL     1     -40.514  52.372 -53.634  1.00  0.00     0.001 A 
HETATM   18  C   UNL     1     -40.917  53.124 -52.529  1.00  0.00     0.007 A 
ENDBRANCH  12  13
ENDBRANCH  11  12
ENDBRANCH   4  11
BRANCH   1  19
HETATM   19  C   UNL     1     -44.967  57.702 -54.738  1.00  0.00     0.167 C 
BRANCH  19  20
HETATM   20  C   UNL     1     -43.917  57.167 -55.648  1.00  0.00     0.009 A 
HETATM   21  C   UNL     1     -43.227  57.845 -56.638  1.00  0.00     0.034 A 
HETATM   22  C   UNL     1     -43.292  59.255 -57.087  1.00  0.00     0.070 C 
HETATM   23  N   UNL     1     -42.395  56.928 -57.212  1.00  0.00    -0.282 N 
HETATM   24  H   UNL     1     -41.738  57.067 -57.972  1.00  0.00     0.189 HD
HETATM   25  N   UNL     1     -42.502  55.700 -56.686  1.00  0.00    -0.179 NA
HETATM   26  C   UNL     1     -43.427  55.832 -55.729  1.00  0.00     0.060 A 
HETATM   27  C   UNL     1     -43.840  54.657 -54.921  1.00  0.00     0.073 C 
ENDBRANCH  19  20
ENDBRANCH   1  19
TORSDOF 5
ENDMDL
MODEL 9
REMARK VINA RESULT:      -7.1      2.498      7.112
REMARK  5 active torsions:
REMARK  status: ('A' for Active; 'I' for Inactive)
REMARK    1  A    between atoms: C_8  and  C_9 
REMARK    2  A    between atoms: C_9  and  N_10 
REMARK       I    between atoms: N_10  and  C_11 
REMARK       I    between atoms: C_11  and  N_12 
REMARK    3  A    between atoms: C_13  and  C_14 
REMARK    4  A    between atoms: C_14  and  C_15 
REMARK    5  A    between atoms: C_15  and  C_16 
ROOT
HETATM    1  N   UNL     1     -42.405  56.592 -56.069  1.00  0.00    -0.339 N 
HETATM    2  C   UNL     1     -42.145  55.297 -55.725  1.00  0.00     0.318 C 
HETATM    3  N   UNL     1     -40.955  55.169 -55.000  1.00  0.00    -0.330 N 
HETATM    4  C   UNL     1     -40.781  55.773 -53.646  1.00  0.00     0.089 C 
HETATM    5  C   UNL     1     -41.265  54.771 -52.573  1.00  0.00     0.025 C 
HETATM    6  C   UNL     1     -40.587  53.407 -52.720  1.00  0.00     0.004 C 
HETATM    7  C   UNL     1     -40.755  52.859 -54.131  1.00  0.00     0.020 C 
HETATM    8  C   UNL     1     -40.281  53.882 -55.158  1.00  0.00     0.128 C 
HETATM    9  O   UNL     1     -42.821  54.350 -56.110  1.00  0.00    -0.247 OA
HETATM   10  H   UNL     1     -41.581  57.172 -56.117  1.00  0.00     0.164 HD
ENDROOT
BRANCH   4  11
HETATM   11  C   UNL     1     -41.420  57.163 -53.445  1.00  0.00     0.030 C 
BRANCH  11  12
HETATM   12  C   UNL     1     -42.598  57.198 -52.464  1.00  0.00     0.040 C 
BRANCH  12  13
HETATM   13  C   UNL     1     -42.627  58.514 -51.722  1.00  0.00    -0.058 A 
HETATM   14  C   UNL     1     -41.482  58.971 -51.051  1.00  0.00     0.007 A 
HETATM   15  C   UNL     1     -41.516  60.163 -50.326  1.00  0.00     0.001 A 
HETATM   16  C   UNL     1     -42.693  60.904 -50.257  1.00  0.00     0.000 A 
HETATM   17  C   UNL     1     -43.838  60.456 -50.914  1.00  0.00     0.001 A 
HETATM   18  C   UNL     1     -43.807  59.266 -51.643  1.00  0.00     0.007 A 
ENDBRANCH  12  13
ENDBRANCH  11  12
ENDBRANCH   4  11
BRANCH   1  19
HETATM   19  C   UNL     1     -43.515  56.969 -56.910  1.00  0.00     0.167 C 
BRANCH  19  20
HETATM   20  C   UNL     1     -43.002  57.091 -58.302  1.00  0.00     0.009 A 
HETATM   21  C   UNL     1     -42.257  58.125 -58.844  1.00  0.00     0.034 A 
HETATM   22  C   UNL     1     -41.739  59.377 -58.245  1.00  0.00     0.070 C 
HETATM   23  N   UNL     1     -42.052  57.796 -60.152  1.00  0.00    -0.282 N 
HETATM   24  H   UNL     1     -41.545  58.318 -60.858  1.00  0.00     0.189 HD
HETATM   25  N   UNL     1     -42.622  56.637 -60.512  1.00  0.00    -0.179 NA
HETATM   26  C   UNL     1     -43.205  56.196 -59.391  1.00  0.00     0.060 A 
HETATM   27  C   UNL     1     -43.969  54.923 -59.397  1.00  0.00     0.073 C 
ENDBRANCH  19  20
ENDBRANCH   1  19
TORSDOF 5
ENDMDL
MODEL 10
REMARK VINA RESULT:      -7.0     15.386     16.929
REMARK  5 active torsions:
REMARK  status: ('A' for Active; 'I' for Inactive)
REMARK    1  A    between atoms: C_8  and  C_9 
REMARK    2  A    between atoms: C_9  and  N_10 
REMARK       I    between atoms: N_10  and  C_11 
REMARK       I    between atoms: C_11  and  N_12 
REMARK    3  A    between atoms: C_13  and  C_14 
REMARK    4  A    between atoms: C_14  and  C_15 
REMARK    5  A    between atoms: C_15  and  C_16 
ROOT
HETATM    1  N   UNL     1     -35.870  38.920 -55.961  1.00  0.00    -0.339 N 
HETATM    2  C   UNL     1     -36.054  39.132 -57.297  1.00  0.00     0.318 C 
HETATM    3  N   UNL     1     -37.207  39.877 -57.564  1.00  0.00    -0.330 N 
HETATM    4  C   UNL     1     -37.358  41.294 -57.117  1.00  0.00     0.089 C 
HETATM    5  C   UNL     1     -36.784  42.236 -58.200  1.00  0.00     0.025 C 
HETATM    6  C   UNL     1     -37.400  41.965 -59.575  1.00  0.00     0.004 C 
HETATM    7  C   UNL     1     -37.260  40.498 -59.961  1.00  0.00     0.020 C 
HETATM    8  C   UNL     1     -37.823  39.604 -58.860  1.00  0.00     0.128 C 
HETATM    9  O   UNL     1     -35.348  38.624 -58.161  1.00  0.00    -0.247 OA
HETATM   10  H   UNL     1     -36.723  38.963 -55.423  1.00  0.00     0.164 HD
ENDROOT
BRANCH   4  11
HETATM   11  C   UNL     1     -36.780  41.622 -55.724  1.00  0.00     0.030 C 
BRANCH  11  12
HETATM   12  C   UNL     1     -37.673  41.225 -54.543  1.00  0.00     0.040 C 
BRANCH  12  13
HETATM   13  C   UNL     1     -36.879  41.229 -53.257  1.00  0.00    -0.058 A 
HETATM   14  C   UNL     1     -35.810  42.122 -53.090  1.00  0.00     0.007 A 
HETATM   15  C   UNL     1     -35.044  42.100 -51.925  1.00  0.00     0.001 A 
HETATM   16  C   UNL     1     -35.333  41.181 -50.918  1.00  0.00     0.000 A 
HETATM   17  C   UNL     1     -36.389  40.284 -51.076  1.00  0.00     0.001 A 
HETATM   18  C   UNL     1     -37.159  40.307 -52.240  1.00  0.00     0.007 A 
ENDBRANCH  12  13
ENDBRANCH  11  12
ENDBRANCH   4  11
BRANCH   1  19
HETATM   19  C   UNL     1     -34.813  38.089 -55.439  1.00  0.00     0.167 C 
BRANCH  19  20
HETATM   20  C   UNL     1     -33.920  38.958 -54.624  1.00  0.00     0.009 A 
HETATM   21  C   UNL     1     -33.215  40.075 -55.039  1.00  0.00     0.034 A 
HETATM   22  C   UNL     1     -33.132  40.748 -56.356  1.00  0.00     0.070 C 
HETATM   23  N   UNL     1     -32.525  40.512 -53.945  1.00  0.00    -0.282 N 
HETATM   24  H   UNL     1     -31.902  41.309 -53.874  1.00  0.00     0.189 HD
HETATM   25  N   UNL     1     -32.710  39.755 -52.854  1.00  0.00    -0.179 NA
HETATM   26  C   UNL     1     -33.561  38.803 -53.255  1.00  0.00     0.060 A 
HETATM   27  C   UNL     1     -33.995  37.744 -52.310  1.00  0.00     0.073 C 
ENDBRANCH  19  20
ENDBRANCH   1  19
TORSDOF 5
ENDMDL
