MODEL 1
REMARK VINA RESULT:      -9.5      0.000      0.000
REMARK  4 active torsions:
REMARK  status: ('A' for Active; 'I' for Inactive)
REMARK    1  A    between atoms: C_4  and  C_5 
REMARK    2  A    between atoms: C_6  and  N_7 
REMARK    3  A    between atoms: C_9  and  C_10 
REMARK       I    between atoms: C_10  and  N_11 
REMARK    4  A    between atoms: N_11  and  C_12 
ROOT
HETATM    1  C   UNL     1     -41.595  54.618 -53.127  1.00  0.00     0.019 A 
HETATM    2  C   UNL     1     -41.896  55.501 -52.139  1.00  0.00     0.111 A 
HETATM    3  C   UNL     1     -41.499  55.168 -50.701  1.00  0.00     0.273 A 
HETATM    4  O   UNL     1     -41.802  55.886 -49.747  1.00  0.00    -0.266 OA
HETATM    5  N   UNL     1     -40.797  54.020 -50.482  1.00  0.00    -0.321 N 
HETATM    6  C   UNL     1     -40.460  53.116 -51.483  1.00  0.00     0.046 A 
HETATM    7  C   UNL     1     -40.843  53.374 -52.804  1.00  0.00     0.006 A 
HETATM    8  C   UNL     1     -39.750  51.961 -51.140  1.00  0.00     0.032 A 
HETATM    9  C   UNL     1     -39.413  51.040 -52.129  1.00  0.00     0.026 A 
HETATM   10  C   UNL     1     -39.785  51.282 -53.449  1.00  0.00     0.035 A 
HETATM   11 CL   UNL     1     -39.371  50.143 -54.671  1.00  0.00    -0.084 Cl
HETATM   12  C   UNL     1     -40.491  52.439 -53.789  1.00  0.00     0.038 A 
HETATM   13  H   UNL     1     -40.548  53.842 -49.519  1.00  0.00     0.169 HD
ENDROOT
BRANCH   2  14
HETATM   14  N   UNL     1     -42.606  56.714 -52.345  1.00  0.00    -0.375 N 
HETATM   15  C   UNL     1     -42.222  57.875 -51.505  1.00  0.00     0.137 C 
HETATM   16  C   UNL     1     -42.840  59.183 -52.006  1.00  0.00     0.096 C 
HETATM   17  C   UNL     1     -44.346  59.057 -52.254  1.00  0.00     0.017 C 
HETATM   18  C   UNL     1     -44.638  57.854 -53.143  1.00  0.00     0.021 C 
HETATM   19  C   UNL     1     -44.066  56.583 -52.527  1.00  0.00     0.123 C 
BRANCH  16  20
HETATM   20  C   UNL     1     -42.535  60.322 -51.031  1.00  0.00     0.229 C 
HETATM   21  N   UNL     1     -43.487  61.326 -51.025  1.00  0.00    -0.311 N 
HETATM   22  H   UNL     1     -44.293  61.228 -51.622  1.00  0.00     0.170 HD
HETATM   23  O   UNL     1     -41.516  60.274 -50.346  1.00  0.00    -0.273 OA
BRANCH  21  24
HETATM   24  C   UNL     1     -43.470  62.475 -50.221  1.00  0.00     0.129 A 
HETATM   25  N   UNL     1     -42.624  63.487 -50.471  1.00  0.00    -0.243 NA
HETATM   26  C   UNL     1     -42.664  64.564 -49.658  1.00  0.00     0.119 A 
HETATM   27  C   UNL     1     -43.522  64.682 -48.579  1.00  0.00     0.019 A 
HETATM   28  C   UNL     1     -44.392  63.632 -48.324  1.00  0.00     0.005 A 
HETATM   29  C   UNL     1     -44.371  62.515 -49.158  1.00  0.00     0.050 A 
ENDBRANCH  21  24
ENDBRANCH  16  20
ENDBRANCH   2  14
BRANCH   1  30
HETATM   30  C   UNL     1     -42.045  54.946 -54.504  1.00  0.00    -0.023 A 
HETATM   31  C   UNL     1     -42.993  54.146 -55.154  1.00  0.00     0.012 A 
HETATM   32  C   UNL     1     -43.444  54.489 -56.430  1.00  0.00     0.001 A 
HETATM   33  C   UNL     1     -42.951  55.629 -57.063  1.00  0.00     0.000 A 
HETATM   34  C   UNL     1     -42.002  56.428 -56.424  1.00  0.00     0.001 A 
HETATM   35  C   UNL     1     -41.551  56.088 -55.149  1.00  0.00     0.012 A 
ENDBRANCH   1  30
TORSDOF 4
ENDMDL
MODEL 2
REMARK VINA RESULT:      -9.1      2.987      5.269
REMARK  4 active torsions:
REMARK  status: ('A' for Active; 'I' for Inactive)
REMARK    1  A    between atoms: C_4  and  C_5 
REMARK    2  A    between atoms: C_6  and  N_7 
REMARK    3  A    between atoms: C_9  and  C_10 
REMARK       I    between atoms: C_10  and  N_11 
REMARK    4  A    between atoms: N_11  and  C_12 
ROOT
HETATM    1  C   UNL     1     -42.619  57.470 -55.194  1.00  0.00     0.019 A 
HETATM    2  C   UNL     1     -42.441  58.685 -54.613  1.00  0.00     0.111 A 
HETATM    3  C   UNL     1     -42.612  59.944 -55.461  1.00  0.00     0.273 A 
HETATM    4  O   UNL     1     -42.397  61.074 -55.020  1.00  0.00    -0.266 OA
HETATM    5  N   UNL     1     -43.004  59.793 -56.758  1.00  0.00    -0.321 N 
HETATM    6  C   UNL     1     -43.214  58.559 -57.364  1.00  0.00     0.046 A 
HETATM    7  C   UNL     1     -43.027  57.386 -56.624  1.00  0.00     0.006 A 
HETATM    8  C   UNL     1     -43.600  58.522 -58.707  1.00  0.00     0.032 A 
HETATM    9  C   UNL     1     -43.804  57.294 -59.332  1.00  0.00     0.026 A 
HETATM   10  C   UNL     1     -43.624  56.117 -58.610  1.00  0.00     0.035 A 
HETATM   11 CL   UNL     1     -43.874  54.599 -59.383  1.00  0.00    -0.084 Cl
HETATM   12  C   UNL     1     -43.242  56.157 -57.267  1.00  0.00     0.038 A 
HETATM   13  H   UNL     1     -43.113  60.650 -57.280  1.00  0.00     0.169 HD
ENDROOT
BRANCH   2  14
HETATM   14  N   UNL     1     -42.055  58.870 -53.258  1.00  0.00    -0.375 N 
HETATM   15  C   UNL     1     -42.854  59.823 -52.451  1.00  0.00     0.137 C 
HETATM   16  C   UNL     1     -42.537  59.726 -50.956  1.00  0.00     0.096 C 
HETATM   17  C   UNL     1     -41.032  59.771 -50.676  1.00  0.00     0.017 C 
HETATM   18  C   UNL     1     -40.302  58.743 -51.532  1.00  0.00     0.021 C 
HETATM   19  C   UNL     1     -40.603  58.969 -53.009  1.00  0.00     0.123 C 
BRANCH  16  20
HETATM   20  C   UNL     1     -43.275  60.821 -50.184  1.00  0.00     0.229 C 
HETATM   21  N   UNL     1     -44.301  60.350 -49.384  1.00  0.00    -0.311 N 
HETATM   22  H   UNL     1     -44.467  59.356 -49.349  1.00  0.00     0.170 HD
HETATM   23  O   UNL     1     -42.926  61.991 -50.314  1.00  0.00    -0.273 OA
BRANCH  21  24
HETATM   24  C   UNL     1     -45.128  61.126 -48.559  1.00  0.00     0.129 A 
HETATM   25  N   UNL     1     -46.227  61.726 -49.041  1.00  0.00    -0.243 NA
HETATM   26  C   UNL     1     -46.979  62.456 -48.190  1.00  0.00     0.119 A 
HETATM   27  C   UNL     1     -46.678  62.626 -46.850  1.00  0.00     0.019 A 
HETATM   28  C   UNL     1     -45.539  62.006 -46.358  1.00  0.00     0.005 A 
HETATM   29  C   UNL     1     -44.755  61.241 -47.221  1.00  0.00     0.050 A 
ENDBRANCH  21  24
ENDBRANCH  16  20
ENDBRANCH   2  14
BRANCH   1  30
HETATM   30  C   UNL     1     -42.389  56.265 -54.356  1.00  0.00    -0.023 A 
HETATM   31  C   UNL     1     -43.429  55.715 -53.597  1.00  0.00     0.012 A 
HETATM   32  C   UNL     1     -43.215  54.555 -52.850  1.00  0.00     0.001 A 
HETATM   33  C   UNL     1     -41.964  53.940 -52.856  1.00  0.00     0.000 A 
HETATM   34  C   UNL     1     -40.921  54.484 -53.606  1.00  0.00     0.001 A 
HETATM   35  C   UNL     1     -41.132  55.643 -54.355  1.00  0.00     0.012 A 
ENDBRANCH   1  30
TORSDOF 4
ENDMDL
MODEL 3
REMARK VINA RESULT:      -9.0      2.741      4.102
REMARK  4 active torsions:
REMARK  status: ('A' for Active; 'I' for Inactive)
REMARK    1  A    between atoms: C_4  and  C_5 
REMARK    2  A    between atoms: C_6  and  N_7 
REMARK    3  A    between atoms: C_9  and  C_10 
REMARK       I    between atoms: C_10  and  N_11 
REMARK    4  A    between atoms: N_11  and  C_12 
ROOT
HETATM    1  C   UNL     1     -41.086  54.150 -52.107  1.00  0.00     0.019 A 
HETATM    2  C   UNL     1     -41.233  54.833 -50.941  1.00  0.00     0.111 A 
HETATM    3  C   UNL     1     -40.908  54.129 -49.624  1.00  0.00     0.273 A 
HETATM    4  O   UNL     1     -41.086  54.661 -48.528  1.00  0.00    -0.266 OA
HETATM    5  N   UNL     1     -40.419  52.858 -49.683  1.00  0.00    -0.321 N 
HETATM    6  C   UNL     1     -40.240  52.151 -50.868  1.00  0.00     0.046 A 
HETATM    7  C   UNL     1     -40.565  52.755 -52.087  1.00  0.00     0.006 A 
HETATM    8  C   UNL     1     -39.744  50.846 -50.807  1.00  0.00     0.032 A 
HETATM    9  C   UNL     1     -39.568  50.120 -51.984  1.00  0.00     0.026 A 
HETATM   10  C   UNL     1     -39.885  50.707 -53.207  1.00  0.00     0.035 A 
HETATM   11 CL   UNL     1     -39.671  49.810 -54.660  1.00  0.00    -0.084 Cl
HETATM   12  C   UNL     1     -40.376  52.013 -53.263  1.00  0.00     0.038 A 
HETATM   13  H   UNL     1     -40.210  52.432 -48.791  1.00  0.00     0.169 HD
ENDROOT
BRANCH   2  14
HETATM   14  N   UNL     1     -41.720  56.165 -50.855  1.00  0.00    -0.375 N 
HETATM   15  C   UNL     1     -42.854  56.530 -51.738  1.00  0.00     0.137 C 
HETATM   16  C   UNL     1     -43.475  57.877 -51.358  1.00  0.00     0.096 C 
HETATM   17  C   UNL     1     -42.422  58.978 -51.197  1.00  0.00     0.017 C 
HETATM   18  C   UNL     1     -41.314  58.519 -50.257  1.00  0.00     0.021 C 
HETATM   19  C   UNL     1     -40.692  57.221 -50.758  1.00  0.00     0.123 C 
BRANCH  16  20
HETATM   20  C   UNL     1     -44.541  58.278 -52.379  1.00  0.00     0.229 C 
HETATM   21  N   UNL     1     -44.032  58.592 -53.627  1.00  0.00    -0.311 N 
HETATM   22  H   UNL     1     -43.038  58.514 -53.776  1.00  0.00     0.170 HD
HETATM   23  O   UNL     1     -45.722  58.292 -52.044  1.00  0.00    -0.273 OA
BRANCH  21  24
HETATM   24  C   UNL     1     -44.780  58.974 -54.751  1.00  0.00     0.129 A 
HETATM   25  N   UNL     1     -44.986  60.268 -55.043  1.00  0.00    -0.243 NA
HETATM   26  C   UNL     1     -45.712  60.563 -56.141  1.00  0.00     0.119 A 
HETATM   27  C   UNL     1     -46.261  59.610 -56.981  1.00  0.00     0.019 A 
HETATM   28  C   UNL     1     -46.047  58.274 -56.672  1.00  0.00     0.005 A 
HETATM   29  C   UNL     1     -45.292  57.950 -55.546  1.00  0.00     0.050 A 
ENDBRANCH  21  24
ENDBRANCH  16  20
ENDBRANCH   2  14
BRANCH   1  30
HETATM   30  C   UNL     1     -41.464  54.845 -53.364  1.00  0.00    -0.023 A 
HETATM   31  C   UNL     1     -40.610  55.793 -53.940  1.00  0.00     0.012 A 
HETATM   32  C   UNL     1     -40.953  56.406 -55.147  1.00  0.00     0.001 A 
HETATM   33  C   UNL     1     -42.150  56.076 -55.783  1.00  0.00     0.000 A 
HETATM   34  C   UNL     1     -43.008  55.136 -55.213  1.00  0.00     0.001 A 
HETATM   35  C   UNL     1     -42.667  54.522 -54.008  1.00  0.00     0.012 A 
ENDBRANCH   1  30
TORSDOF 4
ENDMDL
MODEL 4
REMARK VINA RESULT:      -9.0      3.445      7.736
REMARK  4 active torsions:
REMARK  status: ('A' for Active; 'I' for Inactive)
REMARK    1  A    between atoms: C_4  and  C_5 
REMARK    2  A    between atoms: C_6  and  N_7 
REMARK    3  A    between atoms: C_9  and  C_10 
REMARK       I    between atoms: C_10  and  N_11 
REMARK    4  A    between atoms: N_11  and  C_12 
ROOT
HETATM    1  C   UNL     1     -42.373  57.887 -55.156  1.00  0.00     0.019 A 
HETATM    2  C   UNL     1     -42.510  58.516 -53.960  1.00  0.00     0.111 A 
HETATM    3  C   UNL     1     -42.415  60.040 -53.908  1.00  0.00     0.273 A 
HETATM    4  O   UNL     1     -42.458  60.671 -52.851  1.00  0.00    -0.266 OA
HETATM    5  N   UNL     1     -42.261  60.711 -55.085  1.00  0.00    -0.321 N 
HETATM    6  C   UNL     1     -42.142  60.086 -56.322  1.00  0.00     0.046 A 
HETATM    7  C   UNL     1     -42.186  58.690 -56.397  1.00  0.00     0.006 A 
HETATM    8  C   UNL     1     -41.971  60.875 -57.463  1.00  0.00     0.032 A 
HETATM    9  C   UNL     1     -41.841  60.265 -58.709  1.00  0.00     0.026 A 
HETATM   10  C   UNL     1     -41.885  58.876 -58.802  1.00  0.00     0.035 A 
HETATM   11 CL   UNL     1     -41.720  58.122 -60.341  1.00  0.00    -0.084 Cl
HETATM   12  C   UNL     1     -42.059  58.091 -57.660  1.00  0.00     0.038 A 
HETATM   13  H   UNL     1     -42.210  61.717 -55.007  1.00  0.00     0.169 HD
ENDROOT
BRANCH   2  14
HETATM   14  N   UNL     1     -42.694  57.841 -52.723  1.00  0.00    -0.375 N 
HETATM   15  C   UNL     1     -41.738  56.757 -52.394  1.00  0.00     0.137 C 
HETATM   16  C   UNL     1     -41.851  56.305 -50.935  1.00  0.00     0.096 C 
HETATM   17  C   UNL     1     -43.298  56.014 -50.527  1.00  0.00     0.017 C 
HETATM   18  C   UNL     1     -44.197  57.192 -50.883  1.00  0.00     0.021 C 
HETATM   19  C   UNL     1     -44.090  57.516 -52.368  1.00  0.00     0.123 C 
BRANCH  16  20
HETATM   20  C   UNL     1     -40.952  55.094 -50.683  1.00  0.00     0.229 C 
HETATM   21  N   UNL     1     -41.327  53.960 -51.382  1.00  0.00    -0.311 N 
HETATM   22  H   UNL     1     -42.121  54.018 -52.001  1.00  0.00     0.170 HD
HETATM   23  O   UNL     1     -39.998  55.199 -49.916  1.00  0.00    -0.273 OA
BRANCH  21  24
HETATM   24  C   UNL     1     -40.676  52.719 -51.353  1.00  0.00     0.129 A 
HETATM   25  N   UNL     1     -40.684  51.954 -50.249  1.00  0.00    -0.243 NA
HETATM   26  C   UNL     1     -40.039  50.769 -50.293  1.00  0.00     0.119 A 
HETATM   27  C   UNL     1     -39.366  50.300 -51.407  1.00  0.00     0.019 A 
HETATM   28  C   UNL     1     -39.359  51.096 -52.543  1.00  0.00     0.005 A 
HETATM   29  C   UNL     1     -40.027  52.319 -52.519  1.00  0.00     0.050 A 
ENDBRANCH  21  24
ENDBRANCH  16  20
ENDBRANCH   2  14
BRANCH   1  30
HETATM   30  C   UNL     1     -42.414  56.403 -55.163  1.00  0.00    -0.023 A 
HETATM   31  C   UNL     1     -41.229  55.656 -55.160  1.00  0.00     0.012 A 
HETATM   32  C   UNL     1     -41.279  54.262 -55.119  1.00  0.00     0.001 A 
HETATM   33  C   UNL     1     -42.509  53.606 -55.083  1.00  0.00     0.000 A 
HETATM   34  C   UNL     1     -43.694  54.342 -55.092  1.00  0.00     0.001 A 
HETATM   35  C   UNL     1     -43.647  55.736 -55.131  1.00  0.00     0.012 A 
ENDBRANCH   1  30
TORSDOF 4
ENDMDL
MODEL 5
REMARK VINA RESULT:      -8.7      4.079      7.318
REMARK  4 active torsions:
REMARK  status: ('A' for Active; 'I' for Inactive)
REMARK    1  A    between atoms: C_4  and  C_5 
REMARK    2  A    between atoms: C_6  and  N_7 
REMARK    3  A    between atoms: C_9  and  C_10 
REMARK       I    between atoms: C_10  and  N_11 
REMARK    4  A    between atoms: N_11  and  C_12 
ROOT
HETATM    1  C   UNL     1     -41.935  56.536 -52.542  1.00  0.00     0.019 A 
HETATM    2  C   UNL     1     -42.159  56.469 -53.881  1.00  0.00     0.111 A 
HETATM    3  C   UNL     1     -41.785  55.192 -54.632  1.00  0.00     0.273 A 
HETATM    4  O   UNL     1     -41.893  55.088 -55.855  1.00  0.00    -0.266 OA
HETATM    5  N   UNL     1     -41.300  54.144 -53.909  1.00  0.00    -0.321 N 
HETATM    6  C   UNL     1     -41.086  54.185 -52.535  1.00  0.00     0.046 A 
HETATM    7  C   UNL     1     -41.383  55.353 -51.825  1.00  0.00     0.006 A 
HETATM    8  C   UNL     1     -40.570  53.053 -51.897  1.00  0.00     0.032 A 
HETATM    9  C   UNL     1     -40.340  53.081 -50.523  1.00  0.00     0.026 A 
HETATM   10  C   UNL     1     -40.631  54.235 -49.801  1.00  0.00     0.035 A 
HETATM   11 CL   UNL     1     -40.345  54.271 -48.104  1.00  0.00    -0.084 Cl
HETATM   12  C   UNL     1     -41.151  55.363 -50.441  1.00  0.00     0.038 A 
HETATM   13  H   UNL     1     -41.073  53.317 -54.442  1.00  0.00     0.169 HD
ENDROOT
BRANCH   2  14
HETATM   14  N   UNL     1     -42.684  57.540 -54.654  1.00  0.00    -0.375 N 
HETATM   15  C   UNL     1     -43.888  57.256 -55.473  1.00  0.00     0.137 C 
HETATM   16  C   UNL     1     -44.527  58.533 -56.026  1.00  0.00     0.096 C 
HETATM   17  C   UNL     1     -43.505  59.448 -56.705  1.00  0.00     0.017 C 
HETATM   18  C   UNL     1     -42.320  59.700 -55.780  1.00  0.00     0.021 C 
HETATM   19  C   UNL     1     -41.690  58.380 -55.350  1.00  0.00     0.123 C 
BRANCH  16  20
HETATM   20  C   UNL     1     -45.673  58.184 -56.977  1.00  0.00     0.229 C 
HETATM   21  N   UNL     1     -45.319  58.204 -58.314  1.00  0.00    -0.311 N 
HETATM   22  H   UNL     1     -44.363  58.416 -58.556  1.00  0.00     0.170 HD
HETATM   23  O   UNL     1     -46.780  57.917 -56.516  1.00  0.00    -0.273 OA
BRANCH  21  24
HETATM   24  C   UNL     1     -46.161  57.910 -59.396  1.00  0.00     0.129 A 
HETATM   25  N   UNL     1     -46.802  58.882 -60.064  1.00  0.00    -0.243 NA
HETATM   26  C   UNL     1     -47.595  58.527 -61.097  1.00  0.00     0.119 A 
HETATM   27  C   UNL     1     -47.789  57.219 -61.504  1.00  0.00     0.019 A 
HETATM   28  C   UNL     1     -47.126  56.218 -60.808  1.00  0.00     0.005 A 
HETATM   29  C   UNL     1     -46.297  56.567 -59.743  1.00  0.00     0.050 A 
ENDBRANCH  21  24
ENDBRANCH  16  20
ENDBRANCH   2  14
BRANCH   1  30
HETATM   30  C   UNL     1     -42.257  57.811 -51.852  1.00  0.00    -0.023 A 
HETATM   31  C   UNL     1     -41.240  58.700 -51.486  1.00  0.00     0.012 A 
HETATM   32  C   UNL     1     -41.556  59.918 -50.880  1.00  0.00     0.001 A 
HETATM   33  C   UNL     1     -42.888  60.253 -50.637  1.00  0.00     0.000 A 
HETATM   34  C   UNL     1     -43.907  59.370 -50.994  1.00  0.00     0.001 A 
HETATM   35  C   UNL     1     -43.594  58.153 -51.601  1.00  0.00     0.012 A 
ENDBRANCH   1  30
TORSDOF 4
ENDMDL
MODEL 6
REMARK VINA RESULT:      -8.7      4.612      7.631
REMARK  4 active torsions:
REMARK  status: ('A' for Active; 'I' for Inactive)
REMARK    1  A    between atoms: C_4  and  C_5 
REMARK    2  A    between atoms: C_6  and  N_7 
REMARK    3  A    between atoms: C_9  and  C_10 
REMARK       I    between atoms: C_10  and  N_11 
REMARK    4  A    between atoms: N_11  and  C_12 
ROOT
HETATM    1  C   UNL     1     -42.271  56.462 -53.778  1.00  0.00     0.019 A 
HETATM    2  C   UNL     1     -42.652  56.545 -55.079  1.00  0.00     0.111 A 
HETATM    3  C   UNL     1     -42.334  55.383 -56.020  1.00  0.00     0.273 A 
HETATM    4  O   UNL     1     -42.584  55.419 -57.225  1.00  0.00    -0.266 OA
HETATM    5  N   UNL     1     -41.735  54.278 -55.491  1.00  0.00    -0.321 N 
HETATM    6  C   UNL     1     -41.359  54.166 -54.157  1.00  0.00     0.046 A 
HETATM    7  C   UNL     1     -41.602  55.228 -53.279  1.00  0.00     0.006 A 
HETATM    8  C   UNL     1     -40.737  52.991 -53.727  1.00  0.00     0.032 A 
HETATM    9  C   UNL     1     -40.344  52.865 -52.396  1.00  0.00     0.026 A 
HETATM   10  C   UNL     1     -40.580  53.912 -51.509  1.00  0.00     0.035 A 
HETATM   11 CL   UNL     1     -40.093  53.759 -49.865  1.00  0.00    -0.084 Cl
HETATM   12  C   UNL     1     -41.206  55.084 -51.941  1.00  0.00     0.038 A 
HETATM   13  H   UNL     1     -41.549  53.531 -56.145  1.00  0.00     0.169 HD
ENDROOT
BRANCH   2  14
HETATM   14  N   UNL     1     -43.297  57.675 -55.649  1.00  0.00    -0.375 N 
HETATM   15  C   UNL     1     -44.503  57.421 -56.475  1.00  0.00     0.137 C 
HETATM   16  C   UNL     1     -45.272  58.707 -56.791  1.00  0.00     0.096 C 
HETATM   17  C   UNL     1     -44.359  59.812 -57.331  1.00  0.00     0.017 C 
HETATM   18  C   UNL     1     -43.165  60.015 -56.406  1.00  0.00     0.021 C 
HETATM   19  C   UNL     1     -42.407  58.706 -56.218  1.00  0.00     0.123 C 
BRANCH  16  20
HETATM   20  C   UNL     1     -46.419  58.416 -57.759  1.00  0.00     0.229 C 
HETATM   21  N   UNL     1     -46.043  58.410 -59.090  1.00  0.00    -0.311 N 
HETATM   22  H   UNL     1     -45.073  58.568 -59.317  1.00  0.00     0.170 HD
HETATM   23  O   UNL     1     -47.546  58.214 -57.315  1.00  0.00    -0.273 OA
BRANCH  21  24
HETATM   24  C   UNL     1     -46.882  58.156 -60.184  1.00  0.00     0.129 A 
HETATM   25  N   UNL     1     -47.515  59.154 -60.823  1.00  0.00    -0.243 NA
HETATM   26  C   UNL     1     -48.305  58.837 -61.870  1.00  0.00     0.119 A 
HETATM   27  C   UNL     1     -48.505  57.544 -62.320  1.00  0.00     0.019 A 
HETATM   28  C   UNL     1     -47.851  56.517 -61.655  1.00  0.00     0.005 A 
HETATM   29  C   UNL     1     -47.024  56.826 -60.576  1.00  0.00     0.050 A 
ENDBRANCH  21  24
ENDBRANCH  16  20
ENDBRANCH   2  14
BRANCH   1  30
HETATM   30  C   UNL     1     -42.545  57.631 -52.904  1.00  0.00    -0.023 A 
HETATM   31  C   UNL     1     -43.776  57.759 -52.248  1.00  0.00     0.012 A 
HETATM   32  C   UNL     1     -44.006  58.837 -51.392  1.00  0.00     0.001 A 
HETATM   33  C   UNL     1     -43.012  59.793 -51.188  1.00  0.00     0.000 A 
HETATM   34  C   UNL     1     -41.785  59.676 -51.842  1.00  0.00     0.001 A 
HETATM   35  C   UNL     1     -41.552  58.599 -52.697  1.00  0.00     0.012 A 
ENDBRANCH   1  30
TORSDOF 4
ENDMDL
MODEL 7
REMARK VINA RESULT:      -8.6      2.860      4.682
REMARK  4 active torsions:
REMARK  status: ('A' for Active; 'I' for Inactive)
REMARK    1  A    between atoms: C_4  and  C_5 
REMARK    2  A    between atoms: C_6  and  N_7 
REMARK    3  A    between atoms: C_9  and  C_10 
REMARK       I    between atoms: C_10  and  N_11 
REMARK    4  A    between atoms: N_11  and  C_12 
ROOT
HETATM    1  C   UNL     1     -42.382  57.633 -53.303  1.00  0.00     0.019 A 
HETATM    2  C   UNL     1     -43.396  58.448 -53.694  1.00  0.00     0.111 A 
HETATM    3  C   UNL     1     -44.482  57.892 -54.614  1.00  0.00     0.273 A 
HETATM    4  O   UNL     1     -45.390  58.591 -55.065  1.00  0.00    -0.266 OA
HETATM    5  N   UNL     1     -44.419  56.573 -54.952  1.00  0.00    -0.321 N 
HETATM    6  C   UNL     1     -43.402  55.717 -54.543  1.00  0.00     0.046 A 
HETATM    7  C   UNL     1     -42.372  56.206 -53.731  1.00  0.00     0.006 A 
HETATM    8  C   UNL     1     -43.431  54.384 -54.963  1.00  0.00     0.032 A 
HETATM    9  C   UNL     1     -42.414  53.515 -54.571  1.00  0.00     0.026 A 
HETATM   10  C   UNL     1     -41.383  53.986 -53.762  1.00  0.00     0.035 A 
HETATM   11 CL   UNL     1     -40.126  52.914 -53.280  1.00  0.00    -0.084 Cl
HETATM   12  C   UNL     1     -41.359  55.317 -53.341  1.00  0.00     0.038 A 
HETATM   13  H   UNL     1     -45.160  56.244 -55.555  1.00  0.00     0.169 HD
ENDROOT
BRANCH   2  14
HETATM   14  N   UNL     1     -43.496  59.820 -53.338  1.00  0.00    -0.375 N 
HETATM   15  C   UNL     1     -44.385  60.160 -52.200  1.00  0.00     0.137 C 
HETATM   16  C   UNL     1     -44.193  61.604 -51.726  1.00  0.00     0.096 C 
HETATM   17  C   UNL     1     -44.238  62.607 -52.882  1.00  0.00     0.017 C 
HETATM   18  C   UNL     1     -43.277  62.185 -53.988  1.00  0.00     0.021 C 
HETATM   19  C   UNL     1     -43.596  60.772 -54.462  1.00  0.00     0.123 C 
BRANCH  16  20
HETATM   20  C   UNL     1     -45.226  61.952 -50.653  1.00  0.00     0.229 C 
HETATM   21  N   UNL     1     -44.737  61.886 -49.360  1.00  0.00    -0.311 N 
HETATM   22  H   UNL     1     -43.767  61.647 -49.224  1.00  0.00     0.170 HD
HETATM   23  O   UNL     1     -46.367  62.256 -50.990  1.00  0.00    -0.273 OA
BRANCH  21  24
HETATM   24  C   UNL     1     -45.456  62.170 -48.190  1.00  0.00     0.129 A 
HETATM   25  N   UNL     1     -46.322  61.283 -47.673  1.00  0.00    -0.243 NA
HETATM   26  C   UNL     1     -46.978  61.621 -46.543  1.00  0.00     0.119 A 
HETATM   27  C   UNL     1     -46.813  62.829 -45.889  1.00  0.00     0.019 A 
HETATM   28  C   UNL     1     -45.920  63.743 -46.430  1.00  0.00     0.005 A 
HETATM   29  C   UNL     1     -45.227  63.408 -47.592  1.00  0.00     0.050 A 
ENDBRANCH  21  24
ENDBRANCH  16  20
ENDBRANCH   2  14
BRANCH   1  30
HETATM   30  C   UNL     1     -41.313  58.220 -52.456  1.00  0.00    -0.023 A 
HETATM   31  C   UNL     1     -41.459  58.281 -51.064  1.00  0.00     0.012 A 
HETATM   32  C   UNL     1     -40.429  58.792 -50.272  1.00  0.00     0.001 A 
HETATM   33  C   UNL     1     -39.250  59.245 -50.864  1.00  0.00     0.000 A 
HETATM   34  C   UNL     1     -39.099  59.192 -52.250  1.00  0.00     0.001 A 
HETATM   35  C   UNL     1     -40.126  58.680 -53.044  1.00  0.00     0.012 A 
ENDBRANCH   1  30
TORSDOF 4
ENDMDL
MODEL 8
REMARK VINA RESULT:      -8.3      2.761      3.897
REMARK  4 active torsions:
REMARK  status: ('A' for Active; 'I' for Inactive)
REMARK    1  A    between atoms: C_4  and  C_5 
REMARK    2  A    between atoms: C_6  and  N_7 
REMARK    3  A    between atoms: C_9  and  C_10 
REMARK       I    between atoms: C_10  and  N_11 
REMARK    4  A    between atoms: N_11  and  C_12 
ROOT
HETATM    1  C   UNL     1     -41.653  54.314 -52.989  1.00  0.00     0.019 A 
HETATM    2  C   UNL     1     -41.992  55.196 -52.012  1.00  0.00     0.111 A 
HETATM    3  C   UNL     1     -41.576  54.902 -50.571  1.00  0.00     0.273 A 
HETATM    4  O   UNL     1     -41.909  55.619 -49.627  1.00  0.00    -0.266 OA
HETATM    5  N   UNL     1     -40.820  53.792 -50.338  1.00  0.00    -0.321 N 
HETATM    6  C   UNL     1     -40.445  52.890 -51.328  1.00  0.00     0.046 A 
HETATM    7  C   UNL     1     -40.843  53.111 -52.651  1.00  0.00     0.006 A 
HETATM    8  C   UNL     1     -39.681  51.774 -50.972  1.00  0.00     0.032 A 
HETATM    9  C   UNL     1     -39.304  50.856 -51.950  1.00  0.00     0.026 A 
HETATM   10  C   UNL     1     -39.691  51.062 -53.272  1.00  0.00     0.035 A 
HETATM   11 CL   UNL     1     -39.229  49.926 -54.479  1.00  0.00    -0.084 Cl
HETATM   12  C   UNL     1     -40.451  52.180 -53.625  1.00  0.00     0.038 A 
HETATM   13  H   UNL     1     -40.561  53.638 -49.375  1.00  0.00     0.169 HD
ENDROOT
BRANCH   2  14
HETATM   14  N   UNL     1     -42.758  56.372 -52.232  1.00  0.00    -0.375 N 
HETATM   15  C   UNL     1     -42.149  57.429 -53.076  1.00  0.00     0.137 C 
HETATM   16  C   UNL     1     -43.162  58.504 -53.480  1.00  0.00     0.096 C 
HETATM   17  C   UNL     1     -43.956  59.034 -52.282  1.00  0.00     0.017 C 
HETATM   18  C   UNL     1     -44.561  57.878 -51.494  1.00  0.00     0.021 C 
HETATM   19  C   UNL     1     -43.474  56.904 -51.056  1.00  0.00     0.123 C 
BRANCH  16  20
HETATM   20  C   UNL     1     -42.461  59.642 -54.223  1.00  0.00     0.229 C 
HETATM   21  N   UNL     1     -42.883  59.803 -55.531  1.00  0.00    -0.311 N 
HETATM   22  H   UNL     1     -43.611  59.199 -55.880  1.00  0.00     0.170 HD
HETATM   23  O   UNL     1     -41.611  60.310 -53.640  1.00  0.00    -0.273 OA
BRANCH  21  24
HETATM   24  C   UNL     1     -42.424  60.774 -56.433  1.00  0.00     0.129 A 
HETATM   25  N   UNL     1     -41.402  60.522 -57.266  1.00  0.00    -0.243 NA
HETATM   26  C   UNL     1     -41.015  61.502 -58.110  1.00  0.00     0.119 A 
HETATM   27  C   UNL     1     -41.607  62.751 -58.163  1.00  0.00     0.019 A 
HETATM   28  C   UNL     1     -42.661  63.006 -57.298  1.00  0.00     0.005 A 
HETATM   29  C   UNL     1     -43.080  62.004 -56.424  1.00  0.00     0.050 A 
ENDBRANCH  21  24
ENDBRANCH  16  20
ENDBRANCH   2  14
BRANCH   1  30
HETATM   30  C   UNL     1     -42.122  54.601 -54.369  1.00  0.00    -0.023 A 
HETATM   31  C   UNL     1     -41.378  55.432 -55.216  1.00  0.00     0.012 A 
HETATM   32  C   UNL     1     -41.802  55.658 -56.527  1.00  0.00     0.001 A 
HETATM   33  C   UNL     1     -42.970  55.058 -56.997  1.00  0.00     0.000 A 
HETATM   34  C   UNL     1     -43.719  54.234 -56.158  1.00  0.00     0.001 A 
HETATM   35  C   UNL     1     -43.297  54.005 -54.848  1.00  0.00     0.012 A 
ENDBRANCH   1  30
TORSDOF 4
ENDMDL
MODEL 9
REMARK VINA RESULT:      -8.3      3.612      5.104
REMARK  4 active torsions:
REMARK  status: ('A' for Active; 'I' for Inactive)
REMARK    1  A    between atoms: C_4  and  C_5 
REMARK    2  A    between atoms: C_6  and  N_7 
REMARK    3  A    between atoms: C_9  and  C_10 
REMARK       I    between atoms: C_10  and  N_11 
REMARK    4  A    between atoms: N_11  and  C_12 
ROOT
HETATM    1  C   UNL     1     -42.200  56.990 -53.385  1.00  0.00     0.019 A 
HETATM    2  C   UNL     1     -43.207  57.665 -53.997  1.00  0.00     0.111 A 
HETATM    3  C   UNL     1     -44.059  56.942 -55.040  1.00  0.00     0.273 A 
HETATM    4  O   UNL     1     -44.941  57.510 -55.684  1.00  0.00    -0.266 OA
HETATM    5  N   UNL     1     -43.810  55.620 -55.262  1.00  0.00    -0.321 N 
HETATM    6  C   UNL     1     -42.798  54.906 -54.629  1.00  0.00     0.046 A 
HETATM    7  C   UNL     1     -41.976  55.551 -53.698  1.00  0.00     0.006 A 
HETATM    8  C   UNL     1     -42.623  53.556 -54.947  1.00  0.00     0.032 A 
HETATM    9  C   UNL     1     -41.608  52.828 -54.329  1.00  0.00     0.026 A 
HETATM   10  C   UNL     1     -40.782  53.454 -53.399  1.00  0.00     0.035 A 
HETATM   11 CL   UNL     1     -39.527  52.557 -52.638  1.00  0.00    -0.084 Cl
HETATM   12  C   UNL     1     -40.962  54.802 -53.081  1.00  0.00     0.038 A 
HETATM   13  H   UNL     1     -44.400  55.178 -55.953  1.00  0.00     0.169 HD
ENDROOT
BRANCH   2  14
HETATM   14  N   UNL     1     -43.502  59.036 -53.766  1.00  0.00    -0.375 N 
HETATM   15  C   UNL     1     -44.772  59.346 -53.066  1.00  0.00     0.137 C 
HETATM   16  C   UNL     1     -44.846  60.809 -52.618  1.00  0.00     0.096 C 
HETATM   17  C   UNL     1     -44.495  61.781 -53.748  1.00  0.00     0.017 C 
HETATM   18  C   UNL     1     -43.166  61.395 -54.387  1.00  0.00     0.021 C 
HETATM   19  C   UNL     1     -43.212  59.955 -54.884  1.00  0.00     0.123 C 
BRANCH  16  20
HETATM   20  C   UNL     1     -46.225  61.116 -52.034  1.00  0.00     0.229 C 
HETATM   21  N   UNL     1     -47.005  61.933 -52.834  1.00  0.00    -0.311 N 
HETATM   22  H   UNL     1     -46.632  62.235 -53.721  1.00  0.00     0.170 HD
HETATM   23  O   UNL     1     -46.540  60.641 -50.946  1.00  0.00    -0.273 OA
BRANCH  21  24
HETATM   24  C   UNL     1     -48.311  62.359 -52.554  1.00  0.00     0.129 A 
HETATM   25  N   UNL     1     -49.363  61.868 -53.229  1.00  0.00    -0.243 NA
HETATM   26  C   UNL     1     -50.593  62.321 -52.906  1.00  0.00     0.119 A 
HETATM   27  C   UNL     1     -50.832  63.265 -51.923  1.00  0.00     0.019 A 
HETATM   28  C   UNL     1     -49.741  63.771 -51.231  1.00  0.00     0.005 A 
HETATM   29  C   UNL     1     -48.463  63.309 -51.546  1.00  0.00     0.050 A 
ENDBRANCH  21  24
ENDBRANCH  16  20
ENDBRANCH   2  14
BRANCH   1  30
HETATM   30  C   UNL     1     -41.355  57.738 -52.420  1.00  0.00    -0.023 A 
HETATM   31  C   UNL     1     -40.226  58.442 -52.856  1.00  0.00     0.012 A 
HETATM   32  C   UNL     1     -39.466  59.181 -51.948  1.00  0.00     0.001 A 
HETATM   33  C   UNL     1     -39.827  59.220 -50.602  1.00  0.00     0.000 A 
HETATM   34  C   UNL     1     -40.947  58.518 -50.158  1.00  0.00     0.001 A 
HETATM   35  C   UNL     1     -41.710  57.779 -51.064  1.00  0.00     0.012 A 
ENDBRANCH   1  30
TORSDOF 4
ENDMDL
MODEL 10
REMARK VINA RESULT:      -8.2      3.367      8.923
REMARK  4 active torsions:
REMARK  status: ('A' for Active; 'I' for Inactive)
REMARK    1  A    between atoms: C_4  and  C_5 
REMARK    2  A    between atoms: C_6  and  N_7 
REMARK    3  A    between atoms: C_9  and  C_10 
REMARK       I    between atoms: C_10  and  N_11 
REMARK    4  A    between atoms: N_11  and  C_12 
ROOT
HETATM    1  C   UNL     1     -43.766  59.633 -52.386  1.00  0.00     0.019 A 
HETATM    2  C   UNL     1     -42.718  58.839 -52.043  1.00  0.00     0.111 A 
HETATM    3  C   UNL     1     -42.035  59.055 -50.693  1.00  0.00     0.273 A 
HETATM    4  O   UNL     1     -41.038  58.423 -50.347  1.00  0.00    -0.266 OA
HETATM    5  N   UNL     1     -42.555  60.000 -49.858  1.00  0.00    -0.321 N 
HETATM    6  C   UNL     1     -43.641  60.806 -50.183  1.00  0.00     0.046 A 
HETATM    7  C   UNL     1     -44.263  60.658 -51.427  1.00  0.00     0.006 A 
HETATM    8  C   UNL     1     -44.080  61.754 -49.254  1.00  0.00     0.032 A 
HETATM    9  C   UNL     1     -45.161  62.576 -49.567  1.00  0.00     0.026 A 
HETATM   10  C   UNL     1     -45.792  62.441 -50.801  1.00  0.00     0.035 A 
HETATM   11 CL   UNL     1     -47.125  63.459 -51.189  1.00  0.00    -0.084 Cl
HETATM   12  C   UNL     1     -45.353  61.490 -51.725  1.00  0.00     0.038 A 
HETATM   13  H   UNL     1     -42.079  60.105 -48.974  1.00  0.00     0.169 HD
ENDROOT
BRANCH   2  14
HETATM   14  N   UNL     1     -42.172  57.833 -52.885  1.00  0.00    -0.375 N 
HETATM   15  C   UNL     1     -42.141  56.449 -52.353  1.00  0.00     0.137 C 
HETATM   16  C   UNL     1     -41.809  55.418 -53.436  1.00  0.00     0.096 C 
HETATM   17  C   UNL     1     -40.572  55.809 -54.250  1.00  0.00     0.017 C 
HETATM   18  C   UNL     1     -40.708  57.234 -54.772  1.00  0.00     0.021 C 
HETATM   19  C   UNL     1     -40.947  58.203 -53.621  1.00  0.00     0.123 C 
BRANCH  16  20
HETATM   20  C   UNL     1     -41.647  54.030 -52.816  1.00  0.00     0.229 C 
HETATM   21  N   UNL     1     -40.587  53.305 -53.332  1.00  0.00    -0.311 N 
HETATM   22  H   UNL     1     -40.006  53.736 -54.034  1.00  0.00     0.170 HD
HETATM   23  O   UNL     1     -42.427  53.664 -51.941  1.00  0.00    -0.273 OA
BRANCH  21  24
HETATM   24  C   UNL     1     -40.198  52.017 -52.937  1.00  0.00     0.129 A 
HETATM   25  N   UNL     1     -39.898  51.742 -51.658  1.00  0.00    -0.243 NA
HETATM   26  C   UNL     1     -39.534  50.479 -51.348  1.00  0.00     0.119 A 
HETATM   27  C   UNL     1     -39.447  49.454 -52.274  1.00  0.00     0.019 A 
HETATM   28  C   UNL     1     -39.755  49.745 -53.594  1.00  0.00     0.005 A 
HETATM   29  C   UNL     1     -40.141  51.042 -53.932  1.00  0.00     0.050 A 
ENDBRANCH  21  24
ENDBRANCH  16  20
ENDBRANCH   2  14
BRANCH   1  30
HETATM   30  C   UNL     1     -44.370  59.434 -53.729  1.00  0.00    -0.023 A 
HETATM   31  C   UNL     1     -44.290  60.438 -54.703  1.00  0.00     0.012 A 
HETATM   32  C   UNL     1     -44.820  60.223 -55.976  1.00  0.00     0.001 A 
HETATM   33  C   UNL     1     -45.432  59.008 -56.284  1.00  0.00     0.000 A 
HETATM   34  C   UNL     1     -45.520  58.006 -55.318  1.00  0.00     0.001 A 
HETATM   35  C   UNL     1     -44.991  58.217 -54.044  1.00  0.00     0.012 A 
ENDBRANCH   1  30
TORSDOF 4
ENDMDL
