MODEL 1
REMARK VINA RESULT:      -7.9      0.000      0.000
REMARK  9 active torsions:
REMARK  status: ('A' for Active; 'I' for Inactive)
REMARK    1  A    between atoms: C_2  and  C_3 
REMARK    2  A    between atoms: C_7  and  C_8 
REMARK    3  A    between atoms: C_8  and  C_9 
REMARK       I    between atoms: C_9  and  N_10 
REMARK    4  A    between atoms: N_10  and  C_11 
REMARK    5  A    between atoms: C_11  and  C_12 
REMARK    6  A    between atoms: C_12  and  N_13 
REMARK    7  A    between atoms: C_21  and  C_22 
REMARK    8  A    between atoms: C_32  and  C_33 
REMARK    9  A    between atoms: C_33  and  O_34 
ROOT
HETATM    1  C   UNL     1     -40.755  54.066 -51.933  1.00  0.00     0.051 C 
HETATM    2  N   UNL     1     -40.380  53.987 -53.277  1.00  0.00    -0.228 NA
HETATM    3  C   UNL     1     -41.071  54.697 -54.106  1.00  0.00     0.170 C 
HETATM    4  N   UNL     1     -42.107  55.761 -53.640  1.00  0.00    -0.318 N 
HETATM    5  C   UNL     1     -43.113  55.780 -54.453  1.00  0.00     0.011 C 
HETATM    6  C   UNL     1     -41.647  56.305 -52.347  1.00  0.00     0.166 C 
HETATM    7  S   UNL     1     -41.151  54.457 -55.809  1.00  0.00    -0.086 SA
HETATM    8  C   UNL     1     -42.860  55.108 -55.796  1.00  0.00     0.135 C 
HETATM    9  C   UNL     1     -41.425  55.140 -51.442  1.00  0.00     0.069 C 
ENDROOT
BRANCH   5  10
HETATM   10  C   UNL     1     -44.439  56.371 -54.069  1.00  0.00     0.156 C 
BRANCH  10  11
HETATM   11  C   UNL     1     -44.782  57.605 -54.882  1.00  0.00     0.223 C 
HETATM   12  N   UNL     1     -45.772  57.466 -55.820  1.00  0.00    -0.359 N 
HETATM   13  H   UNL     1     -46.265  56.580 -55.910  1.00  0.00     0.162 HD
HETATM   14  O   UNL     1     -44.165  58.659 -54.749  1.00  0.00    -0.273 OA
BRANCH  12  15
HETATM   15  C   UNL     1     -46.046  58.461 -56.867  1.00  0.00     0.150 C 
BRANCH  15  16
HETATM   16  C   UNL     1     -45.145  58.384 -58.123  1.00  0.00     0.254 C 
BRANCH  16  17
HETATM   17  N   UNL     1     -45.255  57.048 -58.833  1.00  0.00    -0.070 N 
HETATM   18  H   UNL     1     -45.735  56.400 -58.177  1.00  0.00     0.279 HD
HETATM   19  C   UNL     1     -46.116  57.095 -60.075  1.00  0.00     0.235 C 
HETATM   20  C   UNL     1     -46.316  55.681 -60.603  1.00  0.00     0.028 C 
HETATM   21  C   UNL     1     -44.987  54.986 -60.873  1.00  0.00     0.003 C 
HETATM   22  C   UNL     1     -44.079  55.029 -59.649  1.00  0.00     0.028 C 
HETATM   23  C   UNL     1     -43.901  56.446 -59.126  1.00  0.00     0.235 C 
ENDBRANCH  16  17
ENDBRANCH  15  16
ENDBRANCH  12  15
ENDBRANCH  10  11
ENDBRANCH   5  10
BRANCH   6  24
HETATM   24  C   UNL     1     -42.246  57.652 -51.953  1.00  0.00    -0.024 A 
HETATM   25  C   UNL     1     -41.497  58.850 -52.156  1.00  0.00    -0.053 A 
HETATM   26  C   UNL     1     -40.088  58.874 -52.703  1.00  0.00     0.049 C 
HETATM   27  C   UNL     1     -42.043  60.091 -51.785  1.00  0.00     0.008 A 
HETATM   28  C   UNL     1     -43.314  60.178 -51.229  1.00  0.00     0.007 A 
HETATM   29  C   UNL     1     -44.065  59.025 -51.023  1.00  0.00    -0.061 A 
HETATM   30  C   UNL     1     -45.443  59.129 -50.432  1.00  0.00     0.048 C 
HETATM   31  C   UNL     1     -43.537  57.781 -51.402  1.00  0.00     0.017 A 
ENDBRANCH   6  24
BRANCH   9  32
HETATM   32  C   UNL     1     -42.176  55.013 -50.201  1.00  0.00     0.293 C 
HETATM   33  O   UNL     1     -43.301  54.535 -50.214  1.00  0.00    -0.259 OA
BRANCH  32  34
HETATM   34  O   UNL     1     -41.492  55.543 -49.176  1.00  0.00    -0.323 OA
HETATM   35  C   UNL     1     -40.852  54.601 -48.305  1.00  0.00     0.213 C 
ENDBRANCH  32  34
ENDBRANCH   9  32
BRANCH   1  36
HETATM   36  C   UNL     1     -40.459  52.805 -51.139  1.00  0.00     0.056 C 
HETATM   37  C   UNL     1     -39.524  51.866 -51.890  1.00  0.00     0.011 C 
ENDBRANCH   1  36
TORSDOF 9
ENDMDL
MODEL 2
REMARK VINA RESULT:      -6.9      3.240      7.306
REMARK  9 active torsions:
REMARK  status: ('A' for Active; 'I' for Inactive)
REMARK    1  A    between atoms: C_2  and  C_3 
REMARK    2  A    between atoms: C_7  and  C_8 
REMARK    3  A    between atoms: C_8  and  C_9 
REMARK       I    between atoms: C_9  and  N_10 
REMARK    4  A    between atoms: N_10  and  C_11 
REMARK    5  A    between atoms: C_11  and  C_12 
REMARK    6  A    between atoms: C_12  and  N_13 
REMARK    7  A    between atoms: C_21  and  C_22 
REMARK    8  A    between atoms: C_32  and  C_33 
REMARK    9  A    between atoms: C_33  and  O_34 
ROOT
HETATM    1  C   UNL     1     -42.716  56.758 -56.641  1.00  0.00     0.051 C 
HETATM    2  N   UNL     1     -42.956  58.113 -56.886  1.00  0.00    -0.228 NA
HETATM    3  C   UNL     1     -43.408  58.802 -55.892  1.00  0.00     0.170 C 
HETATM    4  N   UNL     1     -43.467  58.244 -54.440  1.00  0.00    -0.318 N 
HETATM    5  C   UNL     1     -44.521  58.692 -53.839  1.00  0.00     0.011 C 
HETATM    6  C   UNL     1     -42.357  57.283 -54.279  1.00  0.00     0.166 C 
HETATM    7  S   UNL     1     -44.213  60.320 -56.005  1.00  0.00    -0.086 SA
HETATM    8  C   UNL     1     -45.171  59.898 -54.506  1.00  0.00     0.135 C 
HETATM    9  C   UNL     1     -42.480  56.292 -55.388  1.00  0.00     0.069 C 
ENDROOT
BRANCH   5  10
HETATM   10  C   UNL     1     -45.083  58.031 -52.613  1.00  0.00     0.156 C 
BRANCH  10  11
HETATM   11  C   UNL     1     -44.987  58.913 -51.382  1.00  0.00     0.223 C 
HETATM   12  N   UNL     1     -43.999  59.864 -51.384  1.00  0.00    -0.359 N 
HETATM   13  H   UNL     1     -43.406  59.978 -52.204  1.00  0.00     0.162 HD
HETATM   14  O   UNL     1     -45.718  58.747 -50.409  1.00  0.00    -0.273 OA
BRANCH  12  15
HETATM   15  C   UNL     1     -43.590  60.614 -50.189  1.00  0.00     0.150 C 
BRANCH  15  16
HETATM   16  C   UNL     1     -44.060  62.086 -50.122  1.00  0.00     0.254 C 
BRANCH  16  17
HETATM   17  N   UNL     1     -44.965  62.351 -48.933  1.00  0.00    -0.070 N 
HETATM   18  H   UNL     1     -44.739  63.306 -48.593  1.00  0.00     0.279 HD
HETATM   19  C   UNL     1     -46.435  62.374 -49.288  1.00  0.00     0.235 C 
HETATM   20  C   UNL     1     -47.238  62.830 -48.078  1.00  0.00     0.028 C 
HETATM   21  C   UNL     1     -46.973  61.952 -46.861  1.00  0.00     0.003 C 
HETATM   22  C   UNL     1     -45.481  61.848 -46.566  1.00  0.00     0.028 C 
HETATM   23  C   UNL     1     -44.691  61.405 -47.787  1.00  0.00     0.235 C 
ENDBRANCH  16  17
ENDBRANCH  15  16
ENDBRANCH  12  15
ENDBRANCH  10  11
ENDBRANCH   5  10
BRANCH   6  24
HETATM   24  C   UNL     1     -41.958  56.980 -52.838  1.00  0.00    -0.024 A 
HETATM   25  C   UNL     1     -41.036  57.835 -52.161  1.00  0.00    -0.053 A 
HETATM   26  C   UNL     1     -40.368  59.026 -52.810  1.00  0.00     0.049 C 
HETATM   27  C   UNL     1     -40.658  57.552 -50.837  1.00  0.00     0.008 A 
HETATM   28  C   UNL     1     -41.177  56.455 -50.162  1.00  0.00     0.007 A 
HETATM   29  C   UNL     1     -42.079  55.607 -50.799  1.00  0.00    -0.061 A 
HETATM   30  C   UNL     1     -42.645  54.428 -50.058  1.00  0.00     0.048 C 
HETATM   31  C   UNL     1     -42.475  55.886 -52.116  1.00  0.00     0.017 A 
ENDBRANCH   6  24
BRANCH   9  32
HETATM   32  C   UNL     1     -42.672  54.878 -55.098  1.00  0.00     0.293 C 
HETATM   33  O   UNL     1     -43.782  54.463 -54.794  1.00  0.00    -0.259 OA
BRANCH  32  34
HETATM   34  O   UNL     1     -41.505  54.220 -55.146  1.00  0.00    -0.323 OA
HETATM   35  C   UNL     1     -41.398  53.082 -54.280  1.00  0.00     0.213 C 
ENDBRANCH  32  34
ENDBRANCH   9  32
BRANCH   1  36
HETATM   36  C   UNL     1     -42.872  55.876 -57.868  1.00  0.00     0.056 C 
HETATM   37  C   UNL     1     -44.017  56.337 -58.759  1.00  0.00     0.011 C 
ENDBRANCH   1  36
TORSDOF 9
ENDMDL
MODEL 3
REMARK VINA RESULT:      -6.9      3.639      6.277
REMARK  9 active torsions:
REMARK  status: ('A' for Active; 'I' for Inactive)
REMARK    1  A    between atoms: C_2  and  C_3 
REMARK    2  A    between atoms: C_7  and  C_8 
REMARK    3  A    between atoms: C_8  and  C_9 
REMARK       I    between atoms: C_9  and  N_10 
REMARK    4  A    between atoms: N_10  and  C_11 
REMARK    5  A    between atoms: C_11  and  C_12 
REMARK    6  A    between atoms: C_12  and  N_13 
REMARK    7  A    between atoms: C_21  and  C_22 
REMARK    8  A    between atoms: C_32  and  C_33 
REMARK    9  A    between atoms: C_33  and  O_34 
ROOT
HETATM    1  C   UNL     1     -41.202  59.311 -53.306  1.00  0.00     0.051 C 
HETATM    2  N   UNL     1     -41.785  59.542 -54.555  1.00  0.00    -0.228 NA
HETATM    3  C   UNL     1     -43.014  59.939 -54.548  1.00  0.00     0.170 C 
HETATM    4  N   UNL     1     -43.750  60.369 -53.245  1.00  0.00    -0.318 N 
HETATM    5  C   UNL     1     -44.992  60.010 -53.303  1.00  0.00     0.011 C 
HETATM    6  C   UNL     1     -42.745  60.935 -52.323  1.00  0.00     0.166 C 
HETATM    7  S   UNL     1     -44.104  59.855 -55.878  1.00  0.00    -0.086 SA
HETATM    8  C   UNL     1     -45.489  59.659 -54.699  1.00  0.00     0.135 C 
HETATM    9  C   UNL     1     -41.666  59.914 -52.181  1.00  0.00     0.069 C 
ENDROOT
BRANCH   5  10
HETATM   10  C   UNL     1     -45.848  59.898 -52.075  1.00  0.00     0.156 C 
BRANCH  10  11
HETATM   11  C   UNL     1     -45.468  58.713 -51.208  1.00  0.00     0.223 C 
HETATM   12  N   UNL     1     -44.604  57.802 -51.758  1.00  0.00    -0.359 N 
HETATM   13  H   UNL     1     -44.218  57.965 -52.686  1.00  0.00     0.162 HD
HETATM   14  O   UNL     1     -45.954  58.546 -50.092  1.00  0.00    -0.273 OA
BRANCH  12  15
HETATM   15  C   UNL     1     -44.342  56.477 -51.180  1.00  0.00     0.150 C 
BRANCH  15  16
HETATM   16  C   UNL     1     -43.484  55.522 -52.043  1.00  0.00     0.254 C 
BRANCH  16  17
HETATM   17  N   UNL     1     -42.201  55.107 -51.346  1.00  0.00    -0.070 N 
HETATM   18  H   UNL     1     -41.526  55.886 -51.477  1.00  0.00     0.279 HD
HETATM   19  C   UNL     1     -42.356  54.938 -49.851  1.00  0.00     0.235 C 
HETATM   20  C   UNL     1     -40.986  54.710 -49.226  1.00  0.00     0.028 C 
HETATM   21  C   UNL     1     -40.272  53.517 -49.850  1.00  0.00     0.003 C 
HETATM   22  C   UNL     1     -40.208  53.641 -51.368  1.00  0.00     0.028 C 
HETATM   23  C   UNL     1     -41.580  53.882 -51.976  1.00  0.00     0.235 C 
ENDBRANCH  16  17
ENDBRANCH  15  16
ENDBRANCH  12  15
ENDBRANCH  10  11
ENDBRANCH   5  10
BRANCH   6  24
HETATM   24  C   UNL     1     -43.301  61.820 -51.212  1.00  0.00    -0.024 A 
HETATM   25  C   UNL     1     -43.408  63.229 -51.412  1.00  0.00    -0.053 A 
HETATM   26  C   UNL     1     -42.945  63.934 -52.667  1.00  0.00     0.049 C 
HETATM   27  C   UNL     1     -43.910  64.048 -50.386  1.00  0.00     0.008 A 
HETATM   28  C   UNL     1     -44.321  63.508 -49.174  1.00  0.00     0.007 A 
HETATM   29  C   UNL     1     -44.229  62.137 -48.954  1.00  0.00    -0.061 A 
HETATM   30  C   UNL     1     -44.686  61.559 -47.644  1.00  0.00     0.048 C 
HETATM   31  C   UNL     1     -43.742  61.307 -49.976  1.00  0.00     0.017 A 
ENDBRANCH   6  24
BRANCH   9  32
HETATM   32  C   UNL     1     -41.355  59.342 -50.879  1.00  0.00     0.293 C 
HETATM   33  O   UNL     1     -41.898  58.306 -50.522  1.00  0.00    -0.259 OA
BRANCH  32  34
HETATM   34  O   UNL     1     -40.515  60.136 -50.200  1.00  0.00    -0.323 OA
HETATM   35  C   UNL     1     -39.131  59.765 -50.254  1.00  0.00     0.213 C 
ENDBRANCH  32  34
ENDBRANCH   9  32
BRANCH   1  36
HETATM   36  C   UNL     1     -40.115  58.250 -53.324  1.00  0.00     0.056 C 
HETATM   37  C   UNL     1     -40.610  56.937 -53.915  1.00  0.00     0.011 C 
ENDBRANCH   1  36
TORSDOF 9
ENDMDL
MODEL 4
REMARK VINA RESULT:      -6.9      2.377      4.922
REMARK  9 active torsions:
REMARK  status: ('A' for Active; 'I' for Inactive)
REMARK    1  A    between atoms: C_2  and  C_3 
REMARK    2  A    between atoms: C_7  and  C_8 
REMARK    3  A    between atoms: C_8  and  C_9 
REMARK       I    between atoms: C_9  and  N_10 
REMARK    4  A    between atoms: N_10  and  C_11 
REMARK    5  A    between atoms: C_11  and  C_12 
REMARK    6  A    between atoms: C_12  and  N_13 
REMARK    7  A    between atoms: C_21  and  C_22 
REMARK    8  A    between atoms: C_32  and  C_33 
REMARK    9  A    between atoms: C_33  and  O_34 
ROOT
HETATM    1  C   UNL     1     -42.208  59.688 -51.001  1.00  0.00     0.051 C 
HETATM    2  N   UNL     1     -43.605  59.678 -51.042  1.00  0.00    -0.228 NA
HETATM    3  C   UNL     1     -44.146  58.866 -51.888  1.00  0.00     0.170 C 
HETATM    4  N   UNL     1     -43.329  57.787 -52.658  1.00  0.00    -0.318 N 
HETATM    5  C   UNL     1     -43.804  57.646 -53.853  1.00  0.00     0.011 C 
HETATM    6  C   UNL     1     -42.201  57.376 -51.799  1.00  0.00     0.166 C 
HETATM    7  S   UNL     1     -45.759  58.962 -52.481  1.00  0.00    -0.086 SA
HETATM    8  C   UNL     1     -45.200  58.220 -54.056  1.00  0.00     0.135 C 
HETATM    9  C   UNL     1     -41.475  58.621 -51.413  1.00  0.00     0.069 C 
ENDROOT
BRANCH   5  10
HETATM   10  C   UNL     1     -43.008  57.014 -54.959  1.00  0.00     0.156 C 
BRANCH  10  11
HETATM   11  C   UNL     1     -42.594  58.016 -56.021  1.00  0.00     0.223 C 
HETATM   12  N   UNL     1     -42.787  57.640 -57.326  1.00  0.00    -0.359 N 
HETATM   13  H   UNL     1     -43.230  56.748 -57.537  1.00  0.00     0.162 HD
HETATM   14  O   UNL     1     -42.060  59.083 -55.731  1.00  0.00    -0.273 OA
BRANCH  12  15
HETATM   15  C   UNL     1     -42.207  58.354 -58.472  1.00  0.00     0.150 C 
BRANCH  15  16
HETATM   16  C   UNL     1     -43.053  58.353 -59.767  1.00  0.00     0.254 C 
BRANCH  16  17
HETATM   17  N   UNL     1     -44.292  57.483 -59.647  1.00  0.00    -0.070 N 
HETATM   18  H   UNL     1     -44.286  57.088 -58.686  1.00  0.00     0.279 HD
HETATM   19  C   UNL     1     -45.585  58.257 -59.771  1.00  0.00     0.235 C 
HETATM   20  C   UNL     1     -46.755  57.337 -59.451  1.00  0.00     0.028 C 
HETATM   21  C   UNL     1     -46.759  56.099 -60.340  1.00  0.00     0.003 C 
HETATM   22  C   UNL     1     -45.418  55.376 -60.291  1.00  0.00     0.028 C 
HETATM   23  C   UNL     1     -44.259  56.311 -60.600  1.00  0.00     0.235 C 
ENDBRANCH  16  17
ENDBRANCH  15  16
ENDBRANCH  12  15
ENDBRANCH  10  11
ENDBRANCH   5  10
BRANCH   6  24
HETATM   24  C   UNL     1     -41.565  56.034 -52.151  1.00  0.00    -0.024 A 
HETATM   25  C   UNL     1     -41.416  55.032 -51.145  1.00  0.00    -0.053 A 
HETATM   26  C   UNL     1     -41.809  55.234 -49.699  1.00  0.00     0.049 C 
HETATM   27  C   UNL     1     -40.821  53.799 -51.464  1.00  0.00     0.008 A 
HETATM   28  C   UNL     1     -40.382  53.528 -52.754  1.00  0.00     0.007 A 
HETATM   29  C   UNL     1     -40.518  54.487 -53.753  1.00  0.00    -0.061 A 
HETATM   30  C   UNL     1     -40.051  54.181 -55.149  1.00  0.00     0.048 C 
HETATM   31  C   UNL     1     -41.122  55.717 -53.451  1.00  0.00     0.017 A 
ENDBRANCH   6  24
BRANCH   9  32
HETATM   32  C   UNL     1     -40.077  58.806 -51.776  1.00  0.00     0.293 C 
HETATM   33  O   UNL     1     -39.779  59.113 -52.921  1.00  0.00    -0.259 OA
BRANCH  32  34
HETATM   34  O   UNL     1     -39.276  58.522 -50.739  1.00  0.00    -0.323 OA
HETATM   35  C   UNL     1     -38.276  59.505 -50.440  1.00  0.00     0.213 C 
ENDBRANCH  32  34
ENDBRANCH   9  32
BRANCH   1  36
HETATM   36  C   UNL     1     -41.616  61.024 -50.584  1.00  0.00     0.056 C 
HETATM   37  C   UNL     1     -42.673  62.118 -50.516  1.00  0.00     0.011 C 
ENDBRANCH   1  36
TORSDOF 9
ENDMDL
MODEL 5
REMARK VINA RESULT:      -6.8      3.055      7.670
REMARK  9 active torsions:
REMARK  status: ('A' for Active; 'I' for Inactive)
REMARK    1  A    between atoms: C_2  and  C_3 
REMARK    2  A    between atoms: C_7  and  C_8 
REMARK    3  A    between atoms: C_8  and  C_9 
REMARK       I    between atoms: C_9  and  N_10 
REMARK    4  A    between atoms: N_10  and  C_11 
REMARK    5  A    between atoms: C_11  and  C_12 
REMARK    6  A    between atoms: C_12  and  N_13 
REMARK    7  A    between atoms: C_21  and  C_22 
REMARK    8  A    between atoms: C_32  and  C_33 
REMARK    9  A    between atoms: C_33  and  O_34 
ROOT
HETATM    1  C   UNL     1     -43.389  62.268 -54.416  1.00  0.00     0.051 C 
HETATM    2  N   UNL     1     -43.278  62.544 -53.051  1.00  0.00    -0.228 NA
HETATM    3  C   UNL     1     -43.394  61.535 -52.252  1.00  0.00     0.170 C 
HETATM    4  N   UNL     1     -43.421  60.063 -52.757  1.00  0.00    -0.318 N 
HETATM    5  C   UNL     1     -44.228  59.363 -52.027  1.00  0.00     0.011 C 
HETATM    6  C   UNL     1     -42.606  59.991 -53.986  1.00  0.00     0.166 C 
HETATM    7  S   UNL     1     -43.760  61.622 -50.572  1.00  0.00    -0.086 SA
HETATM    8  C   UNL     1     -44.601  60.002 -50.695  1.00  0.00     0.135 C 
HETATM    9  C   UNL     1     -43.134  61.031 -54.916  1.00  0.00     0.069 C 
ENDROOT
BRANCH   5  10
HETATM   10  C   UNL     1     -44.790  58.050 -52.492  1.00  0.00     0.156 C 
BRANCH  10  11
HETATM   11  C   UNL     1     -44.324  56.884 -51.641  1.00  0.00     0.223 C 
HETATM   12  N   UNL     1     -43.425  56.024 -52.217  1.00  0.00    -0.359 N 
HETATM   13  H   UNL     1     -43.071  56.212 -53.153  1.00  0.00     0.162 HD
HETATM   14  O   UNL     1     -44.774  56.686 -50.515  1.00  0.00    -0.273 OA
BRANCH  12  15
HETATM   15  C   UNL     1     -43.077  54.713 -51.652  1.00  0.00     0.150 C 
BRANCH  15  16
HETATM   16  C   UNL     1     -41.636  54.575 -51.106  1.00  0.00     0.254 C 
BRANCH  16  17
HETATM   17  N   UNL     1     -40.783  53.648 -51.953  1.00  0.00    -0.070 N 
HETATM   18  H   UNL     1     -39.955  54.197 -52.256  1.00  0.00     0.279 HD
HETATM   19  C   UNL     1     -40.238  52.463 -51.186  1.00  0.00     0.235 C 
HETATM   20  C   UNL     1     -39.253  51.705 -52.064  1.00  0.00     0.028 C 
HETATM   21  C   UNL     1     -39.887  51.272 -53.380  1.00  0.00     0.003 C 
HETATM   22  C   UNL     1     -40.526  52.452 -54.104  1.00  0.00     0.028 C 
HETATM   23  C   UNL     1     -41.497  53.207 -53.209  1.00  0.00     0.235 C 
ENDBRANCH  16  17
ENDBRANCH  15  16
ENDBRANCH  12  15
ENDBRANCH  10  11
ENDBRANCH   5  10
BRANCH   6  24
HETATM   24  C   UNL     1     -42.127  58.595 -54.372  1.00  0.00    -0.024 A 
HETATM   25  C   UNL     1     -41.002  58.020 -53.706  1.00  0.00    -0.053 A 
HETATM   26  C   UNL     1     -40.196  58.741 -52.650  1.00  0.00     0.049 C 
HETATM   27  C   UNL     1     -40.552  56.738 -54.068  1.00  0.00     0.008 A 
HETATM   28  C   UNL     1     -41.192  56.006 -55.060  1.00  0.00     0.007 A 
HETATM   29  C   UNL     1     -42.292  56.543 -55.723  1.00  0.00    -0.061 A 
HETATM   30  C   UNL     1     -42.987  55.741 -56.787  1.00  0.00     0.048 C 
HETATM   31  C   UNL     1     -42.760  57.817 -55.362  1.00  0.00     0.017 A 
ENDBRANCH   6  24
BRANCH   9  32
HETATM   32  C   UNL     1     -43.669  60.657 -56.218  1.00  0.00     0.293 C 
HETATM   33  O   UNL     1     -42.954  60.705 -57.208  1.00  0.00    -0.259 OA
BRANCH  32  34
HETATM   34  O   UNL     1     -44.975  60.365 -56.129  1.00  0.00    -0.323 OA
HETATM   35  C   UNL     1     -45.466  59.422 -57.090  1.00  0.00     0.213 C 
ENDBRANCH  32  34
ENDBRANCH   9  32
BRANCH   1  36
HETATM   36  C   UNL     1     -43.934  63.426 -55.233  1.00  0.00     0.056 C 
HETATM   37  C   UNL     1     -42.892  64.516 -55.442  1.00  0.00     0.011 C 
ENDBRANCH   1  36
TORSDOF 9
ENDMDL
MODEL 6
REMARK VINA RESULT:      -6.7      1.477      2.399
REMARK  9 active torsions:
REMARK  status: ('A' for Active; 'I' for Inactive)
REMARK    1  A    between atoms: C_2  and  C_3 
REMARK    2  A    between atoms: C_7  and  C_8 
REMARK    3  A    between atoms: C_8  and  C_9 
REMARK       I    between atoms: C_9  and  N_10 
REMARK    4  A    between atoms: N_10  and  C_11 
REMARK    5  A    between atoms: C_11  and  C_12 
REMARK    6  A    between atoms: C_12  and  N_13 
REMARK    7  A    between atoms: C_21  and  C_22 
REMARK    8  A    between atoms: C_32  and  C_33 
REMARK    9  A    between atoms: C_33  and  O_34 
ROOT
HETATM    1  C   UNL     1     -40.947  54.272 -51.871  1.00  0.00     0.051 C 
HETATM    2  N   UNL     1     -40.531  54.268 -53.205  1.00  0.00    -0.228 NA
HETATM    3  C   UNL     1     -41.185  55.038 -54.010  1.00  0.00     0.170 C 
HETATM    4  N   UNL     1     -42.220  56.089 -53.512  1.00  0.00    -0.318 N 
HETATM    5  C   UNL     1     -43.200  56.173 -54.352  1.00  0.00     0.011 C 
HETATM    6  C   UNL     1     -41.792  56.547 -52.175  1.00  0.00     0.166 C 
HETATM    7  S   UNL     1     -41.216  54.902 -55.726  1.00  0.00    -0.086 SA
HETATM    8  C   UNL     1     -42.915  55.579 -55.726  1.00  0.00     0.135 C 
HETATM    9  C   UNL     1     -41.616  55.326 -51.336  1.00  0.00     0.069 C 
ENDROOT
BRANCH   5  10
HETATM   10  C   UNL     1     -44.528  56.762 -53.973  1.00  0.00     0.156 C 
BRANCH  10  11
HETATM   11  C   UNL     1     -44.962  57.870 -54.915  1.00  0.00     0.223 C 
HETATM   12  N   UNL     1     -45.960  57.564 -55.804  1.00  0.00    -0.359 N 
HETATM   13  H   UNL     1     -46.400  56.646 -55.777  1.00  0.00     0.162 HD
HETATM   14  O   UNL     1     -44.408  58.967 -54.921  1.00  0.00    -0.273 OA
BRANCH  12  15
HETATM   15  C   UNL     1     -46.315  58.411 -56.951  1.00  0.00     0.150 C 
BRANCH  15  16
HETATM   16  C   UNL     1     -45.394  58.291 -58.189  1.00  0.00     0.254 C 
BRANCH  16  17
HETATM   17  N   UNL     1     -44.216  59.246 -58.128  1.00  0.00    -0.070 N 
HETATM   18  H   UNL     1     -44.307  59.776 -57.239  1.00  0.00     0.279 HD
HETATM   19  C   UNL     1     -42.877  58.546 -58.059  1.00  0.00     0.235 C 
HETATM   20  C   UNL     1     -41.783  59.576 -57.811  1.00  0.00     0.028 C 
HETATM   21  C   UNL     1     -41.786  60.668 -58.874  1.00  0.00     0.003 C 
HETATM   22  C   UNL     1     -43.165  61.304 -59.013  1.00  0.00     0.028 C 
HETATM   23  C   UNL     1     -44.248  60.262 -59.246  1.00  0.00     0.235 C 
ENDBRANCH  16  17
ENDBRANCH  15  16
ENDBRANCH  12  15
ENDBRANCH  10  11
ENDBRANCH   5  10
BRANCH   6  24
HETATM   24  C   UNL     1     -42.384  57.877 -51.719  1.00  0.00    -0.024 A 
HETATM   25  C   UNL     1     -41.537  59.016 -51.565  1.00  0.00    -0.053 A 
HETATM   26  C   UNL     1     -40.041  58.981 -51.778  1.00  0.00     0.049 C 
HETATM   27  C   UNL     1     -42.078  60.240 -51.134  1.00  0.00     0.008 A 
HETATM   28  C   UNL     1     -43.434  60.370 -50.865  1.00  0.00     0.007 A 
HETATM   29  C   UNL     1     -44.282  59.275 -51.009  1.00  0.00    -0.061 A 
HETATM   30  C   UNL     1     -45.750  59.426 -50.727  1.00  0.00     0.048 C 
HETATM   31  C   UNL     1     -43.757  58.050 -51.451  1.00  0.00     0.017 A 
ENDBRANCH   6  24
BRANCH   9  32
HETATM   32  C   UNL     1     -42.406  55.137 -50.128  1.00  0.00     0.293 C 
HETATM   33  O   UNL     1     -41.848  54.979 -49.052  1.00  0.00    -0.259 OA
BRANCH  32  34
HETATM   34  O   UNL     1     -43.715  55.095 -50.418  1.00  0.00    -0.323 OA
HETATM   35  C   UNL     1     -44.235  53.801 -50.750  1.00  0.00     0.213 C 
ENDBRANCH  32  34
ENDBRANCH   9  32
BRANCH   1  36
HETATM   36  C   UNL     1     -40.694  52.961 -51.146  1.00  0.00     0.056 C 
HETATM   37  C   UNL     1     -39.742  52.058 -51.919  1.00  0.00     0.011 C 
ENDBRANCH   1  36
TORSDOF 9
ENDMDL
MODEL 7
REMARK VINA RESULT:      -6.7      2.838      7.759
REMARK  9 active torsions:
REMARK  status: ('A' for Active; 'I' for Inactive)
REMARK    1  A    between atoms: C_2  and  C_3 
REMARK    2  A    between atoms: C_7  and  C_8 
REMARK    3  A    between atoms: C_8  and  C_9 
REMARK       I    between atoms: C_9  and  N_10 
REMARK    4  A    between atoms: N_10  and  C_11 
REMARK    5  A    between atoms: C_11  and  C_12 
REMARK    6  A    between atoms: C_12  and  N_13 
REMARK    7  A    between atoms: C_21  and  C_22 
REMARK    8  A    between atoms: C_32  and  C_33 
REMARK    9  A    between atoms: C_33  and  O_34 
ROOT
HETATM    1  C   UNL     1     -43.439  60.168 -59.726  1.00  0.00     0.051 C 
HETATM    2  N   UNL     1     -44.115  59.118 -60.354  1.00  0.00    -0.228 NA
HETATM    3  C   UNL     1     -44.124  57.989 -59.728  1.00  0.00     0.170 C 
HETATM    4  N   UNL     1     -43.628  57.838 -58.260  1.00  0.00    -0.318 N 
HETATM    5  C   UNL     1     -43.045  56.693 -58.108  1.00  0.00     0.011 C 
HETATM    6  C   UNL     1     -43.882  59.115 -57.564  1.00  0.00     0.166 C 
HETATM    7  S   UNL     1     -44.452  56.453 -60.432  1.00  0.00    -0.086 SA
HETATM    8  C   UNL     1     -43.339  55.678 -59.206  1.00  0.00     0.135 C 
HETATM    9  C   UNL     1     -43.245  60.188 -58.383  1.00  0.00     0.069 C 
ENDROOT
BRANCH   5  10
HETATM   10  C   UNL     1     -42.110  56.418 -56.966  1.00  0.00     0.156 C 
BRANCH  10  11
HETATM   11  C   UNL     1     -42.720  55.498 -55.925  1.00  0.00     0.223 C 
HETATM   12  N   UNL     1     -42.606  55.890 -54.616  1.00  0.00    -0.359 N 
HETATM   13  H   UNL     1     -42.171  56.783 -54.390  1.00  0.00     0.162 HD
HETATM   14  O   UNL     1     -43.236  54.427 -56.233  1.00  0.00    -0.273 OA
BRANCH  12  15
HETATM   15  C   UNL     1     -42.891  55.010 -53.475  1.00  0.00     0.150 C 
BRANCH  15  16
HETATM   16  C   UNL     1     -41.697  54.713 -52.537  1.00  0.00     0.254 C 
BRANCH  16  17
HETATM   17  N   UNL     1     -41.157  53.306 -52.715  1.00  0.00    -0.070 N 
HETATM   18  H   UNL     1     -41.938  52.657 -52.496  1.00  0.00     0.279 HD
HETATM   19  C   UNL     1     -40.743  52.996 -54.136  1.00  0.00     0.235 C 
HETATM   20  C   UNL     1     -40.398  51.517 -54.248  1.00  0.00     0.028 C 
HETATM   21  C   UNL     1     -39.317  51.113 -53.253  1.00  0.00     0.003 C 
HETATM   22  C   UNL     1     -39.691  51.519 -51.832  1.00  0.00     0.028 C 
HETATM   23  C   UNL     1     -40.047  52.995 -51.739  1.00  0.00     0.235 C 
ENDBRANCH  16  17
ENDBRANCH  15  16
ENDBRANCH  12  15
ENDBRANCH  10  11
ENDBRANCH   5  10
BRANCH   6  24
HETATM   24  C   UNL     1     -43.903  59.037 -56.040  1.00  0.00    -0.024 A 
HETATM   25  C   UNL     1     -45.042  58.495 -55.372  1.00  0.00    -0.053 A 
HETATM   26  C   UNL     1     -46.289  58.028 -56.089  1.00  0.00     0.049 C 
HETATM   27  C   UNL     1     -45.069  58.431 -53.968  1.00  0.00     0.008 A 
HETATM   28  C   UNL     1     -43.994  58.877 -53.209  1.00  0.00     0.007 A 
HETATM   29  C   UNL     1     -42.870  59.407 -53.836  1.00  0.00    -0.061 A 
HETATM   30  C   UNL     1     -41.706  59.877 -53.009  1.00  0.00     0.048 C 
HETATM   31  C   UNL     1     -42.825  59.464 -55.238  1.00  0.00     0.017 A 
ENDBRANCH   6  24
BRANCH   9  32
HETATM   32  C   UNL     1     -42.192  61.022 -57.821  1.00  0.00     0.293 C 
HETATM   33  O   UNL     1     -41.039  60.616 -57.797  1.00  0.00    -0.259 OA
BRANCH  32  34
HETATM   34  O   UNL     1     -42.702  62.156 -57.319  1.00  0.00    -0.323 OA
HETATM   35  C   UNL     1     -42.124  63.370 -57.818  1.00  0.00     0.213 C 
ENDBRANCH  32  34
ENDBRANCH   9  32
BRANCH   1  36
HETATM   36  C   UNL     1     -42.853  61.184 -60.692  1.00  0.00     0.056 C 
HETATM   37  C   UNL     1     -41.778  60.572 -61.580  1.00  0.00     0.011 C 
ENDBRANCH   1  36
TORSDOF 9
ENDMDL
MODEL 8
REMARK VINA RESULT:      -6.6      1.746      3.198
REMARK  9 active torsions:
REMARK  status: ('A' for Active; 'I' for Inactive)
REMARK    1  A    between atoms: C_2  and  C_3 
REMARK    2  A    between atoms: C_7  and  C_8 
REMARK    3  A    between atoms: C_8  and  C_9 
REMARK       I    between atoms: C_9  and  N_10 
REMARK    4  A    between atoms: N_10  and  C_11 
REMARK    5  A    between atoms: C_11  and  C_12 
REMARK    6  A    between atoms: C_12  and  N_13 
REMARK    7  A    between atoms: C_21  and  C_22 
REMARK    8  A    between atoms: C_32  and  C_33 
REMARK    9  A    between atoms: C_33  and  O_34 
ROOT
HETATM    1  C   UNL     1     -40.634  53.822 -51.667  1.00  0.00     0.051 C 
HETATM    2  N   UNL     1     -40.090  53.689 -52.948  1.00  0.00    -0.228 NA
HETATM    3  C   UNL     1     -40.650  54.383 -53.881  1.00  0.00     0.170 C 
HETATM    4  N   UNL     1     -41.711  55.484 -53.589  1.00  0.00    -0.318 N 
HETATM    5  C   UNL     1     -42.603  55.495 -54.526  1.00  0.00     0.011 C 
HETATM    6  C   UNL     1     -41.408  56.064 -52.265  1.00  0.00     0.166 C 
HETATM    7  S   UNL     1     -40.516  54.085 -55.572  1.00  0.00    -0.086 SA
HETATM    8  C   UNL     1     -42.195  54.771 -55.803  1.00  0.00     0.135 C 
HETATM    9  C   UNL     1     -41.335  54.926 -51.302  1.00  0.00     0.069 C 
ENDROOT
BRANCH   5  10
HETATM   10  C   UNL     1     -43.952  56.127 -54.336  1.00  0.00     0.156 C 
BRANCH  10  11
HETATM   11  C   UNL     1     -44.132  57.375 -55.180  1.00  0.00     0.223 C 
HETATM   12  N   UNL     1     -45.138  57.346 -56.112  1.00  0.00    -0.359 N 
HETATM   13  H   UNL     1     -45.746  56.532 -56.177  1.00  0.00     0.162 HD
HETATM   14  O   UNL     1     -43.379  58.340 -55.076  1.00  0.00    -0.273 OA
BRANCH  12  15
HETATM   15  C   UNL     1     -45.283  58.342 -57.183  1.00  0.00     0.150 C 
BRANCH  15  16
HETATM   16  C   UNL     1     -45.976  59.666 -56.784  1.00  0.00     0.254 C 
BRANCH  16  17
HETATM   17  N   UNL     1     -44.999  60.686 -56.229  1.00  0.00    -0.070 N 
HETATM   18  H   UNL     1     -44.102  60.185 -56.074  1.00  0.00     0.279 HD
HETATM   19  C   UNL     1     -44.687  61.808 -57.194  1.00  0.00     0.235 C 
HETATM   20  C   UNL     1     -43.565  62.665 -56.624  1.00  0.00     0.028 C 
HETATM   21  C   UNL     1     -43.912  63.201 -55.240  1.00  0.00     0.003 C 
HETATM   22  C   UNL     1     -44.325  62.077 -54.297  1.00  0.00     0.028 C 
HETATM   23  C   UNL     1     -45.436  61.222 -54.886  1.00  0.00     0.235 C 
ENDBRANCH  16  17
ENDBRANCH  15  16
ENDBRANCH  12  15
ENDBRANCH  10  11
ENDBRANCH   5  10
BRANCH   6  24
HETATM   24  C   UNL     1     -42.020  57.435 -51.996  1.00  0.00    -0.024 A 
HETATM   25  C   UNL     1     -41.274  58.616 -52.291  1.00  0.00    -0.053 A 
HETATM   26  C   UNL     1     -39.858  58.601 -52.820  1.00  0.00     0.049 C 
HETATM   27  C   UNL     1     -41.831  59.881 -52.034  1.00  0.00     0.008 A 
HETATM   28  C   UNL     1     -43.109  60.008 -51.505  1.00  0.00     0.007 A 
HETATM   29  C   UNL     1     -43.858  58.872 -51.210  1.00  0.00    -0.061 A 
HETATM   30  C   UNL     1     -45.244  59.017 -50.648  1.00  0.00     0.048 C 
HETATM   31  C   UNL     1     -43.318  57.603 -51.474  1.00  0.00     0.017 A 
ENDBRANCH   6  24
BRANCH   9  32
HETATM   32  C   UNL     1     -42.243  54.859 -50.165  1.00  0.00     0.293 C 
HETATM   33  O   UNL     1     -43.357  54.376 -50.303  1.00  0.00    -0.259 OA
BRANCH  32  34
HETATM   34  O   UNL     1     -41.699  55.442 -49.087  1.00  0.00    -0.323 OA
HETATM   35  C   UNL     1     -40.853  54.603 -48.289  1.00  0.00     0.213 C 
ENDBRANCH  32  34
ENDBRANCH   9  32
BRANCH   1  36
HETATM   36  C   UNL     1     -40.475  52.583 -50.801  1.00  0.00     0.056 C 
HETATM   37  C   UNL     1     -39.624  51.520 -51.481  1.00  0.00     0.011 C 
ENDBRANCH   1  36
TORSDOF 9
ENDMDL
MODEL 9
REMARK VINA RESULT:      -6.6      2.918      8.751
REMARK  9 active torsions:
REMARK  status: ('A' for Active; 'I' for Inactive)
REMARK    1  A    between atoms: C_2  and  C_3 
REMARK    2  A    between atoms: C_7  and  C_8 
REMARK    3  A    between atoms: C_8  and  C_9 
REMARK       I    between atoms: C_9  and  N_10 
REMARK    4  A    between atoms: N_10  and  C_11 
REMARK    5  A    between atoms: C_11  and  C_12 
REMARK    6  A    between atoms: C_12  and  N_13 
REMARK    7  A    between atoms: C_21  and  C_22 
REMARK    8  A    between atoms: C_32  and  C_33 
REMARK    9  A    between atoms: C_33  and  O_34 
ROOT
HETATM    1  C   UNL     1     -46.315  61.127 -57.316  1.00  0.00     0.051 C 
HETATM    2  N   UNL     1     -45.535  61.726 -56.323  1.00  0.00    -0.228 NA
HETATM    3  C   UNL     1     -44.672  60.964 -55.737  1.00  0.00     0.170 C 
HETATM    4  N   UNL     1     -44.336  59.532 -56.244  1.00  0.00    -0.318 N 
HETATM    5  C   UNL     1     -44.104  58.752 -55.237  1.00  0.00     0.011 C 
HETATM    6  C   UNL     1     -44.518  59.515 -57.709  1.00  0.00     0.166 C 
HETATM    7  S   UNL     1     -43.927  61.275 -54.216  1.00  0.00    -0.086 SA
HETATM    8  C   UNL     1     -43.825  59.473 -53.924  1.00  0.00     0.135 C 
HETATM    9  C   UNL     1     -45.897  60.018 -57.977  1.00  0.00     0.069 C 
ENDROOT
BRANCH   5  10
HETATM   10  C   UNL     1     -44.166  57.256 -55.355  1.00  0.00     0.156 C 
BRANCH  10  11
HETATM   11  C   UNL     1     -42.844  56.592 -55.018  1.00  0.00     0.223 C 
HETATM   12  N   UNL     1     -42.728  56.061 -53.759  1.00  0.00    -0.359 N 
HETATM   13  H   UNL     1     -43.522  56.084 -53.123  1.00  0.00     0.162 HD
HETATM   14  O   UNL     1     -41.905  56.584 -55.810  1.00  0.00    -0.273 OA
BRANCH  12  15
HETATM   15  C   UNL     1     -41.451  55.628 -53.174  1.00  0.00     0.150 C 
BRANCH  15  16
HETATM   16  C   UNL     1     -41.550  54.579 -52.041  1.00  0.00     0.254 C 
BRANCH  16  17
HETATM   17  N   UNL     1     -41.051  53.212 -52.474  1.00  0.00    -0.070 N 
HETATM   18  H   UNL     1     -41.809  52.536 -52.257  1.00  0.00     0.279 HD
HETATM   19  C   UNL     1     -40.810  53.102 -53.962  1.00  0.00     0.235 C 
HETATM   20  C   UNL     1     -40.498  51.655 -54.317  1.00  0.00     0.028 C 
HETATM   21  C   UNL     1     -39.313  51.122 -53.520  1.00  0.00     0.003 C 
HETATM   22  C   UNL     1     -39.515  51.326 -52.022  1.00  0.00     0.028 C 
HETATM   23  C   UNL     1     -39.839  52.773 -51.687  1.00  0.00     0.235 C 
ENDBRANCH  16  17
ENDBRANCH  15  16
ENDBRANCH  12  15
ENDBRANCH  10  11
ENDBRANCH   5  10
BRANCH   6  24
HETATM   24  C   UNL     1     -43.813  58.379 -58.443  1.00  0.00    -0.024 A 
HETATM   25  C   UNL     1     -42.506  58.582 -58.978  1.00  0.00    -0.053 A 
HETATM   26  C   UNL     1     -41.769  59.901 -58.911  1.00  0.00     0.049 C 
HETATM   27  C   UNL     1     -41.858  57.540 -59.665  1.00  0.00     0.008 A 
HETATM   28  C   UNL     1     -42.465  56.301 -59.825  1.00  0.00     0.007 A 
HETATM   29  C   UNL     1     -43.739  56.076 -59.311  1.00  0.00    -0.061 A 
HETATM   30  C   UNL     1     -44.384  54.729 -59.478  1.00  0.00     0.048 C 
HETATM   31  C   UNL     1     -44.391  57.104 -58.611  1.00  0.00     0.017 A 
ENDBRANCH   6  24
BRANCH   9  32
HETATM   32  C   UNL     1     -46.872  59.177 -58.659  1.00  0.00     0.293 C 
HETATM   33  O   UNL     1     -47.529  58.366 -58.023  1.00  0.00    -0.259 OA
BRANCH  32  34
HETATM   34  O   UNL     1     -46.843  59.393 -59.982  1.00  0.00    -0.323 OA
HETATM   35  C   UNL     1     -47.272  58.296 -60.799  1.00  0.00     0.213 C 
ENDBRANCH  32  34
ENDBRANCH   9  32
BRANCH   1  36
HETATM   36  C   UNL     1     -47.690  61.754 -57.477  1.00  0.00     0.056 C 
HETATM   37  C   UNL     1     -47.701  62.835 -58.549  1.00  0.00     0.011 C 
ENDBRANCH   1  36
TORSDOF 9
ENDMDL
MODEL 10
REMARK VINA RESULT:      -6.5      2.321      4.021
REMARK  9 active torsions:
REMARK  status: ('A' for Active; 'I' for Inactive)
REMARK    1  A    between atoms: C_2  and  C_3 
REMARK    2  A    between atoms: C_7  and  C_8 
REMARK    3  A    between atoms: C_8  and  C_9 
REMARK       I    between atoms: C_9  and  N_10 
REMARK    4  A    between atoms: N_10  and  C_11 
REMARK    5  A    between atoms: C_11  and  C_12 
REMARK    6  A    between atoms: C_12  and  N_13 
REMARK    7  A    between atoms: C_21  and  C_22 
REMARK    8  A    between atoms: C_32  and  C_33 
REMARK    9  A    between atoms: C_33  and  O_34 
ROOT
HETATM    1  C   UNL     1     -40.839  54.191 -52.050  1.00  0.00     0.051 C 
HETATM    2  N   UNL     1     -40.500  54.186 -53.406  1.00  0.00    -0.228 NA
HETATM    3  C   UNL     1     -41.203  54.949 -54.174  1.00  0.00     0.170 C 
HETATM    4  N   UNL     1     -42.215  55.995 -53.621  1.00  0.00    -0.318 N 
HETATM    5  C   UNL     1     -43.241  56.071 -54.404  1.00  0.00     0.011 C 
HETATM    6  C   UNL     1     -41.714  56.459 -52.312  1.00  0.00     0.166 C 
HETATM    7  S   UNL     1     -41.331  54.807 -55.885  1.00  0.00    -0.086 SA
HETATM    8  C   UNL     1     -43.031  55.474 -55.790  1.00  0.00     0.135 C 
HETATM    9  C   UNL     1     -41.483  55.242 -51.481  1.00  0.00     0.069 C 
ENDROOT
BRANCH   5  10
HETATM   10  C   UNL     1     -44.550  56.653 -53.952  1.00  0.00     0.156 C 
BRANCH  10  11
HETATM   11  C   UNL     1     -44.963  57.860 -54.772  1.00  0.00     0.223 C 
HETATM   12  N   UNL     1     -44.432  59.067 -54.399  1.00  0.00    -0.359 N 
HETATM   13  H   UNL     1     -43.760  59.112 -53.635  1.00  0.00     0.162 HD
HETATM   14  O   UNL     1     -45.778  57.771 -55.687  1.00  0.00    -0.273 OA
BRANCH  12  15
HETATM   15  C   UNL     1     -44.920  60.360 -54.898  1.00  0.00     0.150 C 
BRANCH  15  16
HETATM   16  C   UNL     1     -45.514  61.313 -53.834  1.00  0.00     0.254 C 
BRANCH  16  17
HETATM   17  N   UNL     1     -46.995  61.568 -54.047  1.00  0.00    -0.070 N 
HETATM   18  H   UNL     1     -47.428  60.647 -54.258  1.00  0.00     0.279 HD
HETATM   19  C   UNL     1     -47.701  62.086 -52.814  1.00  0.00     0.235 C 
HETATM   20  C   UNL     1     -49.200  62.128 -53.072  1.00  0.00     0.028 C 
HETATM   21  C   UNL     1     -49.538  62.965 -54.300  1.00  0.00     0.003 C 
HETATM   22  C   UNL     1     -48.748  62.504 -55.521  1.00  0.00     0.028 C 
HETATM   23  C   UNL     1     -47.254  62.454 -55.242  1.00  0.00     0.235 C 
ENDBRANCH  16  17
ENDBRANCH  15  16
ENDBRANCH  12  15
ENDBRANCH  10  11
ENDBRANCH   5  10
BRANCH   6  24
HETATM   24  C   UNL     1     -42.287  57.787 -51.826  1.00  0.00    -0.024 A 
HETATM   25  C   UNL     1     -41.490  58.970 -51.885  1.00  0.00    -0.053 A 
HETATM   26  C   UNL     1     -40.055  58.989 -52.363  1.00  0.00     0.049 C 
HETATM   27  C   UNL     1     -42.012  60.193 -51.429  1.00  0.00     0.008 A 
HETATM   28  C   UNL     1     -43.304  60.278 -50.927  1.00  0.00     0.007 A 
HETATM   29  C   UNL     1     -44.103  59.140 -50.860  1.00  0.00    -0.061 A 
HETATM   30  C   UNL     1     -45.504  59.243 -50.326  1.00  0.00     0.048 C 
HETATM   31  C   UNL     1     -43.599  57.916 -51.325  1.00  0.00     0.017 A 
ENDBRANCH   6  24
BRANCH   9  32
HETATM   32  C   UNL     1     -42.203  55.052 -50.229  1.00  0.00     0.293 C 
HETATM   33  O   UNL     1     -43.319  54.555 -50.237  1.00  0.00    -0.259 OA
BRANCH  32  34
HETATM   34  O   UNL     1     -41.505  55.552 -49.199  1.00  0.00    -0.323 OA
HETATM   35  C   UNL     1     -40.866  54.586 -48.355  1.00  0.00     0.213 C 
ENDBRANCH  32  34
ENDBRANCH   9  32
BRANCH   1  36
HETATM   36  C   UNL     1     -40.537  52.883 -51.337  1.00  0.00     0.056 C 
HETATM   37  C   UNL     1     -39.519  52.043 -52.096  1.00  0.00     0.011 C 
ENDBRANCH   1  36
TORSDOF 9
ENDMDL
