MODEL 1
REMARK VINA RESULT:      -7.7      0.000      0.000
REMARK  4 active torsions:
REMARK  status: ('A' for Active; 'I' for Inactive)
REMARK    1  A    between atoms: O_2  and  C_3 
REMARK    2  A    between atoms: C_4  and  O_5 
REMARK    3  A    between atoms: C_8  and  C_9 
REMARK    4  A    between atoms: C_9  and  N_10 
ROOT
HETATM    1  N   UNL     1     -42.450  55.316 -55.082  1.00  0.00    -0.066 N 
HETATM    2  H   UNL     1     -42.361  54.341 -55.407  1.00  0.00     0.280 HD
HETATM    3  C   UNL     1     -43.765  55.354 -54.324  1.00  0.00     0.246 C 
HETATM    4  C   UNL     1     -44.398  56.760 -54.260  1.00  0.00     0.062 C 
HETATM    5  C   UNL     1     -44.560  57.309 -55.672  1.00  0.00     0.020 C 
HETATM    6  C   UNL     1     -43.168  57.468 -56.264  1.00  0.00     0.031 C 
HETATM    7  C   UNL     1     -42.385  58.504 -55.458  1.00  0.00     0.138 C 
HETATM    8  N   UNL     1     -42.561  58.456 -54.007  1.00  0.00    -0.317 N 
HETATM    9  C   UNL     1     -43.585  57.717 -53.408  1.00  0.00     0.020 A 
HETATM   10  C   UNL     1     -43.817  57.846 -52.090  1.00  0.00     0.026 A 
HETATM   11  C   UNL     1     -41.724  59.309 -53.270  1.00  0.00     0.247 A 
HETATM   12  O   UNL     1     -40.773  59.916 -53.755  1.00  0.00    -0.268 OA
HETATM   13  C   UNL     1     -42.012  59.426 -51.822  1.00  0.00     0.074 A 
HETATM   14  C   UNL     1     -43.015  58.728 -51.281  1.00  0.00     0.007 A 
HETATM   15  C   UNL     1     -42.455  56.118 -56.363  1.00  0.00     0.241 C 
ENDROOT
BRANCH   1  16
HETATM   16  C   UNL     1     -41.231  55.434 -54.178  1.00  0.00     0.274 C 
BRANCH  16  17
HETATM   17  C   UNL     1     -40.753  54.155 -53.541  1.00  0.00    -0.012 A 
HETATM   18  C   UNL     1     -40.697  53.962 -52.150  1.00  0.00     0.054 A 
HETATM   19  C   UNL     1     -40.249  52.740 -51.635  1.00  0.00     0.117 A 
HETATM   20 BR   UNL     1     -41.233  55.342 -50.949  1.00  0.00    -0.047 Br
HETATM   21  C   UNL     1     -39.823  51.704 -52.477  1.00  0.00     0.102 A 
HETATM   22  C   UNL     1     -39.866  51.894 -53.854  1.00  0.00     0.040 A 
HETATM   23  C   UNL     1     -40.328  53.105 -54.380  1.00  0.00     0.013 A 
BRANCH  19  24
HETATM   24  O   UNL     1     -40.223  52.535 -50.279  1.00  0.00    -0.357 OA
HETATM   25  H   UNL     1     -39.335  52.176 -50.077  1.00  0.00     0.218 HD
ENDBRANCH  19  24
BRANCH  21  26
HETATM   26  O   UNL     1     -39.403  50.570 -51.833  1.00  0.00    -0.353 OA
HETATM   27  C   UNL     1     -39.552  49.340 -52.536  1.00  0.00     0.210 C 
ENDBRANCH  21  26
ENDBRANCH  16  17
ENDBRANCH   1  16
TORSDOF 4
ENDMDL
MODEL 2
REMARK VINA RESULT:      -7.6      1.608      2.165
REMARK  4 active torsions:
REMARK  status: ('A' for Active; 'I' for Inactive)
REMARK    1  A    between atoms: O_2  and  C_3 
REMARK    2  A    between atoms: C_4  and  O_5 
REMARK    3  A    between atoms: C_8  and  C_9 
REMARK    4  A    between atoms: C_9  and  N_10 
ROOT
HETATM    1  N   UNL     1     -42.641  55.879 -52.712  1.00  0.00    -0.066 N 
HETATM    2  H   UNL     1     -43.091  54.955 -52.800  1.00  0.00     0.280 HD
HETATM    3  C   UNL     1     -43.536  56.658 -51.765  1.00  0.00     0.246 C 
HETATM    4  C   UNL     1     -43.427  58.188 -51.934  1.00  0.00     0.062 C 
HETATM    5  C   UNL     1     -43.705  58.559 -53.385  1.00  0.00     0.020 C 
HETATM    6  C   UNL     1     -42.610  57.933 -54.236  1.00  0.00     0.031 C 
HETATM    7  C   UNL     1     -41.260  58.540 -53.859  1.00  0.00     0.138 C 
HETATM    8  N   UNL     1     -41.034  58.771 -52.433  1.00  0.00    -0.317 N 
HETATM    9  C   UNL     1     -42.074  58.718 -51.500  1.00  0.00     0.020 A 
HETATM   10  C   UNL     1     -41.853  59.112 -50.233  1.00  0.00     0.026 A 
HETATM   11  C   UNL     1     -39.739  59.186 -52.087  1.00  0.00     0.247 A 
HETATM   12  O   UNL     1     -38.790  59.176 -52.867  1.00  0.00    -0.268 OA
HETATM   13  C   UNL     1     -39.535  59.614 -50.683  1.00  0.00     0.074 A 
HETATM   14  C   UNL     1     -40.555  59.578 -49.820  1.00  0.00     0.007 A 
HETATM   15  C   UNL     1     -42.636  56.407 -54.128  1.00  0.00     0.241 C 
ENDROOT
BRANCH   1  16
HETATM   16  C   UNL     1     -41.304  55.493 -52.096  1.00  0.00     0.274 C 
BRANCH  16  17
HETATM   17  C   UNL     1     -40.787  54.120 -52.439  1.00  0.00    -0.012 A 
HETATM   18  C   UNL     1     -40.406  53.177 -51.470  1.00  0.00     0.054 A 
HETATM   19  C   UNL     1     -39.945  51.917 -51.868  1.00  0.00     0.117 A 
HETATM   20 BR   UNL     1     -40.520  53.584 -49.610  1.00  0.00    -0.047 Br
HETATM   21  C   UNL     1     -39.823  51.579 -53.223  1.00  0.00     0.102 A 
HETATM   22  C   UNL     1     -40.188  52.513 -54.187  1.00  0.00     0.040 A 
HETATM   23  C   UNL     1     -40.666  53.769 -53.798  1.00  0.00     0.013 A 
BRANCH  19  24
HETATM   24  O   UNL     1     -39.603  50.980 -50.926  1.00  0.00    -0.357 OA
HETATM   25  H   UNL     1     -38.966  51.420 -50.326  1.00  0.00     0.218 HD
ENDBRANCH  19  24
BRANCH  21  26
HETATM   26  O   UNL     1     -39.349  50.316 -53.465  1.00  0.00    -0.353 OA
HETATM   27  C   UNL     1     -39.765  49.695 -54.678  1.00  0.00     0.210 C 
ENDBRANCH  21  26
ENDBRANCH  16  17
ENDBRANCH   1  16
TORSDOF 4
ENDMDL
MODEL 3
REMARK VINA RESULT:      -7.2      1.459      2.279
REMARK  4 active torsions:
REMARK  status: ('A' for Active; 'I' for Inactive)
REMARK    1  A    between atoms: O_2  and  C_3 
REMARK    2  A    between atoms: C_4  and  O_5 
REMARK    3  A    between atoms: C_8  and  C_9 
REMARK    4  A    between atoms: C_9  and  N_10 
ROOT
HETATM    1  N   UNL     1     -42.368  55.196 -54.839  1.00  0.00    -0.066 N 
HETATM    2  H   UNL     1     -42.233  54.205 -55.090  1.00  0.00     0.280 HD
HETATM    3  C   UNL     1     -43.589  55.205 -53.936  1.00  0.00     0.246 C 
HETATM    4  C   UNL     1     -44.328  56.560 -53.914  1.00  0.00     0.062 C 
HETATM    5  C   UNL     1     -44.692  56.963 -55.337  1.00  0.00     0.020 C 
HETATM    6  C   UNL     1     -43.393  57.171 -56.101  1.00  0.00     0.031 C 
HETATM    7  C   UNL     1     -42.616  58.332 -55.483  1.00  0.00     0.138 C 
HETATM    8  N   UNL     1     -42.625  58.405 -54.022  1.00  0.00    -0.317 N 
HETATM    9  C   UNL     1     -43.510  57.650 -53.247  1.00  0.00     0.020 A 
HETATM   10  C   UNL     1     -43.603  57.882 -51.926  1.00  0.00     0.026 A 
HETATM   11  C   UNL     1     -41.787  59.382 -53.463  1.00  0.00     0.247 A 
HETATM   12  O   UNL     1     -40.951  60.011 -54.106  1.00  0.00    -0.268 OA
HETATM   13  C   UNL     1     -41.920  59.610 -52.005  1.00  0.00     0.074 A 
HETATM   14  C   UNL     1     -42.794  58.892 -51.294  1.00  0.00     0.007 A 
HETATM   15  C   UNL     1     -42.584  55.874 -56.172  1.00  0.00     0.241 C 
ENDROOT
BRANCH   1  16
HETATM   16  C   UNL     1     -41.070  55.488 -54.099  1.00  0.00     0.274 C 
BRANCH  16  17
HETATM   17  C   UNL     1     -40.902  54.809 -52.764  1.00  0.00    -0.012 A 
HETATM   18  C   UNL     1     -40.549  53.455 -52.628  1.00  0.00     0.054 A 
HETATM   19  C   UNL     1     -40.402  52.899 -51.352  1.00  0.00     0.117 A 
HETATM   20 BR   UNL     1     -40.256  52.362 -54.163  1.00  0.00    -0.047 Br
HETATM   21  C   UNL     1     -40.629  53.656 -50.195  1.00  0.00     0.102 A 
HETATM   22  C   UNL     1     -40.989  54.993 -50.324  1.00  0.00     0.040 A 
HETATM   23  C   UNL     1     -41.122  55.563 -51.595  1.00  0.00     0.013 A 
BRANCH  19  24
HETATM   24  O   UNL     1     -40.027  51.587 -51.214  1.00  0.00    -0.357 OA
HETATM   25  H   UNL     1     -40.113  51.186 -52.102  1.00  0.00     0.218 HD
ENDBRANCH  19  24
BRANCH  21  26
HETATM   26  O   UNL     1     -40.457  52.979 -49.016  1.00  0.00    -0.353 OA
HETATM   27  C   UNL     1     -40.350  53.766 -47.833  1.00  0.00     0.210 C 
ENDBRANCH  21  26
ENDBRANCH  16  17
ENDBRANCH   1  16
TORSDOF 4
ENDMDL
MODEL 4
REMARK VINA RESULT:      -7.0      1.808      2.536
REMARK  4 active torsions:
REMARK  status: ('A' for Active; 'I' for Inactive)
REMARK    1  A    between atoms: O_2  and  C_3 
REMARK    2  A    between atoms: C_4  and  O_5 
REMARK    3  A    between atoms: C_8  and  C_9 
REMARK    4  A    between atoms: C_9  and  N_10 
ROOT
HETATM    1  N   UNL     1     -42.954  55.290 -52.462  1.00  0.00    -0.066 N 
HETATM    2  H   UNL     1     -43.194  54.288 -52.478  1.00  0.00     0.280 HD
HETATM    3  C   UNL     1     -43.564  55.816 -51.175  1.00  0.00     0.246 C 
HETATM    4  C   UNL     1     -43.858  57.331 -51.207  1.00  0.00     0.062 C 
HETATM    5  C   UNL     1     -44.741  57.651 -52.407  1.00  0.00     0.020 C 
HETATM    6  C   UNL     1     -43.946  57.320 -53.661  1.00  0.00     0.031 C 
HETATM    7  C   UNL     1     -42.718  58.226 -53.743  1.00  0.00     0.138 C 
HETATM    8  N   UNL     1     -42.021  58.478 -52.482  1.00  0.00    -0.317 N 
HETATM    9  C   UNL     1     -42.589  58.161 -51.245  1.00  0.00     0.020 A 
HETATM   10  C   UNL     1     -41.992  58.573 -50.113  1.00  0.00     0.026 A 
HETATM   11  C   UNL     1     -40.813  59.183 -52.592  1.00  0.00     0.247 A 
HETATM   12  O   UNL     1     -40.255  59.415 -53.662  1.00  0.00    -0.268 OA
HETATM   13  C   UNL     1     -40.186  59.622 -51.324  1.00  0.00     0.074 A 
HETATM   14  C   UNL     1     -40.766  59.328 -50.156  1.00  0.00     0.007 A 
HETATM   15  C   UNL     1     -43.601  55.831 -53.716  1.00  0.00     0.241 C 
ENDROOT
BRANCH   1  16
HETATM   16  C   UNL     1     -41.433  55.225 -52.424  1.00  0.00     0.274 C 
BRANCH  16  17
HETATM   17  C   UNL     1     -40.835  53.859 -52.204  1.00  0.00    -0.012 A 
HETATM   18  C   UNL     1     -40.342  53.058 -53.248  1.00  0.00     0.054 A 
HETATM   19  C   UNL     1     -39.791  51.804 -52.961  1.00  0.00     0.117 A 
HETATM   20 BR   UNL     1     -40.403  53.660 -55.056  1.00  0.00    -0.047 Br
HETATM   21  C   UNL     1     -39.745  51.308 -51.651  1.00  0.00     0.102 A 
HETATM   22  C   UNL     1     -40.241  52.093 -50.616  1.00  0.00     0.040 A 
HETATM   23  C   UNL     1     -40.779  53.355 -50.890  1.00  0.00     0.013 A 
BRANCH  19  24
HETATM   24  O   UNL     1     -39.279  51.030 -53.972  1.00  0.00    -0.357 OA
HETATM   25  H   UNL     1     -38.664  51.607 -54.469  1.00  0.00     0.218 HD
ENDBRANCH  19  24
BRANCH  21  26
HETATM   26  O   UNL     1     -39.188  50.063 -51.522  1.00  0.00    -0.353 OA
HETATM   27  C   UNL     1     -39.802  49.178 -50.590  1.00  0.00     0.210 C 
ENDBRANCH  21  26
ENDBRANCH  16  17
ENDBRANCH   1  16
TORSDOF 4
ENDMDL
MODEL 5
REMARK VINA RESULT:      -6.9      2.159      6.406
REMARK  4 active torsions:
REMARK  status: ('A' for Active; 'I' for Inactive)
REMARK    1  A    between atoms: O_2  and  C_3 
REMARK    2  A    between atoms: C_4  and  O_5 
REMARK    3  A    between atoms: C_8  and  C_9 
REMARK    4  A    between atoms: C_9  and  N_10 
ROOT
HETATM    1  N   UNL     1     -41.529  56.288 -54.760  1.00  0.00    -0.066 N 
HETATM    2  H   UNL     1     -41.312  57.035 -55.438  1.00  0.00     0.280 HD
HETATM    3  C   UNL     1     -40.814  55.059 -55.295  1.00  0.00     0.246 C 
HETATM    4  C   UNL     1     -41.440  53.729 -54.824  1.00  0.00     0.062 C 
HETATM    5  C   UNL     1     -42.919  53.708 -55.188  1.00  0.00     0.020 C 
HETATM    6  C   UNL     1     -43.598  54.825 -54.410  1.00  0.00     0.031 C 
HETATM    7  C   UNL     1     -43.491  54.544 -52.912  1.00  0.00     0.138 C 
HETATM    8  N   UNL     1     -42.213  54.003 -52.449  1.00  0.00    -0.317 N 
HETATM    9  C   UNL     1     -41.255  53.504 -53.336  1.00  0.00     0.020 A 
HETATM   10  C   UNL     1     -40.178  52.856 -52.857  1.00  0.00     0.026 A 
HETATM   11  C   UNL     1     -42.075  53.892 -51.057  1.00  0.00     0.247 A 
HETATM   12  O   UNL     1     -42.864  54.381 -50.253  1.00  0.00    -0.268 OA
HETATM   13  C   UNL     1     -40.877  53.171 -50.568  1.00  0.00     0.074 A 
HETATM   14  C   UNL     1     -39.991  52.680 -51.440  1.00  0.00     0.007 A 
HETATM   15  C   UNL     1     -43.036  56.192 -54.807  1.00  0.00     0.241 C 
ENDROOT
BRANCH   1  16
HETATM   16  C   UNL     1     -40.895  56.849 -53.495  1.00  0.00     0.274 C 
BRANCH  16  17
HETATM   17  C   UNL     1     -41.440  58.168 -53.011  1.00  0.00    -0.012 A 
HETATM   18  C   UNL     1     -41.555  58.500 -51.651  1.00  0.00     0.054 A 
HETATM   19  C   UNL     1     -42.062  59.751 -51.281  1.00  0.00     0.117 A 
HETATM   20 BR   UNL     1     -41.020  57.271 -50.295  1.00  0.00    -0.047 Br
HETATM   21  C   UNL     1     -42.490  60.679 -52.240  1.00  0.00     0.102 A 
HETATM   22  C   UNL     1     -42.388  60.351 -53.587  1.00  0.00     0.040 A 
HETATM   23  C   UNL     1     -41.867  59.110 -53.968  1.00  0.00     0.013 A 
BRANCH  19  24
HETATM   24  O   UNL     1     -42.147  60.093 -49.955  1.00  0.00    -0.357 OA
HETATM   25  H   UNL     1     -41.255  60.402 -49.697  1.00  0.00     0.218 HD
ENDBRANCH  19  24
BRANCH  21  26
HETATM   26  O   UNL     1     -42.972  61.857 -51.732  1.00  0.00    -0.353 OA
HETATM   27  C   UNL     1     -44.361  62.114 -51.914  1.00  0.00     0.210 C 
ENDBRANCH  21  26
ENDBRANCH  16  17
ENDBRANCH   1  16
TORSDOF 4
ENDMDL
MODEL 6
REMARK VINA RESULT:      -6.9      1.782      3.380
REMARK  4 active torsions:
REMARK  status: ('A' for Active; 'I' for Inactive)
REMARK    1  A    between atoms: O_2  and  C_3 
REMARK    2  A    between atoms: C_4  and  O_5 
REMARK    3  A    between atoms: C_8  and  C_9 
REMARK    4  A    between atoms: C_9  and  N_10 
ROOT
HETATM    1  N   UNL     1     -41.776  57.106 -52.417  1.00  0.00    -0.066 N 
HETATM    2  H   UNL     1     -41.215  56.653 -51.679  1.00  0.00     0.280 HD
HETATM    3  C   UNL     1     -40.758  57.781 -53.319  1.00  0.00     0.246 C 
HETATM    4  C   UNL     1     -41.334  58.974 -54.112  1.00  0.00     0.062 C 
HETATM    5  C   UNL     1     -41.961  59.970 -53.146  1.00  0.00     0.020 C 
HETATM    6  C   UNL     1     -43.131  59.274 -52.465  1.00  0.00     0.031 C 
HETATM    7  C   UNL     1     -44.191  58.919 -53.507  1.00  0.00     0.138 C 
HETATM    8  N   UNL     1     -43.691  58.423 -54.789  1.00  0.00    -0.317 N 
HETATM    9  C   UNL     1     -42.346  58.534 -55.153  1.00  0.00     0.020 A 
HETATM   10  C   UNL     1     -41.968  58.229 -56.407  1.00  0.00     0.026 A 
HETATM   11  C   UNL     1     -44.671  57.958 -55.679  1.00  0.00     0.247 A 
HETATM   12  O   UNL     1     -45.846  57.783 -55.367  1.00  0.00    -0.268 OA
HETATM   13  C   UNL     1     -44.217  57.633 -57.051  1.00  0.00     0.074 A 
HETATM   14  C   UNL     1     -42.929  57.776 -57.379  1.00  0.00     0.007 A 
HETATM   15  C   UNL     1     -42.656  58.068 -51.653  1.00  0.00     0.241 C 
ENDROOT
BRANCH   1  16
HETATM   16  C   UNL     1     -42.441  55.897 -53.060  1.00  0.00     0.274 C 
BRANCH  16  17
HETATM   17  C   UNL     1     -41.586  54.662 -53.190  1.00  0.00    -0.012 A 
HETATM   18  C   UNL     1     -41.185  53.885 -52.091  1.00  0.00     0.054 A 
HETATM   19  C   UNL     1     -40.399  52.745 -52.295  1.00  0.00     0.117 A 
HETATM   20 BR   UNL     1     -41.706  54.354 -50.318  1.00  0.00    -0.047 Br
HETATM   21  C   UNL     1     -39.973  52.372 -53.576  1.00  0.00     0.102 A 
HETATM   22  C   UNL     1     -40.357  53.144 -54.667  1.00  0.00     0.040 A 
HETATM   23  C   UNL     1     -41.157  54.276 -54.475  1.00  0.00     0.013 A 
BRANCH  19  24
HETATM   24  O   UNL     1     -40.032  51.963 -51.229  1.00  0.00    -0.357 OA
HETATM   25  H   UNL     1     -39.132  52.257 -50.976  1.00  0.00     0.218 HD
ENDBRANCH  19  24
BRANCH  21  26
HETATM   26  O   UNL     1     -39.201  51.240 -53.624  1.00  0.00    -0.353 OA
HETATM   27  C   UNL     1     -39.740  50.124 -54.327  1.00  0.00     0.210 C 
ENDBRANCH  21  26
ENDBRANCH  16  17
ENDBRANCH   1  16
TORSDOF 4
ENDMDL
MODEL 7
REMARK VINA RESULT:      -6.8      3.823      5.706
REMARK  4 active torsions:
REMARK  status: ('A' for Active; 'I' for Inactive)
REMARK    1  A    between atoms: O_2  and  C_3 
REMARK    2  A    between atoms: C_4  and  O_5 
REMARK    3  A    between atoms: C_8  and  C_9 
REMARK    4  A    between atoms: C_9  and  N_10 
ROOT
HETATM    1  N   UNL     1     -42.245  57.027 -57.806  1.00  0.00    -0.066 N 
HETATM    2  H   UNL     1     -41.437  56.749 -57.229  1.00  0.00     0.280 HD
HETATM    3  C   UNL     1     -42.030  56.328 -59.137  1.00  0.00     0.246 C 
HETATM    4  C   UNL     1     -42.738  57.025 -60.319  1.00  0.00     0.062 C 
HETATM    5  C   UNL     1     -42.299  58.482 -60.385  1.00  0.00     0.020 C 
HETATM    6  C   UNL     1     -42.777  59.162 -59.110  1.00  0.00     0.031 C 
HETATM    7  C   UNL     1     -44.304  59.146 -59.063  1.00  0.00     0.138 C 
HETATM    8  N   UNL     1     -44.948  57.915 -59.519  1.00  0.00    -0.317 N 
HETATM    9  C   UNL     1     -44.249  56.929 -60.220  1.00  0.00     0.020 A 
HETATM   10  C   UNL     1     -44.919  55.902 -60.773  1.00  0.00     0.026 A 
HETATM   11  C   UNL     1     -46.337  57.855 -59.329  1.00  0.00     0.247 A 
HETATM   12  O   UNL     1     -46.968  58.669 -58.659  1.00  0.00    -0.268 OA
HETATM   13  C   UNL     1     -47.041  56.712 -59.954  1.00  0.00     0.074 A 
HETATM   14  C   UNL     1     -46.349  55.798 -60.642  1.00  0.00     0.007 A 
HETATM   15  C   UNL     1     -42.129  58.532 -57.876  1.00  0.00     0.241 C 
ENDROOT
BRANCH   1  16
HETATM   16  C   UNL     1     -43.395  56.443 -56.998  1.00  0.00     0.274 C 
BRANCH  16  17
HETATM   17  C   UNL     1     -43.015  55.715 -55.734  1.00  0.00    -0.012 A 
HETATM   18  C   UNL     1     -43.575  56.008 -54.480  1.00  0.00     0.054 A 
HETATM   19  C   UNL     1     -43.177  55.279 -53.353  1.00  0.00     0.117 A 
HETATM   20 BR   UNL     1     -44.885  57.380 -54.289  1.00  0.00    -0.047 Br
HETATM   21  C   UNL     1     -42.202  54.276 -53.439  1.00  0.00     0.102 A 
HETATM   22  C   UNL     1     -41.635  53.991 -54.677  1.00  0.00     0.040 A 
HETATM   23  C   UNL     1     -42.039  54.702 -55.812  1.00  0.00     0.013 A 
BRANCH  19  24
HETATM   24  O   UNL     1     -43.744  55.538 -52.131  1.00  0.00    -0.357 OA
HETATM   25  H   UNL     1     -44.152  54.697 -51.839  1.00  0.00     0.218 HD
ENDBRANCH  19  24
BRANCH  21  26
HETATM   26  O   UNL     1     -41.904  53.654 -52.255  1.00  0.00    -0.353 OA
HETATM   27  C   UNL     1     -40.537  53.325 -52.028  1.00  0.00     0.210 C 
ENDBRANCH  21  26
ENDBRANCH  16  17
ENDBRANCH   1  16
TORSDOF 4
ENDMDL
MODEL 8
REMARK VINA RESULT:      -6.5      3.751      6.110
REMARK  4 active torsions:
REMARK  status: ('A' for Active; 'I' for Inactive)
REMARK    1  A    between atoms: O_2  and  C_3 
REMARK    2  A    between atoms: C_4  and  O_5 
REMARK    3  A    between atoms: C_8  and  C_9 
REMARK    4  A    between atoms: C_9  and  N_10 
ROOT
HETATM    1  N   UNL     1     -42.592  55.245 -53.799  1.00  0.00    -0.066 N 
HETATM    2  H   UNL     1     -42.340  54.626 -54.584  1.00  0.00     0.280 HD
HETATM    3  C   UNL     1     -41.367  56.116 -53.582  1.00  0.00     0.246 C 
HETATM    4  C   UNL     1     -41.260  56.683 -52.150  1.00  0.00     0.062 C 
HETATM    5  C   UNL     1     -41.307  55.537 -51.147  1.00  0.00     0.020 C 
HETATM    6  C   UNL     1     -42.672  54.877 -51.269  1.00  0.00     0.031 C 
HETATM    7  C   UNL     1     -43.760  55.874 -50.875  1.00  0.00     0.138 C 
HETATM    8  N   UNL     1     -43.570  57.249 -51.337  1.00  0.00    -0.317 N 
HETATM    9  C   UNL     1     -42.349  57.695 -51.851  1.00  0.00     0.020 A 
HETATM   10  C   UNL     1     -42.168  59.005 -52.095  1.00  0.00     0.026 A 
HETATM   11  C   UNL     1     -44.645  58.119 -51.100  1.00  0.00     0.247 A 
HETATM   12  O   UNL     1     -45.750  57.746 -50.716  1.00  0.00    -0.268 OA
HETATM   13  C   UNL     1     -44.407  59.554 -51.379  1.00  0.00     0.074 A 
HETATM   14  C   UNL     1     -43.221  59.956 -51.844  1.00  0.00     0.007 A 
HETATM   15  C   UNL     1     -42.874  54.286 -52.666  1.00  0.00     0.241 C 
ENDROOT
BRANCH   1  16
HETATM   16  C   UNL     1     -43.771  56.003 -54.393  1.00  0.00     0.274 C 
BRANCH  16  17
HETATM   17  C   UNL     1     -43.625  56.435 -55.830  1.00  0.00    -0.012 A 
HETATM   18  C   UNL     1     -44.067  57.680 -56.308  1.00  0.00     0.054 A 
HETATM   19  C   UNL     1     -43.886  58.012 -57.655  1.00  0.00     0.117 A 
HETATM   20 BR   UNL     1     -44.902  58.935 -55.141  1.00  0.00    -0.047 Br
HETATM   21  C   UNL     1     -43.297  57.114 -58.556  1.00  0.00     0.102 A 
HETATM   22  C   UNL     1     -42.869  55.876 -58.091  1.00  0.00     0.040 A 
HETATM   23  C   UNL     1     -43.030  55.541 -56.742  1.00  0.00     0.013 A 
BRANCH  19  24
HETATM   24  O   UNL     1     -44.285  59.239 -58.121  1.00  0.00    -0.357 OA
HETATM   25  H   UNL     1     -44.020  59.887 -57.437  1.00  0.00     0.218 HD
ENDBRANCH  19  24
BRANCH  21  26
HETATM   26  O   UNL     1     -43.194  57.569 -59.844  1.00  0.00    -0.353 OA
HETATM   27  C   UNL     1     -41.886  57.893 -60.308  1.00  0.00     0.210 C 
ENDBRANCH  21  26
ENDBRANCH  16  17
ENDBRANCH   1  16
TORSDOF 4
ENDMDL
MODEL 9
REMARK VINA RESULT:      -6.4      3.447      6.625
REMARK  4 active torsions:
REMARK  status: ('A' for Active; 'I' for Inactive)
REMARK    1  A    between atoms: O_2  and  C_3 
REMARK    2  A    between atoms: C_4  and  O_5 
REMARK    3  A    between atoms: C_8  and  C_9 
REMARK    4  A    between atoms: C_9  and  N_10 
ROOT
HETATM    1  N   UNL     1     -42.738  55.473 -55.273  1.00  0.00    -0.066 N 
HETATM    2  H   UNL     1     -42.820  55.040 -56.205  1.00  0.00     0.280 HD
HETATM    3  C   UNL     1     -41.255  55.746 -55.100  1.00  0.00     0.246 C 
HETATM    4  C   UNL     1     -40.811  55.828 -53.624  1.00  0.00     0.062 C 
HETATM    5  C   UNL     1     -41.225  54.554 -52.898  1.00  0.00     0.020 C 
HETATM    6  C   UNL     1     -42.745  54.494 -52.910  1.00  0.00     0.031 C 
HETATM    7  C   UNL     1     -43.310  55.673 -52.119  1.00  0.00     0.138 C 
HETATM    8  N   UNL     1     -42.628  56.954 -52.302  1.00  0.00    -0.317 N 
HETATM    9  C   UNL     1     -41.378  57.047 -52.921  1.00  0.00     0.020 A 
HETATM   10  C   UNL     1     -40.713  58.215 -52.907  1.00  0.00     0.026 A 
HETATM   11  C   UNL     1     -43.244  58.058 -51.692  1.00  0.00     0.247 A 
HETATM   12  O   UNL     1     -44.371  58.023 -51.203  1.00  0.00    -0.268 OA
HETATM   13  C   UNL     1     -42.480  59.326 -51.695  1.00  0.00     0.074 A 
HETATM   14  C   UNL     1     -41.275  59.379 -52.270  1.00  0.00     0.007 A 
HETATM   15  C   UNL     1     -43.282  54.415 -54.340  1.00  0.00     0.241 C 
ENDROOT
BRANCH   1  16
HETATM   16  C   UNL     1     -43.564  56.737 -55.466  1.00  0.00     0.274 C 
BRANCH  16  17
HETATM   17  C   UNL     1     -42.969  57.786 -56.370  1.00  0.00    -0.012 A 
HETATM   18  C   UNL     1     -42.770  57.591 -57.747  1.00  0.00     0.054 A 
HETATM   19  C   UNL     1     -42.220  58.618 -58.523  1.00  0.00     0.117 A 
HETATM   20 BR   UNL     1     -43.249  55.945 -58.582  1.00  0.00    -0.047 Br
HETATM   21  C   UNL     1     -41.831  59.836 -57.951  1.00  0.00     0.102 A 
HETATM   22  C   UNL     1     -42.016  60.031 -56.586  1.00  0.00     0.040 A 
HETATM   23  C   UNL     1     -42.580  59.016 -55.805  1.00  0.00     0.013 A 
BRANCH  19  24
HETATM   24  O   UNL     1     -42.053  58.445 -59.873  1.00  0.00    -0.357 OA
HETATM   25  H   UNL     1     -42.484  57.594 -60.093  1.00  0.00     0.218 HD
ENDBRANCH  19  24
BRANCH  21  26
HETATM   26  O   UNL     1     -41.300  60.745 -58.828  1.00  0.00    -0.353 OA
HETATM   27  C   UNL     1     -42.036  61.947 -59.033  1.00  0.00     0.210 C 
ENDBRANCH  21  26
ENDBRANCH  16  17
ENDBRANCH   1  16
TORSDOF 4
ENDMDL
MODEL 10
REMARK VINA RESULT:      -6.4     15.429     18.125
REMARK  4 active torsions:
REMARK  status: ('A' for Active; 'I' for Inactive)
REMARK    1  A    between atoms: O_2  and  C_3 
REMARK    2  A    between atoms: C_4  and  O_5 
REMARK    3  A    between atoms: C_8  and  C_9 
REMARK    4  A    between atoms: C_9  and  N_10 
ROOT
HETATM    1  N   UNL     1     -33.045  40.670 -53.326  1.00  0.00    -0.066 N 
HETATM    2  H   UNL     1     -32.649  41.473 -53.838  1.00  0.00     0.280 HD
HETATM    3  C   UNL     1     -32.219  40.575 -52.055  1.00  0.00     0.246 C 
HETATM    4  C   UNL     1     -32.207  39.161 -51.434  1.00  0.00     0.062 C 
HETATM    5  C   UNL     1     -31.736  38.154 -52.474  1.00  0.00     0.020 C 
HETATM    6  C   UNL     1     -32.761  38.143 -53.599  1.00  0.00     0.031 C 
HETATM    7  C   UNL     1     -34.104  37.650 -53.061  1.00  0.00     0.138 C 
HETATM    8  N   UNL     1     -34.481  38.134 -51.734  1.00  0.00    -0.317 N 
HETATM    9  C   UNL     1     -33.565  38.764 -50.886  1.00  0.00     0.020 A 
HETATM   10  C   UNL     1     -33.908  39.029 -49.614  1.00  0.00     0.026 A 
HETATM   11  C   UNL     1     -35.778  37.799 -51.316  1.00  0.00     0.247 A 
HETATM   12  O   UNL     1     -36.627  37.310 -52.057  1.00  0.00    -0.268 OA
HETATM   13  C   UNL     1     -36.119  38.105 -49.907  1.00  0.00     0.074 A 
HETATM   14  C   UNL     1     -35.213  38.683 -49.112  1.00  0.00     0.007 A 
HETATM   15  C   UNL     1     -32.848  39.512 -54.276  1.00  0.00     0.241 C 
ENDROOT
BRANCH   1  16
HETATM   16  C   UNL     1     -34.468  41.152 -53.084  1.00  0.00     0.274 C 
BRANCH  16  17
HETATM   17  C   UNL     1     -35.286  41.449 -54.315  1.00  0.00    -0.012 A 
HETATM   18  C   UNL     1     -36.683  41.314 -54.361  1.00  0.00     0.054 A 
HETATM   19  C   UNL     1     -37.373  41.619 -55.540  1.00  0.00     0.117 A 
HETATM   20 BR   UNL     1     -37.661  40.729 -52.832  1.00  0.00    -0.047 Br
HETATM   21  C   UNL     1     -36.697  42.031 -56.696  1.00  0.00     0.102 A 
HETATM   22  C   UNL     1     -35.312  42.156 -56.659  1.00  0.00     0.040 A 
HETATM   23  C   UNL     1     -34.615  41.869 -55.480  1.00  0.00     0.013 A 
BRANCH  19  24
HETATM   24  O   UNL     1     -38.741  41.520 -55.582  1.00  0.00    -0.357 OA
HETATM   25  H   UNL     1     -39.056  41.748 -54.684  1.00  0.00     0.218 HD
ENDBRANCH  19  24
BRANCH  21  26
HETATM   26  O   UNL     1     -37.498  42.286 -57.778  1.00  0.00    -0.353 OA
HETATM   27  C   UNL     1     -37.068  41.769 -59.033  1.00  0.00     0.210 C 
ENDBRANCH  21  26
ENDBRANCH  16  17
ENDBRANCH   1  16
TORSDOF 4
ENDMDL
