MODEL 1
REMARK VINA RESULT:      -7.4      0.000      0.000
REMARK  6 active torsions:
REMARK  status: ('A' for Active; 'I' for Inactive)
REMARK    1  A    between atoms: C_2  and  N_3 
REMARK    2  A    between atoms: C_2  and  C_11 
REMARK       I    between atoms: N_3  and  C_4 
REMARK    3  A    between atoms: C_4  and  C_5 
REMARK    4  A    between atoms: C_14  and  O_15 
REMARK    5  A    between atoms: O_15  and  C_16 
REMARK    6  A    between atoms: C_16  and  C_17 
ROOT
HETATM    1  C   UNL     1     -42.679  56.304 -51.944  1.00  0.00    -0.036 A 
HETATM    2  C   UNL     1     -43.306  55.061 -52.124  1.00  0.00     0.012 A 
HETATM    3  C   UNL     1     -42.741  53.889 -51.607  1.00  0.00     0.037 A 
HETATM    4  C   UNL     1     -41.530  53.941 -50.920  1.00  0.00     0.069 A 
HETATM    5  C   UNL     1     -40.916  55.176 -50.708  1.00  0.00     0.037 A 
HETATM    6  C   UNL     1     -41.480  56.347 -51.218  1.00  0.00     0.012 A 
ENDROOT
BRANCH   1   7
HETATM    7  C   UNL     1     -43.274  57.551 -52.575  1.00  0.00     0.113 C 
HETATM    8  C   UNL     1     -42.690  58.832 -51.977  1.00  0.00     0.037 C 
BRANCH   7   9
HETATM    9  N   UNL     1     -43.078  57.502 -54.016  1.00  0.00    -0.352 N 
HETATM   10  C   UNL     1     -44.112  57.279 -54.888  1.00  0.00     0.225 C 
HETATM   11  O   UNL     1     -45.277  57.156 -54.532  1.00  0.00    -0.273 OA
HETATM   12  H   UNL     1     -42.125  57.443 -54.354  1.00  0.00     0.163 HD
BRANCH  10  13
HETATM   13  C   UNL     1     -43.798  57.217 -56.336  1.00  0.00     0.119 A 
HETATM   14  C   UNL     1     -42.983  56.138 -56.994  1.00  0.00     0.126 A 
HETATM   15 CL   UNL     1     -42.175  54.873 -56.083  1.00  0.00    -0.101 Cl
HETATM   16 CL   UNL     1     -43.475  55.607 -58.605  1.00  0.00    -0.101 Cl
HETATM   17  C   UNL     1     -42.424  57.532 -56.876  1.00  0.00     0.060 A 
ENDBRANCH  10  13
ENDBRANCH   7   9
ENDBRANCH   1   7
BRANCH   4  18
HETATM   18  O   UNL     1     -40.857  52.869 -50.404  1.00  0.00    -0.347 OA
BRANCH  18  19
HETATM   19  C   UNL     1     -39.557  52.618 -50.936  1.00  0.00     0.215 C 
BRANCH  19  20
HETATM   20  C   UNL     1     -39.694  51.665 -52.091  1.00  0.00    -0.017 A 
HETATM   21  C   UNL     1     -39.525  50.295 -51.914  1.00  0.00     0.125 A 
HETATM   22  N   UNL     1     -39.627  49.382 -52.905  1.00  0.00    -0.272 NA
HETATM   23  C   UNL     1     -39.923  49.852 -54.135  1.00  0.00     0.116 A 
HETATM   24  C   UNL     1     -40.117  51.194 -54.419  1.00  0.00     0.020 A 
HETATM   25  C   UNL     1     -39.999  52.112 -53.380  1.00  0.00     0.012 A 
ENDBRANCH  19  20
ENDBRANCH  18  19
ENDBRANCH   4  18
TORSDOF 6
ENDMDL
MODEL 2
REMARK VINA RESULT:      -7.1      2.912      4.324
REMARK  6 active torsions:
REMARK  status: ('A' for Active; 'I' for Inactive)
REMARK    1  A    between atoms: C_2  and  N_3 
REMARK    2  A    between atoms: C_2  and  C_11 
REMARK       I    between atoms: N_3  and  C_4 
REMARK    3  A    between atoms: C_4  and  C_5 
REMARK    4  A    between atoms: C_14  and  O_15 
REMARK    5  A    between atoms: O_15  and  C_16 
REMARK    6  A    between atoms: C_16  and  C_17 
ROOT
HETATM    1  C   UNL     1     -43.190  56.589 -54.574  1.00  0.00    -0.036 A 
HETATM    2  C   UNL     1     -42.651  56.075 -55.763  1.00  0.00     0.012 A 
HETATM    3  C   UNL     1     -42.144  54.772 -55.819  1.00  0.00     0.037 A 
HETATM    4  C   UNL     1     -42.152  53.970 -54.680  1.00  0.00     0.069 A 
HETATM    5  C   UNL     1     -42.715  54.460 -53.501  1.00  0.00     0.037 A 
HETATM    6  C   UNL     1     -43.226  55.759 -53.445  1.00  0.00     0.012 A 
ENDROOT
BRANCH   1   7
HETATM    7  C   UNL     1     -43.669  58.030 -54.519  1.00  0.00     0.113 C 
HETATM    8  C   UNL     1     -45.196  58.129 -54.526  1.00  0.00     0.037 C 
BRANCH   7   9
HETATM    9  N   UNL     1     -43.102  58.681 -53.348  1.00  0.00    -0.352 N 
HETATM   10  C   UNL     1     -41.879  59.299 -53.375  1.00  0.00     0.225 C 
HETATM   11  O   UNL     1     -41.197  59.396 -54.387  1.00  0.00    -0.273 OA
HETATM   12  H   UNL     1     -43.544  58.500 -52.455  1.00  0.00     0.163 HD
BRANCH  10  13
HETATM   13  C   UNL     1     -41.378  59.905 -52.117  1.00  0.00     0.119 A 
HETATM   14  C   UNL     1     -40.820  59.133 -50.953  1.00  0.00     0.126 A 
HETATM   15 CL   UNL     1     -40.824  57.378 -50.891  1.00  0.00    -0.101 Cl
HETATM   16 CL   UNL     1     -39.461  59.842 -50.077  1.00  0.00    -0.101 Cl
HETATM   17  C   UNL     1     -42.152  59.827 -50.823  1.00  0.00     0.060 A 
ENDBRANCH  10  13
ENDBRANCH   7   9
ENDBRANCH   1   7
BRANCH   4  18
HETATM   18  O   UNL     1     -41.652  52.700 -54.592  1.00  0.00    -0.347 OA
BRANCH  18  19
HETATM   19  C   UNL     1     -40.238  52.581 -54.438  1.00  0.00     0.215 C 
BRANCH  19  20
HETATM   20  C   UNL     1     -39.961  51.530 -53.401  1.00  0.00    -0.017 A 
HETATM   21  C   UNL     1     -39.797  50.195 -53.758  1.00  0.00     0.125 A 
HETATM   22  N   UNL     1     -39.552  49.197 -52.881  1.00  0.00    -0.272 NA
HETATM   23  C   UNL     1     -39.453  49.544 -51.581  1.00  0.00     0.116 A 
HETATM   24  C   UNL     1     -39.593  50.842 -51.118  1.00  0.00     0.020 A 
HETATM   25  C   UNL     1     -39.852  51.848 -52.044  1.00  0.00     0.012 A 
ENDBRANCH  19  20
ENDBRANCH  18  19
ENDBRANCH   4  18
TORSDOF 6
ENDMDL
MODEL 3
REMARK VINA RESULT:      -7.1      3.638      4.822
REMARK  6 active torsions:
REMARK  status: ('A' for Active; 'I' for Inactive)
REMARK    1  A    between atoms: C_2  and  N_3 
REMARK    2  A    between atoms: C_2  and  C_11 
REMARK       I    between atoms: N_3  and  C_4 
REMARK    3  A    between atoms: C_4  and  C_5 
REMARK    4  A    between atoms: C_14  and  O_15 
REMARK    5  A    between atoms: O_15  and  C_16 
REMARK    6  A    between atoms: C_16  and  C_17 
ROOT
HETATM    1  C   UNL     1     -42.780  56.724 -51.629  1.00  0.00    -0.036 A 
HETATM    2  C   UNL     1     -43.241  55.536 -52.218  1.00  0.00     0.012 A 
HETATM    3  C   UNL     1     -42.683  54.300 -51.873  1.00  0.00     0.037 A 
HETATM    4  C   UNL     1     -41.643  54.235 -50.949  1.00  0.00     0.069 A 
HETATM    5  C   UNL     1     -41.200  55.407 -50.335  1.00  0.00     0.037 A 
HETATM    6  C   UNL     1     -41.758  56.642 -50.673  1.00  0.00     0.012 A 
ENDROOT
BRANCH   1   7
HETATM    7  C   UNL     1     -43.352  58.060 -52.071  1.00  0.00     0.113 C 
HETATM    8  C   UNL     1     -44.709  57.905 -52.761  1.00  0.00     0.037 C 
BRANCH   7   9
HETATM    9  N   UNL     1     -43.442  58.949 -50.922  1.00  0.00    -0.352 N 
HETATM   10  C   UNL     1     -43.238  60.301 -51.026  1.00  0.00     0.225 C 
HETATM   11  O   UNL     1     -43.017  60.868 -52.088  1.00  0.00    -0.273 OA
HETATM   12  H   UNL     1     -43.467  58.522 -50.005  1.00  0.00     0.163 HD
BRANCH  10  13
HETATM   13  C   UNL     1     -43.321  61.113 -49.787  1.00  0.00     0.119 A 
HETATM   14  C   UNL     1     -44.598  61.605 -49.165  1.00  0.00     0.126 A 
HETATM   15 CL   UNL     1     -46.167  61.386 -49.924  1.00  0.00    -0.101 Cl
HETATM   16 CL   UNL     1     -44.693  61.632 -47.402  1.00  0.00    -0.101 Cl
HETATM   17  C   UNL     1     -43.654  62.585 -49.813  1.00  0.00     0.060 A 
ENDBRANCH  10  13
ENDBRANCH   7   9
ENDBRANCH   1   7
BRANCH   4  18
HETATM   18  O   UNL     1     -40.988  53.100 -50.559  1.00  0.00    -0.347 OA
BRANCH  18  19
HETATM   19  C   UNL     1     -39.684  52.899 -51.102  1.00  0.00     0.215 C 
BRANCH  19  20
HETATM   20  C   UNL     1     -39.767  51.824 -52.148  1.00  0.00    -0.017 A 
HETATM   21  C   UNL     1     -39.560  50.487 -51.821  1.00  0.00     0.125 A 
HETATM   22  N   UNL     1     -39.612  49.469 -52.708  1.00  0.00    -0.272 NA
HETATM   23  C   UNL     1     -39.897  49.794 -53.987  1.00  0.00     0.116 A 
HETATM   24  C   UNL     1     -40.127  51.089 -54.418  1.00  0.00     0.020 A 
HETATM   25  C   UNL     1     -40.058  52.118 -53.483  1.00  0.00     0.012 A 
ENDBRANCH  19  20
ENDBRANCH  18  19
ENDBRANCH   4  18
TORSDOF 6
ENDMDL
MODEL 4
REMARK VINA RESULT:      -7.0      2.082      2.781
REMARK  6 active torsions:
REMARK  status: ('A' for Active; 'I' for Inactive)
REMARK    1  A    between atoms: C_2  and  N_3 
REMARK    2  A    between atoms: C_2  and  C_11 
REMARK       I    between atoms: N_3  and  C_4 
REMARK    3  A    between atoms: C_4  and  C_5 
REMARK    4  A    between atoms: C_14  and  O_15 
REMARK    5  A    between atoms: O_15  and  C_16 
REMARK    6  A    between atoms: C_16  and  C_17 
ROOT
HETATM    1  C   UNL     1     -42.898  56.603 -54.721  1.00  0.00    -0.036 A 
HETATM    2  C   UNL     1     -41.597  56.699 -54.202  1.00  0.00     0.012 A 
HETATM    3  C   UNL     1     -41.119  55.760 -53.282  1.00  0.00     0.037 A 
HETATM    4  C   UNL     1     -41.942  54.721 -52.852  1.00  0.00     0.069 A 
HETATM    5  C   UNL     1     -43.225  54.599 -53.385  1.00  0.00     0.037 A 
HETATM    6  C   UNL     1     -43.703  55.532 -54.308  1.00  0.00     0.012 A 
ENDROOT
BRANCH   1   7
HETATM    7  C   UNL     1     -43.419  57.674 -55.664  1.00  0.00     0.113 C 
HETATM    8  C   UNL     1     -42.373  58.757 -55.937  1.00  0.00     0.037 C 
BRANCH   7   9
HETATM    9  N   UNL     1     -43.869  57.051 -56.899  1.00  0.00    -0.352 N 
HETATM   10  C   UNL     1     -44.710  57.687 -57.775  1.00  0.00     0.225 C 
HETATM   11  O   UNL     1     -45.103  58.835 -57.616  1.00  0.00    -0.273 OA
HETATM   12  H   UNL     1     -43.704  56.058 -57.006  1.00  0.00     0.163 HD
BRANCH  10  13
HETATM   13  C   UNL     1     -45.136  56.950 -58.990  1.00  0.00     0.119 A 
HETATM   14  C   UNL     1     -44.203  56.284 -59.963  1.00  0.00     0.126 A 
HETATM   15 CL   UNL     1     -42.456  56.422 -59.846  1.00  0.00    -0.101 Cl
HETATM   16 CL   UNL     1     -44.719  54.753 -60.675  1.00  0.00    -0.101 Cl
HETATM   17  C   UNL     1     -44.962  57.519 -60.377  1.00  0.00     0.060 A 
ENDBRANCH  10  13
ENDBRANCH   7   9
ENDBRANCH   1   7
BRANCH   4  18
HETATM   18  O   UNL     1     -41.610  53.767 -51.930  1.00  0.00    -0.347 OA
BRANCH  18  19
HETATM   19  C   UNL     1     -40.224  53.455 -51.808  1.00  0.00     0.215 C 
BRANCH  19  20
HETATM   20  C   UNL     1     -39.998  52.075 -52.358  1.00  0.00    -0.017 A 
HETATM   21  C   UNL     1     -39.712  51.004 -51.516  1.00  0.00     0.125 A 
HETATM   22  N   UNL     1     -39.492  49.740 -51.940  1.00  0.00    -0.272 NA
HETATM   23  C   UNL     1     -39.572  49.524 -53.270  1.00  0.00     0.116 A 
HETATM   24  C   UNL     1     -39.857  50.515 -54.194  1.00  0.00     0.020 A 
HETATM   25  C   UNL     1     -40.071  51.809 -53.729  1.00  0.00     0.012 A 
ENDBRANCH  19  20
ENDBRANCH  18  19
ENDBRANCH   4  18
TORSDOF 6
ENDMDL
MODEL 5
REMARK VINA RESULT:      -6.8     14.640     16.461
REMARK  6 active torsions:
REMARK  status: ('A' for Active; 'I' for Inactive)
REMARK    1  A    between atoms: C_2  and  N_3 
REMARK    2  A    between atoms: C_2  and  C_11 
REMARK       I    between atoms: N_3  and  C_4 
REMARK    3  A    between atoms: C_4  and  C_5 
REMARK    4  A    between atoms: C_14  and  O_15 
REMARK    5  A    between atoms: O_15  and  C_16 
REMARK    6  A    between atoms: C_16  and  C_17 
ROOT
HETATM    1  C   UNL     1     -36.884  41.629 -57.670  1.00  0.00    -0.036 A 
HETATM    2  C   UNL     1     -35.564  42.018 -57.396  1.00  0.00     0.012 A 
HETATM    3  C   UNL     1     -35.160  42.325 -56.092  1.00  0.00     0.037 A 
HETATM    4  C   UNL     1     -36.077  42.266 -55.044  1.00  0.00     0.069 A 
HETATM    5  C   UNL     1     -37.383  41.849 -55.301  1.00  0.00     0.037 A 
HETATM    6  C   UNL     1     -37.787  41.537 -56.601  1.00  0.00     0.012 A 
ENDROOT
BRANCH   1   7
HETATM    7  C   UNL     1     -37.317  41.370 -59.103  1.00  0.00     0.113 C 
HETATM    8  C   UNL     1     -37.337  42.652 -59.938  1.00  0.00     0.037 C 
BRANCH   7   9
HETATM    9  N   UNL     1     -36.445  40.367 -59.695  1.00  0.00    -0.352 N 
HETATM   10  C   UNL     1     -36.931  39.321 -60.436  1.00  0.00     0.225 C 
HETATM   11  O   UNL     1     -38.118  39.177 -60.699  1.00  0.00    -0.273 OA
HETATM   12  H   UNL     1     -35.481  40.347 -59.386  1.00  0.00     0.163 HD
BRANCH  10  13
HETATM   13  C   UNL     1     -35.959  38.335 -60.968  1.00  0.00     0.119 A 
HETATM   14  C   UNL     1     -35.849  37.928 -62.412  1.00  0.00     0.126 A 
HETATM   15 CL   UNL     1     -36.975  38.482 -63.640  1.00  0.00    -0.101 Cl
HETATM   16 CL   UNL     1     -34.234  37.625 -63.056  1.00  0.00    -0.101 Cl
HETATM   17  C   UNL     1     -36.373  36.947 -61.394  1.00  0.00     0.060 A 
ENDBRANCH  10  13
ENDBRANCH   7   9
ENDBRANCH   1   7
BRANCH   4  18
HETATM   18  O   UNL     1     -35.820  42.579 -53.738  1.00  0.00    -0.347 OA
BRANCH  18  19
HETATM   19  C   UNL     1     -36.608  41.908 -52.756  1.00  0.00     0.215 C 
BRANCH  19  20
HETATM   20  C   UNL     1     -35.683  41.163 -51.835  1.00  0.00    -0.017 A 
HETATM   21  C   UNL     1     -36.078  39.974 -51.229  1.00  0.00     0.125 A 
HETATM   22  N   UNL     1     -35.304  39.255 -50.387  1.00  0.00    -0.272 NA
HETATM   23  C   UNL     1     -34.067  39.736 -50.141  1.00  0.00     0.116 A 
HETATM   24  C   UNL     1     -33.572  40.904 -50.696  1.00  0.00     0.020 A 
HETATM   25  C   UNL     1     -34.395  41.628 -51.554  1.00  0.00     0.012 A 
ENDBRANCH  19  20
ENDBRANCH  18  19
ENDBRANCH   4  18
TORSDOF 6
ENDMDL
MODEL 6
REMARK VINA RESULT:      -6.7      2.334      2.617
REMARK  6 active torsions:
REMARK  status: ('A' for Active; 'I' for Inactive)
REMARK    1  A    between atoms: C_2  and  N_3 
REMARK    2  A    between atoms: C_2  and  C_11 
REMARK       I    between atoms: N_3  and  C_4 
REMARK    3  A    between atoms: C_4  and  C_5 
REMARK    4  A    between atoms: C_14  and  O_15 
REMARK    5  A    between atoms: O_15  and  C_16 
REMARK    6  A    between atoms: C_16  and  C_17 
ROOT
HETATM    1  C   UNL     1     -41.863  57.157 -51.119  1.00  0.00    -0.036 A 
HETATM    2  C   UNL     1     -42.633  56.275 -51.891  1.00  0.00     0.012 A 
HETATM    3  C   UNL     1     -42.454  54.890 -51.795  1.00  0.00     0.037 A 
HETATM    4  C   UNL     1     -41.487  54.369 -50.938  1.00  0.00     0.069 A 
HETATM    5  C   UNL     1     -40.738  55.236 -50.143  1.00  0.00     0.037 A 
HETATM    6  C   UNL     1     -40.919  56.618 -50.233  1.00  0.00     0.012 A 
ENDROOT
BRANCH   1   7
HETATM    7  C   UNL     1     -42.026  58.658 -51.293  1.00  0.00     0.113 C 
HETATM    8  C   UNL     1     -41.126  59.448 -50.340  1.00  0.00     0.037 C 
BRANCH   7   9
HETATM    9  N   UNL     1     -41.767  59.012 -52.680  1.00  0.00    -0.352 N 
HETATM   10  C   UNL     1     -42.498  59.965 -53.340  1.00  0.00     0.225 C 
HETATM   11  O   UNL     1     -43.383  60.623 -52.807  1.00  0.00    -0.273 OA
HETATM   12  H   UNL     1     -41.159  58.401 -53.211  1.00  0.00     0.163 HD
BRANCH  10  13
HETATM   13  C   UNL     1     -42.174  60.229 -54.763  1.00  0.00     0.119 A 
HETATM   14  C   UNL     1     -43.188  60.371 -55.864  1.00  0.00     0.126 A 
HETATM   15 CL   UNL     1     -44.904  60.101 -55.612  1.00  0.00    -0.101 Cl
HETATM   16 CL   UNL     1     -42.866  61.565 -57.125  1.00  0.00    -0.101 Cl
HETATM   17  C   UNL     1     -42.290  59.162 -55.825  1.00  0.00     0.060 A 
ENDBRANCH  10  13
ENDBRANCH   7   9
ENDBRANCH   1   7
BRANCH   4  18
HETATM   18  O   UNL     1     -41.187  53.044 -50.783  1.00  0.00    -0.347 OA
BRANCH  18  19
HETATM   19  C   UNL     1     -39.836  52.663 -51.039  1.00  0.00     0.215 C 
BRANCH  19  20
HETATM   20  C   UNL     1     -39.831  51.652 -52.151  1.00  0.00    -0.017 A 
HETATM   21  C   UNL     1     -39.570  50.309 -51.898  1.00  0.00     0.125 A 
HETATM   22  N   UNL     1     -39.543  49.347 -52.847  1.00  0.00    -0.272 NA
HETATM   23  C   UNL     1     -39.799  49.737 -54.113  1.00  0.00     0.116 A 
HETATM   24  C   UNL     1     -40.077  51.045 -54.473  1.00  0.00     0.020 A 
HETATM   25  C   UNL     1     -40.090  52.016 -53.476  1.00  0.00     0.012 A 
ENDBRANCH  19  20
ENDBRANCH  18  19
ENDBRANCH   4  18
TORSDOF 6
ENDMDL
MODEL 7
REMARK VINA RESULT:      -6.7     14.890     16.949
REMARK  6 active torsions:
REMARK  status: ('A' for Active; 'I' for Inactive)
REMARK    1  A    between atoms: C_2  and  N_3 
REMARK    2  A    between atoms: C_2  and  C_11 
REMARK       I    between atoms: N_3  and  C_4 
REMARK    3  A    between atoms: C_4  and  C_5 
REMARK    4  A    between atoms: C_14  and  O_15 
REMARK    5  A    between atoms: O_15  and  C_16 
REMARK    6  A    between atoms: C_16  and  C_17 
ROOT
HETATM    1  C   UNL     1     -36.467  41.874 -54.625  1.00  0.00    -0.036 A 
HETATM    2  C   UNL     1     -35.335  42.273 -55.351  1.00  0.00     0.012 A 
HETATM    3  C   UNL     1     -35.345  42.284 -56.751  1.00  0.00     0.037 A 
HETATM    4  C   UNL     1     -36.483  41.876 -57.445  1.00  0.00     0.069 A 
HETATM    5  C   UNL     1     -37.624  41.507 -56.731  1.00  0.00     0.037 A 
HETATM    6  C   UNL     1     -37.617  41.501 -55.335  1.00  0.00     0.012 A 
ENDROOT
BRANCH   1   7
HETATM    7  C   UNL     1     -36.409  41.802 -53.109  1.00  0.00     0.113 C 
HETATM    8  C   UNL     1     -37.689  41.214 -52.511  1.00  0.00     0.037 C 
BRANCH   7   9
HETATM    9  N   UNL     1     -35.238  41.037 -52.707  1.00  0.00    -0.352 N 
HETATM   10  C   UNL     1     -34.357  41.492 -51.761  1.00  0.00     0.225 C 
HETATM   11  O   UNL     1     -34.510  42.540 -51.148  1.00  0.00    -0.273 OA
HETATM   12  H   UNL     1     -34.979  40.246 -53.284  1.00  0.00     0.163 HD
BRANCH  10  13
HETATM   13  C   UNL     1     -33.176  40.649 -51.448  1.00  0.00     0.119 A 
HETATM   14  C   UNL     1     -33.237  39.206 -51.030  1.00  0.00     0.126 A 
HETATM   15 CL   UNL     1     -34.751  38.371 -50.722  1.00  0.00    -0.101 Cl
HETATM   16 CL   UNL     1     -31.974  38.127 -51.628  1.00  0.00    -0.101 Cl
HETATM   17  C   UNL     1     -32.820  40.258 -50.034  1.00  0.00     0.060 A 
ENDBRANCH  10  13
ENDBRANCH   7   9
ENDBRANCH   1   7
BRANCH   4  18
HETATM   18  O   UNL     1     -36.607  41.801 -58.804  1.00  0.00    -0.347 OA
BRANCH  18  19
HETATM   19  C   UNL     1     -37.660  40.979 -59.304  1.00  0.00     0.215 C 
BRANCH  19  20
HETATM   20  C   UNL     1     -37.054  39.885 -60.135  1.00  0.00    -0.017 A 
HETATM   21  C   UNL     1     -37.515  39.622 -61.422  1.00  0.00     0.125 A 
HETATM   22  N   UNL     1     -37.022  38.652 -62.224  1.00  0.00    -0.272 NA
HETATM   23  C   UNL     1     -36.011  37.910 -61.727  1.00  0.00     0.116 A 
HETATM   24  C   UNL     1     -35.473  38.091 -60.463  1.00  0.00     0.020 A 
HETATM   25  C   UNL     1     -36.006  39.093 -59.657  1.00  0.00     0.012 A 
ENDBRANCH  19  20
ENDBRANCH  18  19
ENDBRANCH   4  18
TORSDOF 6
ENDMDL
MODEL 8
REMARK VINA RESULT:      -6.6      2.504      3.229
REMARK  6 active torsions:
REMARK  status: ('A' for Active; 'I' for Inactive)
REMARK    1  A    between atoms: C_2  and  N_3 
REMARK    2  A    between atoms: C_2  and  C_11 
REMARK       I    between atoms: N_3  and  C_4 
REMARK    3  A    between atoms: C_4  and  C_5 
REMARK    4  A    between atoms: C_14  and  O_15 
REMARK    5  A    between atoms: O_15  and  C_16 
REMARK    6  A    between atoms: C_16  and  C_17 
ROOT
HETATM    1  C   UNL     1     -43.070  57.089 -54.735  1.00  0.00    -0.036 A 
HETATM    2  C   UNL     1     -43.805  55.921 -54.480  1.00  0.00     0.012 A 
HETATM    3  C   UNL     1     -43.204  54.811 -53.876  1.00  0.00     0.037 A 
HETATM    4  C   UNL     1     -41.853  54.846 -53.536  1.00  0.00     0.069 A 
HETATM    5  C   UNL     1     -41.122  56.013 -53.758  1.00  0.00     0.037 A 
HETATM    6  C   UNL     1     -41.721  57.124 -54.356  1.00  0.00     0.012 A 
ENDROOT
BRANCH   1   7
HETATM    7  C   UNL     1     -43.725  58.254 -55.456  1.00  0.00     0.113 C 
HETATM    8  C   UNL     1     -43.895  59.472 -54.545  1.00  0.00     0.037 C 
BRANCH   7   9
HETATM    9  N   UNL     1     -42.948  58.586 -56.641  1.00  0.00    -0.352 N 
HETATM   10  C   UNL     1     -43.055  57.875 -57.808  1.00  0.00     0.225 C 
HETATM   11  O   UNL     1     -43.839  56.948 -57.962  1.00  0.00    -0.273 OA
HETATM   12  H   UNL     1     -42.180  59.236 -56.527  1.00  0.00     0.163 HD
BRANCH  10  13
HETATM   13  C   UNL     1     -42.193  58.275 -58.948  1.00  0.00     0.119 A 
HETATM   14  C   UNL     1     -42.696  58.816 -60.258  1.00  0.00     0.126 A 
HETATM   15 CL   UNL     1     -44.405  58.908 -60.650  1.00  0.00    -0.101 Cl
HETATM   16 CL   UNL     1     -41.749  60.085 -61.037  1.00  0.00    -0.101 Cl
HETATM   17  C   UNL     1     -42.080  57.441 -60.201  1.00  0.00     0.060 A 
ENDBRANCH  10  13
ENDBRANCH   7   9
ENDBRANCH   1   7
BRANCH   4  18
HETATM   18  O   UNL     1     -41.141  53.819 -52.982  1.00  0.00    -0.347 OA
BRANCH  18  19
HETATM   19  C   UNL     1     -40.233  53.134 -53.844  1.00  0.00     0.215 C 
BRANCH  19  20
HETATM   20  C   UNL     1     -39.953  51.780 -53.258  1.00  0.00    -0.017 A 
HETATM   21  C   UNL     1     -39.887  50.648 -54.066  1.00  0.00     0.125 A 
HETATM   22  N   UNL     1     -39.646  49.399 -53.608  1.00  0.00    -0.272 NA
HETATM   23  C   UNL     1     -39.447  49.268 -52.280  1.00  0.00     0.116 A 
HETATM   24  C   UNL     1     -39.483  50.328 -51.389  1.00  0.00     0.020 A 
HETATM   25  C   UNL     1     -39.742  51.601 -51.888  1.00  0.00     0.012 A 
ENDBRANCH  19  20
ENDBRANCH  18  19
ENDBRANCH   4  18
TORSDOF 6
ENDMDL
MODEL 9
REMARK VINA RESULT:      -6.6     14.155     16.070
REMARK  6 active torsions:
REMARK  status: ('A' for Active; 'I' for Inactive)
REMARK    1  A    between atoms: C_2  and  N_3 
REMARK    2  A    between atoms: C_2  and  C_11 
REMARK       I    between atoms: N_3  and  C_4 
REMARK    3  A    between atoms: C_4  and  C_5 
REMARK    4  A    between atoms: C_14  and  O_15 
REMARK    5  A    between atoms: O_15  and  C_16 
REMARK    6  A    between atoms: C_16  and  C_17 
ROOT
HETATM    1  C   UNL     1     -36.741  40.883 -52.430  1.00  0.00    -0.036 A 
HETATM    2  C   UNL     1     -36.572  39.876 -51.467  1.00  0.00     0.012 A 
HETATM    3  C   UNL     1     -35.450  39.862 -50.631  1.00  0.00     0.037 A 
HETATM    4  C   UNL     1     -34.470  40.844 -50.759  1.00  0.00     0.069 A 
HETATM    5  C   UNL     1     -34.644  41.867 -51.691  1.00  0.00     0.037 A 
HETATM    6  C   UNL     1     -35.766  41.886 -52.523  1.00  0.00     0.012 A 
ENDROOT
BRANCH   1   7
HETATM    7  C   UNL     1     -37.930  40.838 -53.373  1.00  0.00     0.113 C 
HETATM    8  C   UNL     1     -39.224  41.284 -52.689  1.00  0.00     0.037 C 
BRANCH   7   9
HETATM    9  N   UNL     1     -37.646  41.650 -54.547  1.00  0.00    -0.352 N 
HETATM   10  C   UNL     1     -37.485  41.103 -55.793  1.00  0.00     0.225 C 
HETATM   11  O   UNL     1     -37.617  39.909 -56.026  1.00  0.00    -0.273 OA
HETATM   12  H   UNL     1     -37.375  42.613 -54.391  1.00  0.00     0.163 HD
BRANCH  10  13
HETATM   13  C   UNL     1     -37.165  42.017 -56.917  1.00  0.00     0.119 A 
HETATM   14  C   UNL     1     -36.647  41.581 -58.260  1.00  0.00     0.126 A 
HETATM   15 CL   UNL     1     -36.222  39.914 -58.615  1.00  0.00    -0.101 Cl
HETATM   16 CL   UNL     1     -37.222  42.454 -59.682  1.00  0.00    -0.101 Cl
HETATM   17  C   UNL     1     -35.743  42.333 -57.317  1.00  0.00     0.060 A 
ENDBRANCH  10  13
ENDBRANCH   7   9
ENDBRANCH   1   7
BRANCH   4  18
HETATM   18  O   UNL     1     -33.312  40.918 -50.035  1.00  0.00    -0.347 OA
BRANCH  18  19
HETATM   19  C   UNL     1     -32.457  39.778 -50.083  1.00  0.00     0.215 C 
BRANCH  19  20
HETATM   20  C   UNL     1     -32.249  39.282 -48.679  1.00  0.00    -0.017 A 
HETATM   21  C   UNL     1     -33.123  38.363 -48.107  1.00  0.00     0.125 A 
HETATM   22  N   UNL     1     -33.002  37.878 -46.851  1.00  0.00    -0.272 NA
HETATM   23  C   UNL     1     -31.952  38.320 -46.129  1.00  0.00     0.116 A 
HETATM   24  C   UNL     1     -31.020  39.228 -46.604  1.00  0.00     0.020 A 
HETATM   25  C   UNL     1     -31.174  39.716 -47.898  1.00  0.00     0.012 A 
ENDBRANCH  19  20
ENDBRANCH  18  19
ENDBRANCH   4  18
TORSDOF 6
ENDMDL
MODEL 10
REMARK VINA RESULT:      -6.5      3.407      4.718
REMARK  6 active torsions:
REMARK  status: ('A' for Active; 'I' for Inactive)
REMARK    1  A    between atoms: C_2  and  N_3 
REMARK    2  A    between atoms: C_2  and  C_11 
REMARK       I    between atoms: N_3  and  C_4 
REMARK    3  A    between atoms: C_4  and  C_5 
REMARK    4  A    between atoms: C_14  and  O_15 
REMARK    5  A    between atoms: O_15  and  C_16 
REMARK    6  A    between atoms: C_16  and  C_17 
ROOT
HETATM    1  C   UNL     1     -42.433  57.034 -54.609  1.00  0.00    -0.036 A 
HETATM    2  C   UNL     1     -41.120  56.630 -54.321  1.00  0.00     0.012 A 
HETATM    3  C   UNL     1     -40.783  55.274 -54.254  1.00  0.00     0.037 A 
HETATM    4  C   UNL     1     -41.760  54.300 -54.457  1.00  0.00     0.069 A 
HETATM    5  C   UNL     1     -43.060  54.692 -54.775  1.00  0.00     0.037 A 
HETATM    6  C   UNL     1     -43.398  56.045 -54.847  1.00  0.00     0.012 A 
ENDROOT
BRANCH   1   7
HETATM    7  C   UNL     1     -42.790  58.511 -54.605  1.00  0.00     0.113 C 
HETATM    8  C   UNL     1     -43.822  58.855 -55.680  1.00  0.00     0.037 C 
BRANCH   7   9
HETATM    9  N   UNL     1     -43.259  58.889 -53.281  1.00  0.00    -0.352 N 
HETATM   10  C   UNL     1     -42.473  59.580 -52.396  1.00  0.00     0.225 C 
HETATM   11  O   UNL     1     -41.345  59.973 -52.663  1.00  0.00    -0.273 OA
HETATM   12  H   UNL     1     -44.115  58.461 -52.951  1.00  0.00     0.163 HD
BRANCH  10  13
HETATM   13  C   UNL     1     -43.036  59.888 -51.058  1.00  0.00     0.119 A 
HETATM   14  C   UNL     1     -44.212  60.790 -50.808  1.00  0.00     0.126 A 
HETATM   15 CL   UNL     1     -44.987  61.713 -52.085  1.00  0.00    -0.101 Cl
HETATM   16 CL   UNL     1     -45.333  60.336 -49.520  1.00  0.00    -0.101 Cl
HETATM   17  C   UNL     1     -42.831  61.225 -50.389  1.00  0.00     0.060 A 
ENDBRANCH  10  13
ENDBRANCH   7   9
ENDBRANCH   1   7
BRANCH   4  18
HETATM   18  O   UNL     1     -41.570  52.948 -54.379  1.00  0.00    -0.347 OA
BRANCH  18  19
HETATM   19  C   UNL     1     -40.226  52.486 -54.507  1.00  0.00     0.215 C 
BRANCH  19  20
HETATM   20  C   UNL     1     -39.965  51.481 -53.421  1.00  0.00    -0.017 A 
HETATM   21  C   UNL     1     -39.757  50.138 -53.721  1.00  0.00     0.125 A 
HETATM   22  N   UNL     1     -39.524  49.179 -52.798  1.00  0.00    -0.272 NA
HETATM   23  C   UNL     1     -39.483  49.576 -51.509  1.00  0.00     0.116 A 
HETATM   24  C   UNL     1     -39.669  50.886 -51.101  1.00  0.00     0.020 A 
HETATM   25  C   UNL     1     -39.916  51.851 -52.074  1.00  0.00     0.012 A 
ENDBRANCH  19  20
ENDBRANCH  18  19
ENDBRANCH   4  18
TORSDOF 6
ENDMDL
