MODEL 1
REMARK VINA RESULT:      -8.6      0.000      0.000
REMARK  2 active torsions:
REMARK  status: ('A' for Active; 'I' for Inactive)
REMARK    1  A    between atoms: C_15  and  C_16 
REMARK    2  A    between atoms: C_19  and  O_20 
ROOT
HETATM    1  C   UNL     1     -43.073  64.406 -49.965  1.00  0.00     0.048 C 
HETATM    2  C   UNL     1     -43.624  63.012 -50.043  1.00  0.00    -0.061 A 
HETATM    3  C   UNL     1     -42.851  61.962 -50.572  1.00  0.00     0.021 A 
HETATM    4  C   UNL     1     -43.393  60.662 -50.651  1.00  0.00    -0.000 A 
HETATM    5  C   UNL     1     -44.699  60.456 -50.185  1.00  0.00     0.043 A 
HETATM    6  N   UNL     1     -44.992  59.120 -50.350  1.00  0.00    -0.353 N 
HETATM    7  H   UNL     1     -45.857  58.669 -50.081  1.00  0.00     0.166 HD
HETATM    8  C   UNL     1     -43.948  58.501 -50.965  1.00  0.00     0.066 A 
HETATM    9  C   UNL     1     -42.915  59.404 -51.118  1.00  0.00    -0.017 A 
HETATM   10  C   UNL     1     -41.585  58.987 -51.687  1.00  0.00     0.043 C 
HETATM   11  C   UNL     1     -41.455  57.426 -51.778  1.00  0.00     0.018 C 
HETATM   12  C   UNL     1     -42.746  56.815 -52.359  1.00  0.00     0.065 C 
HETATM   13  C   UNL     1     -43.812  57.138 -51.343  1.00  0.00     0.082 C 
HETATM   14  N   UNL     1     -44.410  56.149 -50.764  1.00  0.00    -0.203 NA
HETATM   15  C   UNL     1     -43.020  55.311 -52.473  1.00  0.00     0.121 C 
HETATM   16  N   UNL     1     -43.834  55.022 -51.268  1.00  0.00    -0.207 NA
HETATM   17  C   UNL     1     -45.484  61.483 -49.655  1.00  0.00     0.031 A 
HETATM   18  C   UNL     1     -44.926  62.763 -49.597  1.00  0.00     0.009 A 
HETATM   19  H   UNL     1     -43.245  54.597 -50.547  1.00  0.00     0.149 HD
ENDROOT
BRANCH  15  20
HETATM   20  C   UNL     1     -41.938  54.298 -52.778  1.00  0.00    -0.038 A 
HETATM   21  C   UNL     1     -41.777  53.740 -54.051  1.00  0.00     0.011 A 
HETATM   22  C   UNL     1     -40.863  52.701 -54.273  1.00  0.00     0.037 A 
HETATM   23  C   UNL     1     -40.117  52.166 -53.221  1.00  0.00     0.068 A 
HETATM   24  C   UNL     1     -40.267  52.704 -51.948  1.00  0.00     0.037 A 
HETATM   25  C   UNL     1     -41.171  53.748 -51.730  1.00  0.00     0.011 A 
BRANCH  23  26
HETATM   26  O   UNL     1     -39.298  51.125 -53.559  1.00  0.00    -0.356 OA
HETATM   27  C   UNL     1     -39.893  50.068 -54.304  1.00  0.00     0.210 C 
ENDBRANCH  23  26
ENDBRANCH  15  20
TORSDOF 2
ENDMDL
MODEL 2
REMARK VINA RESULT:      -8.6      3.342      8.775
REMARK  2 active torsions:
REMARK  status: ('A' for Active; 'I' for Inactive)
REMARK    1  A    between atoms: C_15  and  C_16 
REMARK    2  A    between atoms: C_19  and  O_20 
ROOT
HETATM    1  C   UNL     1     -39.485  49.782 -54.713  1.00  0.00     0.048 C 
HETATM    2  C   UNL     1     -39.761  50.848 -53.693  1.00  0.00    -0.061 A 
HETATM    3  C   UNL     1     -40.263  52.103 -54.083  1.00  0.00     0.021 A 
HETATM    4  C   UNL     1     -40.502  53.097 -53.112  1.00  0.00    -0.000 A 
HETATM    5  C   UNL     1     -40.235  52.793 -51.770  1.00  0.00     0.043 A 
HETATM    6  N   UNL     1     -40.560  53.904 -51.020  1.00  0.00    -0.353 N 
HETATM    7  H   UNL     1     -40.496  53.973 -50.014  1.00  0.00     0.166 HD
HETATM    8  C   UNL     1     -40.951  54.909 -51.850  1.00  0.00     0.066 A 
HETATM    9  C   UNL     1     -40.985  54.437 -53.147  1.00  0.00    -0.017 A 
HETATM   10  C   UNL     1     -41.470  55.297 -54.283  1.00  0.00     0.043 C 
HETATM   11  C   UNL     1     -42.174  56.601 -53.766  1.00  0.00     0.018 C 
HETATM   12  C   UNL     1     -41.344  57.244 -52.638  1.00  0.00     0.065 C 
HETATM   13  C   UNL     1     -41.363  56.229 -51.523  1.00  0.00     0.082 C 
HETATM   14  N   UNL     1     -41.905  56.576 -50.402  1.00  0.00    -0.203 NA
HETATM   15  C   UNL     1     -41.791  58.460 -51.815  1.00  0.00     0.121 C 
HETATM   16  N   UNL     1     -42.354  57.849 -50.588  1.00  0.00    -0.207 NA
HETATM   17  C   UNL     1     -39.738  51.554 -51.358  1.00  0.00     0.031 A 
HETATM   18  C   UNL     1     -39.502  50.591 -52.343  1.00  0.00     0.009 A 
HETATM   19  H   UNL     1     -43.376  57.837 -50.645  1.00  0.00     0.149 HD
ENDROOT
BRANCH  15  20
HETATM   20  C   UNL     1     -42.602  59.595 -52.401  1.00  0.00    -0.038 A 
HETATM   21  C   UNL     1     -43.901  59.883 -51.967  1.00  0.00     0.011 A 
HETATM   22  C   UNL     1     -44.683  60.844 -52.622  1.00  0.00     0.037 A 
HETATM   23  C   UNL     1     -44.203  61.512 -53.750  1.00  0.00     0.068 A 
HETATM   24  C   UNL     1     -42.917  61.236 -54.198  1.00  0.00     0.037 A 
HETATM   25  C   UNL     1     -42.133  60.284 -53.537  1.00  0.00     0.011 A 
BRANCH  23  26
HETATM   26  O   UNL     1     -45.080  62.390 -54.324  1.00  0.00    -0.356 OA
HETATM   27  C   UNL     1     -46.463  62.141 -54.098  1.00  0.00     0.210 C 
ENDBRANCH  23  26
ENDBRANCH  15  20
TORSDOF 2
ENDMDL
MODEL 3
REMARK VINA RESULT:      -8.5      3.241      8.846
REMARK  2 active torsions:
REMARK  status: ('A' for Active; 'I' for Inactive)
REMARK    1  A    between atoms: C_15  and  C_16 
REMARK    2  A    between atoms: C_19  and  O_20 
ROOT
HETATM    1  C   UNL     1     -39.192  49.786 -50.963  1.00  0.00     0.048 C 
HETATM    2  C   UNL     1     -39.653  50.957 -51.781  1.00  0.00    -0.061 A 
HETATM    3  C   UNL     1     -40.217  52.088 -51.164  1.00  0.00     0.021 A 
HETATM    4  C   UNL     1     -40.658  53.171 -51.951  1.00  0.00    -0.000 A 
HETATM    5  C   UNL     1     -40.509  53.087 -53.342  1.00  0.00     0.043 A 
HETATM    6  N   UNL     1     -40.992  54.259 -53.884  1.00  0.00    -0.353 N 
HETATM    7  H   UNL     1     -40.993  54.497 -54.867  1.00  0.00     0.166 HD
HETATM    8  C   UNL     1     -41.499  55.039 -52.891  1.00  0.00     0.066 A 
HETATM    9  C   UNL     1     -41.263  54.431 -51.674  1.00  0.00    -0.017 A 
HETATM   10  C   UNL     1     -41.630  55.102 -50.377  1.00  0.00     0.043 C 
HETATM   11  C   UNL     1     -42.002  56.612 -50.588  1.00  0.00     0.018 C 
HETATM   12  C   UNL     1     -42.936  56.767 -51.805  1.00  0.00     0.065 C 
HETATM   13  C   UNL     1     -42.106  56.321 -52.982  1.00  0.00     0.082 C 
HETATM   14  N   UNL     1     -41.865  57.186 -53.910  1.00  0.00    -0.203 NA
HETATM   15  C   UNL     1     -43.399  58.112 -52.378  1.00  0.00     0.121 C 
HETATM   16  N   UNL     1     -42.460  58.342 -53.502  1.00  0.00    -0.207 NA
HETATM   17  C   UNL     1     -39.950  51.975 -53.978  1.00  0.00     0.031 A 
HETATM   18  C   UNL     1     -39.530  50.912 -53.174  1.00  0.00     0.009 A 
HETATM   19  H   UNL     1     -41.736  59.008 -53.216  1.00  0.00     0.149 HD
ENDROOT
BRANCH  15  20
HETATM   20  C   UNL     1     -43.679  59.322 -51.514  1.00  0.00    -0.038 A 
HETATM   21  C   UNL     1     -42.678  60.235 -51.164  1.00  0.00     0.011 A 
HETATM   22  C   UNL     1     -42.930  61.264 -50.247  1.00  0.00     0.037 A 
HETATM   23  C   UNL     1     -44.174  61.383 -49.626  1.00  0.00     0.068 A 
HETATM   24  C   UNL     1     -45.180  60.482 -49.958  1.00  0.00     0.037 A 
HETATM   25  C   UNL     1     -44.931  59.461 -50.881  1.00  0.00     0.011 A 
BRANCH  23  26
HETATM   26  O   UNL     1     -44.278  62.399 -48.718  1.00  0.00    -0.356 OA
HETATM   27  C   UNL     1     -44.986  62.104 -47.518  1.00  0.00     0.210 C 
ENDBRANCH  23  26
ENDBRANCH  15  20
TORSDOF 2
ENDMDL
MODEL 4
REMARK VINA RESULT:      -8.3      1.886      2.230
REMARK  2 active torsions:
REMARK  status: ('A' for Active; 'I' for Inactive)
REMARK    1  A    between atoms: C_15  and  C_16 
REMARK    2  A    between atoms: C_19  and  O_20 
ROOT
HETATM    1  C   UNL     1     -43.504  63.779 -54.166  1.00  0.00     0.048 C 
HETATM    2  C   UNL     1     -43.229  62.688 -53.173  1.00  0.00    -0.061 A 
HETATM    3  C   UNL     1     -42.803  61.417 -53.601  1.00  0.00     0.021 A 
HETATM    4  C   UNL     1     -42.565  60.400 -52.653  1.00  0.00    -0.000 A 
HETATM    5  C   UNL     1     -42.755  60.697 -51.297  1.00  0.00     0.043 A 
HETATM    6  N   UNL     1     -42.447  59.563 -50.576  1.00  0.00    -0.353 N 
HETATM    7  H   UNL     1     -42.466  59.482 -49.569  1.00  0.00     0.166 HD
HETATM    8  C   UNL     1     -42.141  58.553 -51.435  1.00  0.00     0.066 A 
HETATM    9  C   UNL     1     -42.146  59.040 -52.727  1.00  0.00    -0.017 A 
HETATM   10  C   UNL     1     -41.754  58.174 -53.894  1.00  0.00     0.043 C 
HETATM   11  C   UNL     1     -41.087  56.833 -53.426  1.00  0.00     0.018 C 
HETATM   12  C   UNL     1     -41.892  56.213 -52.267  1.00  0.00     0.065 C 
HETATM   13  C   UNL     1     -41.774  57.210 -51.143  1.00  0.00     0.082 C 
HETATM   14  N   UNL     1     -41.198  56.824 -50.053  1.00  0.00    -0.203 NA
HETATM   15  C   UNL     1     -41.462  54.967 -51.481  1.00  0.00     0.121 C 
HETATM   16  N   UNL     1     -40.816  55.535 -50.274  1.00  0.00    -0.207 NA
HETATM   17  C   UNL     1     -43.175  61.952 -50.848  1.00  0.00     0.031 A 
HETATM   18  C   UNL     1     -43.413  62.938 -51.809  1.00  0.00     0.009 A 
HETATM   19  H   UNL     1     -39.798  55.501 -50.379  1.00  0.00     0.149 HD
ENDROOT
BRANCH  15  20
HETATM   20  C   UNL     1     -40.733  53.805 -52.117  1.00  0.00    -0.038 A 
HETATM   21  C   UNL     1     -40.950  53.427 -53.447  1.00  0.00     0.011 A 
HETATM   22  C   UNL     1     -40.372  52.262 -53.969  1.00  0.00     0.037 A 
HETATM   23  C   UNL     1     -39.597  51.424 -53.166  1.00  0.00     0.068 A 
HETATM   24  C   UNL     1     -39.373  51.780 -51.841  1.00  0.00     0.037 A 
HETATM   25  C   UNL     1     -39.942  52.949 -51.324  1.00  0.00     0.011 A 
BRANCH  23  26
HETATM   26  O   UNL     1     -39.130  50.296 -53.781  1.00  0.00    -0.356 OA
HETATM   27  C   UNL     1     -39.944  49.758 -54.817  1.00  0.00     0.210 C 
ENDBRANCH  23  26
ENDBRANCH  15  20
TORSDOF 2
ENDMDL
MODEL 5
REMARK VINA RESULT:      -8.3     17.808     19.603
REMARK  2 active torsions:
REMARK  status: ('A' for Active; 'I' for Inactive)
REMARK    1  A    between atoms: C_15  and  C_16 
REMARK    2  A    between atoms: C_19  and  O_20 
ROOT
HETATM    1  C   UNL     1     -36.843  39.290 -60.884  1.00  0.00     0.048 C 
HETATM    2  C   UNL     1     -36.798  40.133 -59.643  1.00  0.00    -0.061 A 
HETATM    3  C   UNL     1     -36.250  39.627 -58.449  1.00  0.00     0.021 A 
HETATM    4  C   UNL     1     -36.231  40.430 -57.290  1.00  0.00    -0.000 A 
HETATM    5  C   UNL     1     -36.758  41.726 -57.369  1.00  0.00     0.043 A 
HETATM    6  N   UNL     1     -36.612  42.310 -56.129  1.00  0.00    -0.353 N 
HETATM    7  H   UNL     1     -36.880  43.255 -55.888  1.00  0.00     0.166 HD
HETATM    8  C   UNL     1     -36.080  41.404 -55.264  1.00  0.00     0.066 A 
HETATM    9  C   UNL     1     -35.775  40.247 -55.953  1.00  0.00    -0.017 A 
HETATM   10  C   UNL     1     -35.086  39.091 -55.278  1.00  0.00     0.043 C 
HETATM   11  C   UNL     1     -34.524  39.490 -53.868  1.00  0.00     0.018 C 
HETATM   12  C   UNL     1     -35.577  40.298 -53.084  1.00  0.00     0.065 C 
HETATM   13  C   UNL     1     -35.766  41.560 -53.887  1.00  0.00     0.082 C 
HETATM   14  N   UNL     1     -35.469  42.683 -53.321  1.00  0.00    -0.203 NA
HETATM   15  C   UNL     1     -35.328  40.957 -51.722  1.00  0.00     0.121 C 
HETATM   16  N   UNL     1     -35.015  42.362 -52.077  1.00  0.00    -0.207 NA
HETATM   17  C   UNL     1     -37.306  42.250 -58.543  1.00  0.00     0.031 A 
HETATM   18  C   UNL     1     -37.321  41.430 -59.674  1.00  0.00     0.009 A 
HETATM   19  H   UNL     1     -34.002  42.509 -52.043  1.00  0.00     0.149 HD
ENDROOT
BRANCH  15  20
HETATM   20  C   UNL     1     -34.436  40.346 -50.663  1.00  0.00    -0.038 A 
HETATM   21  C   UNL     1     -33.097  40.723 -50.509  1.00  0.00     0.011 A 
HETATM   22  C   UNL     1     -32.254  40.043 -49.620  1.00  0.00     0.037 A 
HETATM   23  C   UNL     1     -32.715  38.943 -48.895  1.00  0.00     0.068 A 
HETATM   24  C   UNL     1     -34.041  38.550 -49.038  1.00  0.00     0.037 A 
HETATM   25  C   UNL     1     -34.884  39.237 -49.917  1.00  0.00     0.011 A 
BRANCH  23  26
HETATM   26  O   UNL     1     -31.783  38.337 -48.099  1.00  0.00    -0.356 OA
HETATM   27  C   UNL     1     -31.088  39.180 -47.186  1.00  0.00     0.210 C 
ENDBRANCH  23  26
ENDBRANCH  15  20
TORSDOF 2
ENDMDL
MODEL 6
REMARK VINA RESULT:      -8.1      2.928      3.647
REMARK  2 active torsions:
REMARK  status: ('A' for Active; 'I' for Inactive)
REMARK    1  A    between atoms: C_15  and  C_16 
REMARK    2  A    between atoms: C_19  and  O_20 
ROOT
HETATM    1  C   UNL     1     -47.135  61.822 -52.051  1.00  0.00     0.048 C 
HETATM    2  C   UNL     1     -46.154  61.093 -52.922  1.00  0.00    -0.061 A 
HETATM    3  C   UNL     1     -45.579  59.881 -52.499  1.00  0.00     0.021 A 
HETATM    4  C   UNL     1     -44.648  59.219 -53.326  1.00  0.00    -0.000 A 
HETATM    5  C   UNL     1     -44.328  59.796 -54.563  1.00  0.00     0.043 A 
HETATM    6  N   UNL     1     -43.422  58.966 -55.186  1.00  0.00    -0.353 N 
HETATM    7  H   UNL     1     -43.027  59.110 -56.106  1.00  0.00     0.166 HD
HETATM    8  C   UNL     1     -43.112  57.933 -54.356  1.00  0.00     0.066 A 
HETATM    9  C   UNL     1     -43.890  58.018 -53.219  1.00  0.00    -0.017 A 
HETATM   10  C   UNL     1     -43.837  56.958 -52.151  1.00  0.00     0.043 C 
HETATM   11  C   UNL     1     -43.063  55.682 -52.634  1.00  0.00     0.018 C 
HETATM   12  C   UNL     1     -41.761  56.088 -53.354  1.00  0.00     0.065 C 
HETATM   13  C   UNL     1     -42.220  56.847 -54.574  1.00  0.00     0.082 C 
HETATM   14  N   UNL     1     -41.913  56.366 -55.733  1.00  0.00    -0.203 NA
HETATM   15  C   UNL     1     -40.820  55.108 -54.065  1.00  0.00     0.121 C 
HETATM   16  N   UNL     1     -41.233  55.212 -55.485  1.00  0.00    -0.207 NA
HETATM   17  C   UNL     1     -44.887  60.998 -55.004  1.00  0.00     0.031 A 
HETATM   18  C   UNL     1     -45.800  61.637 -54.161  1.00  0.00     0.009 A 
HETATM   19  H   UNL     1     -41.827  54.415 -55.731  1.00  0.00     0.149 HD
ENDROOT
BRANCH  15  20
HETATM   20  C   UNL     1     -40.568  53.702 -53.568  1.00  0.00    -0.038 A 
HETATM   21  C   UNL     1     -40.242  53.431 -52.234  1.00  0.00     0.011 A 
HETATM   22  C   UNL     1     -39.874  52.141 -51.829  1.00  0.00     0.037 A 
HETATM   23  C   UNL     1     -39.782  51.099 -52.753  1.00  0.00     0.068 A 
HETATM   24  C   UNL     1     -40.098  51.349 -54.084  1.00  0.00     0.037 A 
HETATM   25  C   UNL     1     -40.476  52.635 -54.484  1.00  0.00     0.011 A 
BRANCH  23  26
HETATM   26  O   UNL     1     -39.366  49.901 -52.241  1.00  0.00    -0.356 OA
HETATM   27  C   UNL     1     -39.539  49.719 -50.840  1.00  0.00     0.210 C 
ENDBRANCH  23  26
ENDBRANCH  15  20
TORSDOF 2
ENDMDL
MODEL 7
REMARK VINA RESULT:      -7.9      1.352      1.426
REMARK  2 active torsions:
REMARK  status: ('A' for Active; 'I' for Inactive)
REMARK    1  A    between atoms: C_15  and  C_16 
REMARK    2  A    between atoms: C_19  and  O_20 
ROOT
HETATM    1  C   UNL     1     -42.856  64.046 -49.779  1.00  0.00     0.048 C 
HETATM    2  C   UNL     1     -43.299  62.808 -50.503  1.00  0.00    -0.061 A 
HETATM    3  C   UNL     1     -42.507  61.644 -50.488  1.00  0.00     0.021 A 
HETATM    4  C   UNL     1     -42.934  60.496 -51.187  1.00  0.00    -0.000 A 
HETATM    5  C   UNL     1     -44.153  60.550 -51.875  1.00  0.00     0.043 A 
HETATM    6  N   UNL     1     -44.357  59.318 -52.457  1.00  0.00    -0.353 N 
HETATM    7  H   UNL     1     -45.168  59.050 -52.999  1.00  0.00     0.166 HD
HETATM    8  C   UNL     1     -43.280  58.522 -52.216  1.00  0.00     0.066 A 
HETATM    9  C   UNL     1     -42.401  59.190 -51.387  1.00  0.00    -0.017 A 
HETATM   10  C   UNL     1     -41.153  58.527 -50.869  1.00  0.00     0.043 C 
HETATM   11  C   UNL     1     -41.161  56.981 -51.136  1.00  0.00     0.018 C 
HETATM   12  C   UNL     1     -41.624  56.690 -52.578  1.00  0.00     0.065 C 
HETATM   13  C   UNL     1     -43.048  57.182 -52.629  1.00  0.00     0.082 C 
HETATM   14  N   UNL     1     -43.975  56.316 -52.878  1.00  0.00    -0.203 NA
HETATM   15  C   UNL     1     -41.871  55.287 -53.144  1.00  0.00     0.121 C 
HETATM   16  N   UNL     1     -43.337  55.119 -53.006  1.00  0.00    -0.207 NA
HETATM   17  C   UNL     1     -44.957  61.694 -51.903  1.00  0.00     0.031 A 
HETATM   18  C   UNL     1     -44.506  62.820 -51.210  1.00  0.00     0.009 A 
HETATM   19  H   UNL     1     -43.543  54.542 -52.185  1.00  0.00     0.149 HD
ENDROOT
BRANCH  15  20
HETATM   20  C   UNL     1     -41.044  54.083 -52.749  1.00  0.00    -0.038 A 
HETATM   21  C   UNL     1     -40.587  53.153 -53.689  1.00  0.00     0.011 A 
HETATM   22  C   UNL     1     -39.947  51.973 -53.284  1.00  0.00     0.037 A 
HETATM   23  C   UNL     1     -39.786  51.673 -51.931  1.00  0.00     0.068 A 
HETATM   24  C   UNL     1     -40.239  52.583 -50.982  1.00  0.00     0.037 A 
HETATM   25  C   UNL     1     -40.867  53.765 -51.387  1.00  0.00     0.011 A 
BRANCH  23  26
HETATM   26  O   UNL     1     -39.191  50.471 -51.667  1.00  0.00    -0.356 OA
HETATM   27  C   UNL     1     -39.485  49.409 -52.568  1.00  0.00     0.210 C 
ENDBRANCH  23  26
ENDBRANCH  15  20
TORSDOF 2
ENDMDL
MODEL 8
REMARK VINA RESULT:      -7.8      4.578      8.820
REMARK  2 active torsions:
REMARK  status: ('A' for Active; 'I' for Inactive)
REMARK    1  A    between atoms: C_15  and  C_16 
REMARK    2  A    between atoms: C_19  and  O_20 
ROOT
HETATM    1  C   UNL     1     -39.314  49.772 -53.947  1.00  0.00     0.048 C 
HETATM    2  C   UNL     1     -39.747  51.116 -53.438  1.00  0.00    -0.061 A 
HETATM    3  C   UNL     1     -40.370  52.042 -54.294  1.00  0.00     0.021 A 
HETATM    4  C   UNL     1     -40.755  53.306 -53.800  1.00  0.00    -0.000 A 
HETATM    5  C   UNL     1     -40.507  53.597 -52.452  1.00  0.00     0.043 A 
HETATM    6  N   UNL     1     -40.982  54.868 -52.207  1.00  0.00    -0.353 N 
HETATM    7  H   UNL     1     -40.964  55.340 -51.313  1.00  0.00     0.166 HD
HETATM    8  C   UNL     1     -41.450  55.404 -53.366  1.00  0.00     0.066 A 
HETATM    9  C   UNL     1     -41.382  54.454 -54.365  1.00  0.00    -0.017 A 
HETATM   10  C   UNL     1     -41.917  54.726 -55.745  1.00  0.00     0.043 C 
HETATM   11  C   UNL     1     -42.781  56.035 -55.788  1.00  0.00     0.018 C 
HETATM   12  C   UNL     1     -42.072  57.168 -55.020  1.00  0.00     0.065 C 
HETATM   13  C   UNL     1     -42.020  56.687 -53.592  1.00  0.00     0.082 C 
HETATM   14  N   UNL     1     -42.639  57.387 -52.699  1.00  0.00    -0.203 NA
HETATM   15  C   UNL     1     -42.682  58.548 -54.749  1.00  0.00     0.121 C 
HETATM   16  N   UNL     1     -43.220  58.418 -53.374  1.00  0.00    -0.207 NA
HETATM   17  C   UNL     1     -39.891  52.692 -51.583  1.00  0.00     0.031 A 
HETATM   18  C   UNL     1     -39.512  51.451 -52.101  1.00  0.00     0.009 A 
HETATM   19  H   UNL     1     -44.232  58.264 -53.412  1.00  0.00     0.149 HD
ENDROOT
BRANCH  15  20
HETATM   20  C   UNL     1     -43.592  59.252 -55.733  1.00  0.00    -0.038 A 
HETATM   21  C   UNL     1     -44.976  59.334 -55.540  1.00  0.00     0.011 A 
HETATM   22  C   UNL     1     -45.812  59.864 -56.532  1.00  0.00     0.037 A 
HETATM   23  C   UNL     1     -45.293  60.285 -57.757  1.00  0.00     0.068 A 
HETATM   24  C   UNL     1     -43.921  60.206 -57.970  1.00  0.00     0.037 A 
HETATM   25  C   UNL     1     -43.086  59.688 -56.974  1.00  0.00     0.011 A 
BRANCH  23  26
HETATM   26  O   UNL     1     -46.217  60.736 -58.658  1.00  0.00    -0.356 OA
HETATM   27  C   UNL     1     -45.962  60.440 -60.027  1.00  0.00     0.210 C 
ENDBRANCH  23  26
ENDBRANCH  15  20
TORSDOF 2
ENDMDL
MODEL 9
REMARK VINA RESULT:      -7.8     17.835     19.636
REMARK  2 active torsions:
REMARK  status: ('A' for Active; 'I' for Inactive)
REMARK    1  A    between atoms: C_15  and  C_16 
REMARK    2  A    between atoms: C_19  and  O_20 
ROOT
HETATM    1  C   UNL     1     -31.728  40.018 -50.789  1.00  0.00     0.048 C 
HETATM    2  C   UNL     1     -32.956  40.477 -51.519  1.00  0.00    -0.061 A 
HETATM    3  C   UNL     1     -33.260  39.980 -52.800  1.00  0.00     0.021 A 
HETATM    4  C   UNL     1     -34.411  40.436 -53.475  1.00  0.00    -0.000 A 
HETATM    5  C   UNL     1     -35.230  41.376 -52.835  1.00  0.00     0.043 A 
HETATM    6  N   UNL     1     -36.285  41.649 -53.678  1.00  0.00    -0.353 N 
HETATM    7  H   UNL     1     -37.054  42.275 -53.475  1.00  0.00     0.166 HD
HETATM    8  C   UNL     1     -36.118  40.970 -54.845  1.00  0.00     0.066 A 
HETATM    9  C   UNL     1     -35.002  40.163 -54.742  1.00  0.00    -0.017 A 
HETATM   10  C   UNL     1     -34.612  39.219 -55.848  1.00  0.00     0.043 C 
HETATM   11  C   UNL     1     -35.751  39.071 -56.916  1.00  0.00     0.018 C 
HETATM   12  C   UNL     1     -36.328  40.454 -57.278  1.00  0.00     0.065 C 
HETATM   13  C   UNL     1     -36.948  40.956 -55.999  1.00  0.00     0.082 C 
HETATM   14  N   UNL     1     -38.221  41.179 -55.994  1.00  0.00    -0.203 NA
HETATM   15  C   UNL     1     -37.537  40.679 -58.194  1.00  0.00     0.121 C 
HETATM   16  N   UNL     1     -38.659  40.842 -57.240  1.00  0.00    -0.207 NA
HETATM   17  C   UNL     1     -34.949  41.883 -51.563  1.00  0.00     0.031 A 
HETATM   18  C   UNL     1     -33.798  41.421 -50.921  1.00  0.00     0.009 A 
HETATM   19  H   UNL     1     -39.193  39.970 -57.182  1.00  0.00     0.149 HD
ENDROOT
BRANCH  15  20
HETATM   20  C   UNL     1     -37.833  39.806 -59.394  1.00  0.00    -0.038 A 
HETATM   21  C   UNL     1     -37.163  39.964 -60.613  1.00  0.00     0.011 A 
HETATM   22  C   UNL     1     -37.554  39.243 -61.749  1.00  0.00     0.037 A 
HETATM   23  C   UNL     1     -38.648  38.377 -61.708  1.00  0.00     0.068 A 
HETATM   24  C   UNL     1     -39.329  38.210 -60.507  1.00  0.00     0.037 A 
HETATM   25  C   UNL     1     -38.931  38.923 -59.371  1.00  0.00     0.011 A 
BRANCH  23  26
HETATM   26  O   UNL     1     -38.956  37.770 -62.893  1.00  0.00    -0.356 OA
HETATM   27  C   UNL     1     -40.340  37.563 -63.155  1.00  0.00     0.210 C 
ENDBRANCH  23  26
ENDBRANCH  15  20
TORSDOF 2
ENDMDL
MODEL 10
REMARK VINA RESULT:      -7.7      5.037      8.384
REMARK  2 active torsions:
REMARK  status: ('A' for Active; 'I' for Inactive)
REMARK    1  A    between atoms: C_15  and  C_16 
REMARK    2  A    between atoms: C_19  and  O_20 
ROOT
HETATM    1  C   UNL     1     -39.210  50.119 -51.215  1.00  0.00     0.048 C 
HETATM    2  C   UNL     1     -39.890  51.452 -51.325  1.00  0.00    -0.061 A 
HETATM    3  C   UNL     1     -40.169  52.014 -52.584  1.00  0.00     0.021 A 
HETATM    4  C   UNL     1     -40.795  53.275 -52.667  1.00  0.00    -0.000 A 
HETATM    5  C   UNL     1     -41.130  53.931 -51.474  1.00  0.00     0.043 A 
HETATM    6  N   UNL     1     -41.738  55.122 -51.812  1.00  0.00    -0.353 N 
HETATM    7  H   UNL     1     -42.111  55.798 -51.159  1.00  0.00     0.166 HD
HETATM    8  C   UNL     1     -41.730  55.264 -53.165  1.00  0.00     0.066 A 
HETATM    9  C   UNL     1     -41.208  54.121 -53.736  1.00  0.00    -0.017 A 
HETATM   10  C   UNL     1     -41.156  53.944 -55.230  1.00  0.00     0.043 C 
HETATM   11  C   UNL     1     -42.005  55.032 -55.976  1.00  0.00     0.018 C 
HETATM   12  C   UNL     1     -41.735  56.425 -55.374  1.00  0.00     0.065 C 
HETATM   13  C   UNL     1     -42.235  56.332 -53.955  1.00  0.00     0.082 C 
HETATM   14  N   UNL     1     -43.202  57.115 -53.605  1.00  0.00    -0.203 NA
HETATM   15  C   UNL     1     -42.484  57.703 -55.772  1.00  0.00     0.121 C 
HETATM   16  N   UNL     1     -43.522  57.829 -54.721  1.00  0.00    -0.207 NA
HETATM   17  C   UNL     1     -40.864  53.392 -50.213  1.00  0.00     0.031 A 
HETATM   18  C   UNL     1     -40.235  52.145 -50.160  1.00  0.00     0.009 A 
HETATM   19  H   UNL     1     -44.421  57.499 -55.082  1.00  0.00     0.149 HD
ENDROOT
BRANCH  15  20
HETATM   20  C   UNL     1     -42.959  57.973 -57.183  1.00  0.00    -0.038 A 
HETATM   21  C   UNL     1     -42.131  58.553 -58.150  1.00  0.00     0.011 A 
HETATM   22  C   UNL     1     -42.636  58.923 -59.403  1.00  0.00     0.037 A 
HETATM   23  C   UNL     1     -43.988  58.763 -59.708  1.00  0.00     0.068 A 
HETATM   24  C   UNL     1     -44.828  58.193 -58.758  1.00  0.00     0.037 A 
HETATM   25  C   UNL     1     -44.321  57.813 -57.511  1.00  0.00     0.011 A 
BRANCH  23  26
HETATM   26  O   UNL     1     -44.364  59.207 -60.944  1.00  0.00    -0.356 OA
HETATM   27  C   UNL     1     -43.684  60.357 -61.436  1.00  0.00     0.210 C 
ENDBRANCH  23  26
ENDBRANCH  15  20
TORSDOF 2
ENDMDL
