MODEL 1
REMARK VINA RESULT:      -7.8      0.000      0.000
REMARK  8 active torsions:
REMARK  status: ('A' for Active; 'I' for Inactive)
REMARK    1  A    between atoms: C_3  and  N_4 
REMARK       I    between atoms: N_4  and  C_5 
REMARK       I    between atoms: C_5  and  N_6 
REMARK       I    between atoms: N_6  and  C_7 
REMARK    2  A    between atoms: C_7  and  C_8 
REMARK    3  A    between atoms: C_8  and  N_9 
REMARK    4  A    between atoms: N_9  and  C_11 
REMARK    5  A    between atoms: N_9  and  C_17 
REMARK    6  A    between atoms: C_11  and  C_12 
REMARK    7  A    between atoms: C_17  and  C_18 
REMARK    8  A    between atoms: C_19  and  O_20 
ROOT
HETATM    1  N   UNL     1     -42.847  58.624 -57.494  1.00  0.00    -0.053 N 
HETATM    2  H   UNL     1     -42.082  59.045 -56.948  1.00  0.00     0.281 HD
ENDROOT
BRANCH   1   3
HETATM    3  C   UNL     1     -43.845  58.168 -56.432  1.00  0.00     0.338 C 
BRANCH   3   4
HETATM    4  C   UNL     1     -43.270  57.126 -55.474  1.00  0.00     0.251 C 
HETATM    5  N   UNL     1     -43.786  55.857 -55.634  1.00  0.00    -0.278 N 
HETATM    6  C   UNL     1     -43.251  54.669 -55.208  1.00  0.00     0.323 C 
HETATM    7  H   UNL     1     -44.452  55.675 -56.375  1.00  0.00     0.173 HD
HETATM    8  N   UNL     1     -42.260  54.746 -54.281  1.00  0.00    -0.338 N 
HETATM    9  O   UNL     1     -43.665  53.634 -55.719  1.00  0.00    -0.247 OA
HETATM   10  H   UNL     1     -42.077  55.656 -53.870  1.00  0.00     0.164 HD
HETATM   11  O   UNL     1     -42.444  57.456 -54.621  1.00  0.00    -0.271 OA
BRANCH   8  12
HETATM   12  C   UNL     1     -41.592  53.594 -53.676  1.00  0.00     0.089 C 
HETATM   13  C   UNL     1     -41.134  53.839 -52.218  1.00  0.00     0.004 C 
HETATM   14  C   UNL     1     -42.304  54.238 -51.313  1.00  0.00     0.012 C 
HETATM   15  C   UNL     1     -40.445  52.586 -51.650  1.00  0.00     0.006 C 
HETATM   16  C   UNL     1     -39.297  52.113 -52.538  1.00  0.00     0.001 C 
HETATM   17  C   UNL     1     -39.764  51.861 -53.968  1.00  0.00     0.002 C 
HETATM   18  C   UNL     1     -40.437  53.096 -54.558  1.00  0.00     0.026 C 
ENDBRANCH   8  12
ENDBRANCH   3   4
ENDBRANCH   1   3
BRANCH   1  19
HETATM   19  C   UNL     1     -42.190  57.504 -58.274  1.00  0.00     0.300 C 
BRANCH  19  20
HETATM   20  C   UNL     1     -43.114  56.694 -59.109  1.00  0.00     0.078 A 
HETATM   21  O   UNL     1     -43.439  55.456 -58.635  1.00  0.00    -0.325 OA
HETATM   22  C   UNL     1     -44.267  54.883 -59.547  1.00  0.00     0.142 A 
HETATM   23  C   UNL     1     -44.484  55.740 -60.599  1.00  0.00     0.027 A 
HETATM   24  C   UNL     1     -43.737  56.910 -60.321  1.00  0.00     0.036 A 
ENDBRANCH  19  20
ENDBRANCH   1  19
BRANCH   1  25
HETATM   25  C   UNL     1     -43.411  59.715 -58.370  1.00  0.00     0.277 C 
BRANCH  25  26
HETATM   26  C   UNL     1     -42.350  60.644 -58.888  1.00  0.00     0.001 A 
HETATM   27  C   UNL     1     -41.427  61.239 -58.020  1.00  0.00     0.073 A 
HETATM   28  C   UNL     1     -40.446  62.108 -58.493  1.00  0.00     0.037 A 
HETATM   29  C   UNL     1     -40.374  62.386 -59.856  1.00  0.00     0.003 A 
HETATM   30  C   UNL     1     -41.277  61.794 -60.739  1.00  0.00     0.001 A 
HETATM   31  C   UNL     1     -42.258  60.924 -60.259  1.00  0.00     0.011 A 
BRANCH  27  32
HETATM   32  O   UNL     1     -41.502  60.948 -56.687  1.00  0.00    -0.360 OA
HETATM   33  H   UNL     1     -40.657  61.213 -56.271  1.00  0.00     0.217 HD
ENDBRANCH  27  32
ENDBRANCH  25  26
ENDBRANCH   1  25
TORSDOF 8
ENDMDL
MODEL 2
REMARK VINA RESULT:      -7.7      2.209      4.411
REMARK  8 active torsions:
REMARK  status: ('A' for Active; 'I' for Inactive)
REMARK    1  A    between atoms: C_3  and  N_4 
REMARK       I    between atoms: N_4  and  C_5 
REMARK       I    between atoms: C_5  and  N_6 
REMARK       I    between atoms: N_6  and  C_7 
REMARK    2  A    between atoms: C_7  and  C_8 
REMARK    3  A    between atoms: C_8  and  N_9 
REMARK    4  A    between atoms: N_9  and  C_11 
REMARK    5  A    between atoms: N_9  and  C_17 
REMARK    6  A    between atoms: C_11  and  C_12 
REMARK    7  A    between atoms: C_17  and  C_18 
REMARK    8  A    between atoms: C_19  and  O_20 
ROOT
HETATM    1  N   UNL     1     -43.459  59.132 -55.586  1.00  0.00    -0.053 N 
HETATM    2  H   UNL     1     -43.783  58.157 -55.518  1.00  0.00     0.281 HD
ENDROOT
BRANCH   1   3
HETATM    3  C   UNL     1     -42.028  59.077 -55.055  1.00  0.00     0.338 C 
BRANCH   3   4
HETATM    4  C   UNL     1     -41.700  57.763 -54.347  1.00  0.00     0.251 C 
HETATM    5  N   UNL     1     -42.657  56.781 -54.492  1.00  0.00    -0.278 N 
HETATM    6  C   UNL     1     -42.515  55.431 -54.303  1.00  0.00     0.323 C 
HETATM    7  H   UNL     1     -43.468  56.953 -55.074  1.00  0.00     0.173 HD
HETATM    8  N   UNL     1     -41.410  55.024 -53.625  1.00  0.00    -0.338 N 
HETATM    9  O   UNL     1     -43.360  54.689 -54.793  1.00  0.00    -0.247 OA
HETATM   10  H   UNL     1     -40.840  55.744 -53.190  1.00  0.00     0.164 HD
HETATM   11  O   UNL     1     -40.669  57.659 -53.680  1.00  0.00    -0.271 OA
BRANCH   8  12
HETATM   12  C   UNL     1     -41.101  53.635 -53.290  1.00  0.00     0.089 C 
HETATM   13  C   UNL     1     -40.282  53.479 -51.985  1.00  0.00     0.004 C 
HETATM   14  C   UNL     1     -40.997  54.110 -50.785  1.00  0.00     0.012 C 
HETATM   15  C   UNL     1     -39.999  51.995 -51.698  1.00  0.00     0.006 C 
HETATM   16  C   UNL     1     -39.328  51.301 -52.881  1.00  0.00     0.001 C 
HETATM   17  C   UNL     1     -40.151  51.449 -54.155  1.00  0.00     0.002 C 
HETATM   18  C   UNL     1     -40.431  52.915 -54.470  1.00  0.00     0.026 C 
ENDBRANCH   8  12
ENDBRANCH   3   4
ENDBRANCH   1   3
BRANCH   1  19
HETATM   19  C   UNL     1     -44.427  59.920 -54.730  1.00  0.00     0.300 C 
BRANCH  19  20
HETATM   20  C   UNL     1     -44.508  59.487 -53.311  1.00  0.00     0.078 A 
HETATM   21  O   UNL     1     -44.905  58.200 -53.088  1.00  0.00    -0.325 OA
HETATM   22  C   UNL     1     -44.931  58.016 -51.743  1.00  0.00     0.142 A 
HETATM   23  C   UNL     1     -44.550  59.168 -51.097  1.00  0.00     0.027 A 
HETATM   24  C   UNL     1     -44.280  60.122 -52.108  1.00  0.00     0.036 A 
ENDBRANCH  19  20
ENDBRANCH   1  19
BRANCH   1  25
HETATM   25  C   UNL     1     -43.506  59.507 -57.046  1.00  0.00     0.277 C 
BRANCH  25  26
HETATM   26  C   UNL     1     -43.169  58.354 -57.949  1.00  0.00     0.001 A 
HETATM   27  C   UNL     1     -43.749  57.095 -57.756  1.00  0.00     0.073 A 
HETATM   28  C   UNL     1     -43.436  56.020 -58.584  1.00  0.00     0.037 A 
HETATM   29  C   UNL     1     -42.533  56.199 -59.629  1.00  0.00     0.003 A 
HETATM   30  C   UNL     1     -41.952  57.448 -59.846  1.00  0.00     0.001 A 
HETATM   31  C   UNL     1     -42.270  58.522 -59.012  1.00  0.00     0.011 A 
BRANCH  27  32
HETATM   32  O   UNL     1     -44.642  56.937 -56.734  1.00  0.00    -0.360 OA
HETATM   33  H   UNL     1     -44.138  56.853 -55.900  1.00  0.00     0.217 HD
ENDBRANCH  27  32
ENDBRANCH  25  26
ENDBRANCH   1  25
TORSDOF 8
ENDMDL
MODEL 3
REMARK VINA RESULT:      -7.7      4.784      6.908
REMARK  8 active torsions:
REMARK  status: ('A' for Active; 'I' for Inactive)
REMARK    1  A    between atoms: C_3  and  N_4 
REMARK       I    between atoms: N_4  and  C_5 
REMARK       I    between atoms: C_5  and  N_6 
REMARK       I    between atoms: N_6  and  C_7 
REMARK    2  A    between atoms: C_7  and  C_8 
REMARK    3  A    between atoms: C_8  and  N_9 
REMARK    4  A    between atoms: N_9  and  C_11 
REMARK    5  A    between atoms: N_9  and  C_17 
REMARK    6  A    between atoms: C_11  and  C_12 
REMARK    7  A    between atoms: C_17  and  C_18 
REMARK    8  A    between atoms: C_19  and  O_20 
ROOT
HETATM    1  N   UNL     1     -44.221  59.182 -52.526  1.00  0.00    -0.053 N 
HETATM    2  H   UNL     1     -44.037  58.722 -51.623  1.00  0.00     0.281 HD
ENDROOT
BRANCH   1   3
HETATM    3  C   UNL     1     -44.467  58.019 -53.485  1.00  0.00     0.338 C 
BRANCH   3   4
HETATM    4  C   UNL     1     -43.439  56.897 -53.344  1.00  0.00     0.251 C 
HETATM    5  N   UNL     1     -43.722  55.984 -52.351  1.00  0.00    -0.278 N 
HETATM    6  C   UNL     1     -43.227  54.714 -52.207  1.00  0.00     0.323 C 
HETATM    7  H   UNL     1     -44.581  56.069 -51.821  1.00  0.00     0.173 HD
HETATM    8  N   UNL     1     -42.126  54.404 -52.940  1.00  0.00    -0.338 N 
HETATM    9  O   UNL     1     -43.830  53.940 -51.471  1.00  0.00    -0.247 OA
HETATM   10  H   UNL     1     -41.668  55.163 -53.435  1.00  0.00     0.164 HD
HETATM   11  O   UNL     1     -42.436  56.882 -54.060  1.00  0.00    -0.271 OA
BRANCH   8  12
HETATM   12  C   UNL     1     -41.429  53.119 -52.896  1.00  0.00     0.089 C 
HETATM   13  C   UNL     1     -40.156  53.134 -52.015  1.00  0.00     0.004 C 
HETATM   14  C   UNL     1     -40.464  53.556 -50.575  1.00  0.00     0.012 C 
HETATM   15  C   UNL     1     -39.481  51.752 -52.016  1.00  0.00     0.006 C 
HETATM   16  C   UNL     1     -39.192  51.257 -53.431  1.00  0.00     0.001 C 
HETATM   17  C   UNL     1     -40.456  51.233 -54.283  1.00  0.00     0.002 C 
HETATM   18  C   UNL     1     -41.134  52.598 -54.311  1.00  0.00     0.026 C 
ENDBRANCH   8  12
ENDBRANCH   3   4
ENDBRANCH   1   3
BRANCH   1  19
HETATM   19  C   UNL     1     -42.970  59.988 -52.808  1.00  0.00     0.300 C 
BRANCH  19  20
HETATM   20  C   UNL     1     -41.877  59.818 -51.817  1.00  0.00     0.078 A 
HETATM   21  O   UNL     1     -40.675  59.387 -52.302  1.00  0.00    -0.325 OA
HETATM   22  C   UNL     1     -39.831  59.282 -51.243  1.00  0.00     0.142 A 
HETATM   23  C   UNL     1     -40.473  59.645 -50.083  1.00  0.00     0.027 A 
HETATM   24  C   UNL     1     -41.796  59.989 -50.451  1.00  0.00     0.036 A 
ENDBRANCH  19  20
ENDBRANCH   1  19
BRANCH   1  25
HETATM   25  C   UNL     1     -45.453  60.032 -52.340  1.00  0.00     0.277 C 
BRANCH  25  26
HETATM   26  C   UNL     1     -45.416  60.831 -51.068  1.00  0.00     0.001 A 
HETATM   27  C   UNL     1     -45.453  60.199 -49.820  1.00  0.00     0.073 A 
HETATM   28  C   UNL     1     -45.426  60.934 -48.636  1.00  0.00     0.037 A 
HETATM   29  C   UNL     1     -45.355  62.324 -48.693  1.00  0.00     0.003 A 
HETATM   30  C   UNL     1     -45.306  62.972 -49.926  1.00  0.00     0.001 A 
HETATM   31  C   UNL     1     -45.333  62.230 -51.109  1.00  0.00     0.011 A 
BRANCH  27  32
HETATM   32  O   UNL     1     -45.511  58.834 -49.779  1.00  0.00    -0.360 OA
HETATM   33  H   UNL     1     -46.427  58.576 -49.555  1.00  0.00     0.217 HD
ENDBRANCH  27  32
ENDBRANCH  25  26
ENDBRANCH   1  25
TORSDOF 8
ENDMDL
MODEL 4
REMARK VINA RESULT:      -7.7      2.208      3.382
REMARK  8 active torsions:
REMARK  status: ('A' for Active; 'I' for Inactive)
REMARK    1  A    between atoms: C_3  and  N_4 
REMARK       I    between atoms: N_4  and  C_5 
REMARK       I    between atoms: C_5  and  N_6 
REMARK       I    between atoms: N_6  and  C_7 
REMARK    2  A    between atoms: C_7  and  C_8 
REMARK    3  A    between atoms: C_8  and  N_9 
REMARK    4  A    between atoms: N_9  and  C_11 
REMARK    5  A    between atoms: N_9  and  C_17 
REMARK    6  A    between atoms: C_11  and  C_12 
REMARK    7  A    between atoms: C_17  and  C_18 
REMARK    8  A    between atoms: C_19  and  O_20 
ROOT
HETATM    1  N   UNL     1     -43.594  58.794 -55.728  1.00  0.00    -0.053 N 
HETATM    2  H   UNL     1     -44.170  57.954 -55.876  1.00  0.00     0.281 HD
ENDROOT
BRANCH   1   3
HETATM    3  C   UNL     1     -43.386  58.831 -54.215  1.00  0.00     0.338 C 
BRANCH   3   4
HETATM    4  C   UNL     1     -42.786  57.541 -53.658  1.00  0.00     0.251 C 
HETATM    5  N   UNL     1     -43.587  56.428 -53.808  1.00  0.00    -0.278 N 
HETATM    6  C   UNL     1     -43.216  55.109 -53.754  1.00  0.00     0.323 C 
HETATM    7  H   UNL     1     -44.469  56.506 -54.300  1.00  0.00     0.173 HD
HETATM    8  N   UNL     1     -41.999  54.841 -53.212  1.00  0.00    -0.338 N 
HETATM    9  O   UNL     1     -43.978  54.276 -54.233  1.00  0.00    -0.247 OA
HETATM   10  H   UNL     1     -41.508  55.610 -52.766  1.00  0.00     0.164 HD
HETATM   11  O   UNL     1     -41.690  57.559 -53.096  1.00  0.00    -0.271 OA
BRANCH   8  12
HETATM   12  C   UNL     1     -41.442  53.501 -53.031  1.00  0.00     0.089 C 
HETATM   13  C   UNL     1     -40.440  53.400 -51.856  1.00  0.00     0.004 C 
HETATM   14  C   UNL     1     -41.071  53.836 -50.529  1.00  0.00     0.012 C 
HETATM   15  C   UNL     1     -39.901  51.965 -51.726  1.00  0.00     0.006 C 
HETATM   16  C   UNL     1     -39.302  51.458 -53.035  1.00  0.00     0.001 C 
HETATM   17  C   UNL     1     -40.304  51.549 -54.181  1.00  0.00     0.002 C 
HETATM   18  C   UNL     1     -40.840  52.968 -54.340  1.00  0.00     0.026 C 
ENDBRANCH   8  12
ENDBRANCH   3   4
ENDBRANCH   1   3
BRANCH   1  19
HETATM   19  C   UNL     1     -44.423  59.932 -56.285  1.00  0.00     0.300 C 
BRANCH  19  20
HETATM   20  C   UNL     1     -45.623  59.516 -57.055  1.00  0.00     0.078 A 
HETATM   21  O   UNL     1     -46.101  58.261 -56.810  1.00  0.00    -0.325 OA
HETATM   22  C   UNL     1     -47.176  58.077 -57.620  1.00  0.00     0.142 A 
HETATM   23  C   UNL     1     -47.399  59.200 -58.380  1.00  0.00     0.027 A 
HETATM   24  C   UNL     1     -46.395  60.131 -58.019  1.00  0.00     0.036 A 
ENDBRANCH  19  20
ENDBRANCH   1  19
BRANCH   1  25
HETATM   25  C   UNL     1     -42.300  58.574 -56.471  1.00  0.00     0.277 C 
BRANCH  25  26
HETATM   26  C   UNL     1     -42.504  57.882 -57.789  1.00  0.00     0.001 A 
HETATM   27  C   UNL     1     -43.251  56.702 -57.876  1.00  0.00     0.073 A 
HETATM   28  C   UNL     1     -43.437  56.052 -59.093  1.00  0.00     0.037 A 
HETATM   29  C   UNL     1     -42.876  56.587 -60.250  1.00  0.00     0.003 A 
HETATM   30  C   UNL     1     -42.137  57.768 -60.187  1.00  0.00     0.001 A 
HETATM   31  C   UNL     1     -41.954  58.415 -58.964  1.00  0.00     0.011 A 
BRANCH  27  32
HETATM   32  O   UNL     1     -43.806  56.195 -56.734  1.00  0.00    -0.360 OA
HETATM   33  H   UNL     1     -44.003  56.942 -56.135  1.00  0.00     0.217 HD
ENDBRANCH  27  32
ENDBRANCH  25  26
ENDBRANCH   1  25
TORSDOF 8
ENDMDL
MODEL 5
REMARK VINA RESULT:      -7.5      5.605      8.066
REMARK  8 active torsions:
REMARK  status: ('A' for Active; 'I' for Inactive)
REMARK    1  A    between atoms: C_3  and  N_4 
REMARK       I    between atoms: N_4  and  C_5 
REMARK       I    between atoms: C_5  and  N_6 
REMARK       I    between atoms: N_6  and  C_7 
REMARK    2  A    between atoms: C_7  and  C_8 
REMARK    3  A    between atoms: C_8  and  N_9 
REMARK    4  A    between atoms: N_9  and  C_11 
REMARK    5  A    between atoms: N_9  and  C_17 
REMARK    6  A    between atoms: C_11  and  C_12 
REMARK    7  A    between atoms: C_17  and  C_18 
REMARK    8  A    between atoms: C_19  and  O_20 
ROOT
HETATM    1  N   UNL     1     -44.774  60.649 -50.813  1.00  0.00    -0.053 N 
HETATM    2  H   UNL     1     -44.511  59.951 -50.103  1.00  0.00     0.281 HD
ENDROOT
BRANCH   1   3
HETATM    3  C   UNL     1     -45.470  59.823 -51.893  1.00  0.00     0.338 C 
BRANCH   3   4
HETATM    4  C   UNL     1     -44.965  58.383 -51.968  1.00  0.00     0.251 C 
HETATM    5  N   UNL     1     -44.346  58.056 -53.156  1.00  0.00    -0.278 N 
HETATM    6  C   UNL     1     -43.494  57.010 -53.403  1.00  0.00     0.323 C 
HETATM    7  H   UNL     1     -44.218  58.765 -53.868  1.00  0.00     0.173 HD
HETATM    8  N   UNL     1     -43.470  56.015 -52.478  1.00  0.00    -0.338 N 
HETATM    9  O   UNL     1     -42.790  57.065 -54.405  1.00  0.00    -0.247 OA
HETATM   10  H   UNL     1     -44.171  56.043 -51.745  1.00  0.00     0.164 HD
HETATM   11  O   UNL     1     -45.159  57.609 -51.029  1.00  0.00    -0.271 OA
BRANCH   8  12
HETATM   12  C   UNL     1     -42.660  54.801 -52.580  1.00  0.00     0.089 C 
HETATM   13  C   UNL     1     -41.233  54.958 -52.001  1.00  0.00     0.004 C 
HETATM   14  C   UNL     1     -41.259  55.391 -50.530  1.00  0.00     0.012 C 
HETATM   15  C   UNL     1     -40.445  53.645 -52.140  1.00  0.00     0.006 C 
HETATM   16  C   UNL     1     -40.425  53.139 -53.580  1.00  0.00     0.001 C 
HETATM   17  C   UNL     1     -41.836  52.975 -54.134  1.00  0.00     0.002 C 
HETATM   18  C   UNL     1     -42.632  54.271 -54.021  1.00  0.00     0.026 C 
ENDBRANCH   8  12
ENDBRANCH   3   4
ENDBRANCH   1   3
BRANCH   1  19
HETATM   19  C   UNL     1     -43.465  61.280 -51.236  1.00  0.00     0.300 C 
BRANCH  19  20
HETATM   20  C   UNL     1     -42.281  60.385 -51.156  1.00  0.00     0.078 A 
HETATM   21  O   UNL     1     -41.811  59.887 -52.337  1.00  0.00    -0.325 OA
HETATM   22  C   UNL     1     -40.752  59.089 -52.041  1.00  0.00     0.142 A 
HETATM   23  C   UNL     1     -40.531  59.072 -50.685  1.00  0.00     0.027 A 
HETATM   24  C   UNL     1     -41.521  59.906 -50.109  1.00  0.00     0.036 A 
ENDBRANCH  19  20
ENDBRANCH   1  19
BRANCH   1  25
HETATM   25  C   UNL     1     -45.719  61.617 -50.145  1.00  0.00     0.277 C 
BRANCH  25  26
HETATM   26  C   UNL     1     -45.524  61.677 -48.656  1.00  0.00     0.001 A 
HETATM   27  C   UNL     1     -45.678  60.534 -47.863  1.00  0.00     0.073 A 
HETATM   28  C   UNL     1     -45.507  60.584 -46.482  1.00  0.00     0.037 A 
HETATM   29  C   UNL     1     -45.170  61.792 -45.875  1.00  0.00     0.003 A 
HETATM   30  C   UNL     1     -45.002  62.939 -46.648  1.00  0.00     0.001 A 
HETATM   31  C   UNL     1     -45.175  62.883 -48.033  1.00  0.00     0.011 A 
BRANCH  27  32
HETATM   32  O   UNL     1     -45.996  59.353 -48.473  1.00  0.00    -0.360 OA
HETATM   33  H   UNL     1     -46.944  59.174 -48.312  1.00  0.00     0.217 HD
ENDBRANCH  27  32
ENDBRANCH  25  26
ENDBRANCH   1  25
TORSDOF 8
ENDMDL
MODEL 6
REMARK VINA RESULT:      -7.4      2.726      8.579
REMARK  8 active torsions:
REMARK  status: ('A' for Active; 'I' for Inactive)
REMARK    1  A    between atoms: C_3  and  N_4 
REMARK       I    between atoms: N_4  and  C_5 
REMARK       I    between atoms: C_5  and  N_6 
REMARK       I    between atoms: N_6  and  C_7 
REMARK    2  A    between atoms: C_7  and  C_8 
REMARK    3  A    between atoms: C_8  and  N_9 
REMARK    4  A    between atoms: N_9  and  C_11 
REMARK    5  A    between atoms: N_9  and  C_17 
REMARK    6  A    between atoms: C_11  and  C_12 
REMARK    7  A    between atoms: C_17  and  C_18 
REMARK    8  A    between atoms: C_19  and  O_20 
ROOT
HETATM    1  N   UNL     1     -41.814  55.702 -52.907  1.00  0.00    -0.053 N 
HETATM    2  H   UNL     1     -40.997  55.721 -52.280  1.00  0.00     0.281 HD
ENDROOT
BRANCH   1   3
HETATM    3  C   UNL     1     -41.225  56.012 -54.282  1.00  0.00     0.338 C 
BRANCH   3   4
HETATM    4  C   UNL     1     -42.285  56.162 -55.372  1.00  0.00     0.251 C 
HETATM    5  N   UNL     1     -42.020  57.151 -56.295  1.00  0.00    -0.278 N 
HETATM    6  C   UNL     1     -42.553  57.298 -57.550  1.00  0.00     0.323 C 
HETATM    7  H   UNL     1     -41.153  57.672 -56.238  1.00  0.00     0.173 HD
HETATM    8  N   UNL     1     -43.671  56.577 -57.823  1.00  0.00    -0.338 N 
HETATM    9  O   UNL     1     -41.966  58.026 -58.343  1.00  0.00    -0.247 OA
HETATM   10  H   UNL     1     -44.111  56.087 -57.050  1.00  0.00     0.164 HD
HETATM   11  O   UNL     1     -43.295  55.457 -55.354  1.00  0.00    -0.271 OA
BRANCH   8  12
HETATM   12  C   UNL     1     -44.407  56.626 -59.086  1.00  0.00     0.089 C 
HETATM   13  C   UNL     1     -45.806  57.277 -58.963  1.00  0.00     0.004 C 
HETATM   14  C   UNL     1     -45.724  58.702 -58.405  1.00  0.00     0.012 C 
HETATM   15  C   UNL     1     -46.517  57.296 -60.327  1.00  0.00     0.006 C 
HETATM   16  C   UNL     1     -46.585  55.907 -60.955  1.00  0.00     0.001 C 
HETATM   17  C   UNL     1     -45.201  55.282 -61.085  1.00  0.00     0.002 C 
HETATM   18  C   UNL     1     -44.483  55.238 -59.740  1.00  0.00     0.026 C 
ENDBRANCH   8  12
ENDBRANCH   3   4
ENDBRANCH   1   3
BRANCH   1  19
HETATM   19  C   UNL     1     -42.744  56.764 -52.359  1.00  0.00     0.300 C 
BRANCH  19  20
HETATM   20  C   UNL     1     -42.068  57.914 -51.704  1.00  0.00     0.078 A 
HETATM   21  O   UNL     1     -40.838  57.672 -51.164  1.00  0.00    -0.325 OA
HETATM   22  C   UNL     1     -40.410  58.834 -50.606  1.00  0.00     0.142 A 
HETATM   23  C   UNL     1     -41.348  59.823 -50.785  1.00  0.00     0.027 A 
HETATM   24  C   UNL     1     -42.422  59.230 -51.491  1.00  0.00     0.036 A 
ENDBRANCH  19  20
ENDBRANCH   1  19
BRANCH   1  25
HETATM   25  C   UNL     1     -42.387  54.309 -52.839  1.00  0.00     0.277 C 
BRANCH  25  26
HETATM   26  C   UNL     1     -41.335  53.246 -52.977  1.00  0.00     0.001 A 
HETATM   27  C   UNL     1     -40.422  52.997 -51.946  1.00  0.00     0.073 A 
HETATM   28  C   UNL     1     -39.439  52.018 -52.071  1.00  0.00     0.037 A 
HETATM   29  C   UNL     1     -39.364  51.265 -53.241  1.00  0.00     0.003 A 
HETATM   30  C   UNL     1     -40.271  51.490 -54.275  1.00  0.00     0.001 A 
HETATM   31  C   UNL     1     -41.254  52.472 -54.145  1.00  0.00     0.011 A 
BRANCH  27  32
HETATM   32  O   UNL     1     -40.515  53.735 -50.799  1.00  0.00    -0.360 OA
HETATM   33  H   UNL     1     -41.148  54.463 -50.957  1.00  0.00     0.217 HD
ENDBRANCH  27  32
ENDBRANCH  25  26
ENDBRANCH   1  25
TORSDOF 8
ENDMDL
MODEL 7
REMARK VINA RESULT:      -7.3      2.883      4.390
REMARK  8 active torsions:
REMARK  status: ('A' for Active; 'I' for Inactive)
REMARK    1  A    between atoms: C_3  and  N_4 
REMARK       I    between atoms: N_4  and  C_5 
REMARK       I    between atoms: C_5  and  N_6 
REMARK       I    between atoms: N_6  and  C_7 
REMARK    2  A    between atoms: C_7  and  C_8 
REMARK    3  A    between atoms: C_8  and  N_9 
REMARK    4  A    between atoms: N_9  and  C_11 
REMARK    5  A    between atoms: N_9  and  C_17 
REMARK    6  A    between atoms: C_11  and  C_12 
REMARK    7  A    between atoms: C_17  and  C_18 
REMARK    8  A    between atoms: C_19  and  O_20 
ROOT
HETATM    1  N   UNL     1     -43.315  59.659 -54.974  1.00  0.00    -0.053 N 
HETATM    2  H   UNL     1     -42.474  59.068 -55.041  1.00  0.00     0.281 HD
ENDROOT
BRANCH   1   3
HETATM    3  C   UNL     1     -44.330  58.768 -54.261  1.00  0.00     0.338 C 
BRANCH   3   4
HETATM    4  C   UNL     1     -43.880  57.312 -54.152  1.00  0.00     0.251 C 
HETATM    5  N   UNL     1     -42.550  57.102 -54.449  1.00  0.00    -0.278 N 
HETATM    6  C   UNL     1     -41.770  56.026 -54.111  1.00  0.00     0.323 C 
HETATM    7  H   UNL     1     -41.953  57.890 -54.666  1.00  0.00     0.173 HD
HETATM    8  N   UNL     1     -42.423  54.910 -53.693  1.00  0.00    -0.338 N 
HETATM    9  O   UNL     1     -40.553  56.157 -54.165  1.00  0.00    -0.247 OA
HETATM   10  H   UNL     1     -43.434  54.899 -53.786  1.00  0.00     0.164 HD
HETATM   11  O   UNL     1     -44.692  56.433 -53.859  1.00  0.00    -0.271 OA
BRANCH   8  12
HETATM   12  C   UNL     1     -41.774  53.651 -53.326  1.00  0.00     0.089 C 
HETATM   13  C   UNL     1     -40.855  53.766 -52.086  1.00  0.00     0.004 C 
HETATM   14  C   UNL     1     -41.614  54.285 -50.860  1.00  0.00     0.012 C 
HETATM   15  C   UNL     1     -40.212  52.407 -51.761  1.00  0.00     0.006 C 
HETATM   16  C   UNL     1     -39.480  51.818 -52.964  1.00  0.00     0.001 C 
HETATM   17  C   UNL     1     -40.400  51.696 -54.173  1.00  0.00     0.002 C 
HETATM   18  C   UNL     1     -41.036  53.037 -54.525  1.00  0.00     0.026 C 
ENDBRANCH   8  12
ENDBRANCH   3   4
ENDBRANCH   1   3
BRANCH   1  19
HETATM   19  C   UNL     1     -43.662  59.999 -56.408  1.00  0.00     0.300 C 
BRANCH  19  20
HETATM   20  C   UNL     1     -43.016  59.138 -57.432  1.00  0.00     0.078 A 
HETATM   21  O   UNL     1     -43.427  57.837 -57.482  1.00  0.00    -0.325 OA
HETATM   22  C   UNL     1     -42.708  57.227 -58.460  1.00  0.00     0.142 A 
HETATM   23  C   UNL     1     -41.842  58.122 -59.044  1.00  0.00     0.027 A 
HETATM   24  C   UNL     1     -42.037  59.357 -58.378  1.00  0.00     0.036 A 
ENDBRANCH  19  20
ENDBRANCH   1  19
BRANCH   1  25
HETATM   25  C   UNL     1     -42.939  60.863 -54.146  1.00  0.00     0.277 C 
BRANCH  25  26
HETATM   26  C   UNL     1     -42.392  60.487 -52.798  1.00  0.00     0.001 A 
HETATM   27  C   UNL     1     -41.250  59.686 -52.682  1.00  0.00     0.073 A 
HETATM   28  C   UNL     1     -40.742  59.327 -51.435  1.00  0.00     0.037 A 
HETATM   29  C   UNL     1     -41.377  59.778 -50.280  1.00  0.00     0.003 A 
HETATM   30  C   UNL     1     -42.509  60.586 -50.374  1.00  0.00     0.001 A 
HETATM   31  C   UNL     1     -43.014  60.942 -51.626  1.00  0.00     0.011 A 
BRANCH  27  32
HETATM   32  O   UNL     1     -40.631  59.261 -53.824  1.00  0.00    -0.360 OA
HETATM   33  H   UNL     1     -40.112  58.461 -53.607  1.00  0.00     0.217 HD
ENDBRANCH  27  32
ENDBRANCH  25  26
ENDBRANCH   1  25
TORSDOF 8
ENDMDL
MODEL 8
REMARK VINA RESULT:      -7.3      1.152      2.023
REMARK  8 active torsions:
REMARK  status: ('A' for Active; 'I' for Inactive)
REMARK    1  A    between atoms: C_3  and  N_4 
REMARK       I    between atoms: N_4  and  C_5 
REMARK       I    between atoms: C_5  and  N_6 
REMARK       I    between atoms: N_6  and  C_7 
REMARK    2  A    between atoms: C_7  and  C_8 
REMARK    3  A    between atoms: C_8  and  N_9 
REMARK    4  A    between atoms: N_9  and  C_11 
REMARK    5  A    between atoms: N_9  and  C_17 
REMARK    6  A    between atoms: C_11  and  C_12 
REMARK    7  A    between atoms: C_17  and  C_18 
REMARK    8  A    between atoms: C_19  and  O_20 
ROOT
HETATM    1  N   UNL     1     -42.956  58.113 -57.640  1.00  0.00    -0.053 N 
HETATM    2  H   UNL     1     -42.088  58.346 -57.137  1.00  0.00     0.281 HD
ENDROOT
BRANCH   1   3
HETATM    3  C   UNL     1     -43.785  57.357 -56.604  1.00  0.00     0.338 C 
BRANCH   3   4
HETATM    4  C   UNL     1     -42.958  56.378 -55.771  1.00  0.00     0.251 C 
HETATM    5  N   UNL     1     -41.876  56.945 -55.130  1.00  0.00    -0.278 N 
HETATM    6  C   UNL     1     -41.175  56.449 -54.062  1.00  0.00     0.323 C 
HETATM    7  H   UNL     1     -41.718  57.942 -55.199  1.00  0.00     0.173 HD
HETATM    8  N   UNL     1     -41.360  55.136 -53.769  1.00  0.00    -0.338 N 
HETATM    9  O   UNL     1     -40.473  57.226 -53.424  1.00  0.00    -0.247 OA
HETATM   10  H   UNL     1     -41.893  54.581 -54.432  1.00  0.00     0.164 HD
HETATM   11  O   UNL     1     -43.257  55.183 -55.743  1.00  0.00    -0.271 OA
BRANCH   8  12
HETATM   12  C   UNL     1     -40.677  54.415 -52.695  1.00  0.00     0.089 C 
HETATM   13  C   UNL     1     -40.663  52.880 -52.890  1.00  0.00     0.004 C 
HETATM   14  C   UNL     1     -40.014  52.479 -54.219  1.00  0.00     0.012 C 
HETATM   15  C   UNL     1     -39.926  52.193 -51.727  1.00  0.00     0.006 C 
HETATM   16  C   UNL     1     -40.500  52.593 -50.370  1.00  0.00     0.001 C 
HETATM   17  C   UNL     1     -40.495  54.106 -50.185  1.00  0.00     0.002 C 
HETATM   18  C   UNL     1     -41.235  54.809 -51.319  1.00  0.00     0.026 C 
ENDBRANCH   8  12
ENDBRANCH   3   4
ENDBRANCH   1   3
BRANCH   1  19
HETATM   19  C   UNL     1     -42.504  57.284 -58.823  1.00  0.00     0.300 C 
BRANCH  19  20
HETATM   20  C   UNL     1     -43.575  56.492 -59.482  1.00  0.00     0.078 A 
HETATM   21  O   UNL     1     -43.572  55.147 -59.248  1.00  0.00    -0.325 OA
HETATM   22  C   UNL     1     -44.607  54.616 -59.949  1.00  0.00     0.142 A 
HETATM   23  C   UNL     1     -45.280  55.604 -60.627  1.00  0.00     0.027 A 
HETATM   24  C   UNL     1     -44.613  56.818 -60.330  1.00  0.00     0.036 A 
ENDBRANCH  19  20
ENDBRANCH   1  19
BRANCH   1  25
HETATM   25  C   UNL     1     -43.598  59.420 -58.033  1.00  0.00     0.277 C 
BRANCH  25  26
HETATM   26  C   UNL     1     -42.618  60.382 -58.643  1.00  0.00     0.001 A 
HETATM   27  C   UNL     1     -41.601  60.960 -57.874  1.00  0.00     0.073 A 
HETATM   28  C   UNL     1     -40.694  61.858 -58.432  1.00  0.00     0.037 A 
HETATM   29  C   UNL     1     -40.794  62.186 -59.782  1.00  0.00     0.003 A 
HETATM   30  C   UNL     1     -41.793  61.613 -60.568  1.00  0.00     0.001 A 
HETATM   31  C   UNL     1     -42.700  60.713 -60.004  1.00  0.00     0.011 A 
BRANCH  27  32
HETATM   32  O   UNL     1     -41.507  60.620 -56.554  1.00  0.00    -0.360 OA
HETATM   33  H   UNL     1     -42.057  59.825 -56.406  1.00  0.00     0.217 HD
ENDBRANCH  27  32
ENDBRANCH  25  26
ENDBRANCH   1  25
TORSDOF 8
ENDMDL
MODEL 9
REMARK VINA RESULT:      -7.3      2.796      8.695
REMARK  8 active torsions:
REMARK  status: ('A' for Active; 'I' for Inactive)
REMARK    1  A    between atoms: C_3  and  N_4 
REMARK       I    between atoms: N_4  and  C_5 
REMARK       I    between atoms: C_5  and  N_6 
REMARK       I    between atoms: N_6  and  C_7 
REMARK    2  A    between atoms: C_7  and  C_8 
REMARK    3  A    between atoms: C_8  and  N_9 
REMARK    4  A    between atoms: N_9  and  C_11 
REMARK    5  A    between atoms: N_9  and  C_17 
REMARK    6  A    between atoms: C_11  and  C_12 
REMARK    7  A    between atoms: C_17  and  C_18 
REMARK    8  A    between atoms: C_19  and  O_20 
ROOT
HETATM    1  N   UNL     1     -41.732  55.914 -52.628  1.00  0.00    -0.053 N 
HETATM    2  H   UNL     1     -41.036  55.708 -51.898  1.00  0.00     0.281 HD
ENDROOT
BRANCH   1   3
HETATM    3  C   UNL     1     -40.900  56.496 -53.769  1.00  0.00     0.338 C 
BRANCH   3   4
HETATM    4  C   UNL     1     -41.751  57.058 -54.907  1.00  0.00     0.251 C 
HETATM    5  N   UNL     1     -41.962  56.180 -55.950  1.00  0.00    -0.278 N 
HETATM    6  C   UNL     1     -42.937  56.234 -56.913  1.00  0.00     0.323 C 
HETATM    7  H   UNL     1     -41.603  55.236 -55.892  1.00  0.00     0.173 HD
HETATM    8  N   UNL     1     -43.595  57.415 -57.047  1.00  0.00    -0.338 N 
HETATM    9  O   UNL     1     -43.177  55.212 -57.547  1.00  0.00    -0.247 OA
HETATM   10  H   UNL     1     -43.235  58.210 -56.527  1.00  0.00     0.164 HD
HETATM   11  O   UNL     1     -42.154  58.221 -54.863  1.00  0.00    -0.271 OA
BRANCH   8  12
HETATM   12  C   UNL     1     -44.636  57.682 -58.038  1.00  0.00     0.089 C 
HETATM   13  C   UNL     1     -44.192  58.655 -59.157  1.00  0.00     0.004 C 
HETATM   14  C   UNL     1     -42.951  58.143 -59.898  1.00  0.00     0.012 C 
HETATM   15  C   UNL     1     -45.335  58.884 -60.161  1.00  0.00     0.006 C 
HETATM   16  C   UNL     1     -46.615  59.350 -59.473  1.00  0.00     0.001 C 
HETATM   17  C   UNL     1     -47.050  58.377 -58.383  1.00  0.00     0.002 C 
HETATM   18  C   UNL     1     -45.937  58.146 -57.366  1.00  0.00     0.026 C 
ENDBRANCH   8  12
ENDBRANCH   3   4
ENDBRANCH   1   3
BRANCH   1  19
HETATM   19  C   UNL     1     -42.692  56.888 -51.979  1.00  0.00     0.300 C 
BRANCH  19  20
HETATM   20  C   UNL     1     -42.050  58.009 -51.244  1.00  0.00     0.078 A 
HETATM   21  O   UNL     1     -42.627  59.239 -51.382  1.00  0.00    -0.325 OA
HETATM   22  C   UNL     1     -41.884  60.113 -50.655  1.00  0.00     0.142 A 
HETATM   23  C   UNL     1     -40.839  59.459 -50.046  1.00  0.00     0.027 A 
HETATM   24  C   UNL     1     -40.942  58.100 -50.428  1.00  0.00     0.036 A 
ENDBRANCH  19  20
ENDBRANCH   1  19
BRANCH   1  25
HETATM   25  C   UNL     1     -42.372  54.602 -53.006  1.00  0.00     0.277 C 
BRANCH  25  26
HETATM   26  C   UNL     1     -41.384  53.471 -53.051  1.00  0.00     0.001 A 
HETATM   27  C   UNL     1     -40.625  53.131 -51.925  1.00  0.00     0.073 A 
HETATM   28  C   UNL     1     -39.702  52.089 -51.963  1.00  0.00     0.037 A 
HETATM   29  C   UNL     1     -39.533  51.364 -53.140  1.00  0.00     0.003 A 
HETATM   30  C   UNL     1     -40.287  51.679 -54.270  1.00  0.00     0.001 A 
HETATM   31  C   UNL     1     -41.211  52.725 -54.226  1.00  0.00     0.011 A 
BRANCH  27  32
HETATM   32  O   UNL     1     -40.810  53.843 -50.773  1.00  0.00    -0.360 OA
HETATM   33  H   UNL     1     -40.760  53.221 -50.021  1.00  0.00     0.217 HD
ENDBRANCH  27  32
ENDBRANCH  25  26
ENDBRANCH   1  25
TORSDOF 8
ENDMDL
MODEL 10
REMARK VINA RESULT:      -7.2      4.357      6.906
REMARK  8 active torsions:
REMARK  status: ('A' for Active; 'I' for Inactive)
REMARK    1  A    between atoms: C_3  and  N_4 
REMARK       I    between atoms: N_4  and  C_5 
REMARK       I    between atoms: C_5  and  N_6 
REMARK       I    between atoms: N_6  and  C_7 
REMARK    2  A    between atoms: C_7  and  C_8 
REMARK    3  A    between atoms: C_8  and  N_9 
REMARK    4  A    between atoms: N_9  and  C_11 
REMARK    5  A    between atoms: N_9  and  C_17 
REMARK    6  A    between atoms: C_11  and  C_12 
REMARK    7  A    between atoms: C_17  and  C_18 
REMARK    8  A    between atoms: C_19  and  O_20 
ROOT
HETATM    1  N   UNL     1     -43.666  60.220 -51.624  1.00  0.00    -0.053 N 
HETATM    2  H   UNL     1     -44.219  59.364 -51.482  1.00  0.00     0.281 HD
ENDROOT
BRANCH   1   3
HETATM    3  C   UNL     1     -42.379  59.956 -50.844  1.00  0.00     0.338 C 
BRANCH   3   4
HETATM    4  C   UNL     1     -41.849  58.534 -51.023  1.00  0.00     0.251 C 
HETATM    5  N   UNL     1     -42.727  57.544 -50.634  1.00  0.00    -0.278 N 
HETATM    6  C   UNL     1     -42.713  56.219 -50.985  1.00  0.00     0.323 C 
HETATM    7  H   UNL     1     -43.654  57.793 -50.311  1.00  0.00     0.173 HD
HETATM    8  N   UNL     1     -41.564  55.748 -51.537  1.00  0.00    -0.338 N 
HETATM    9  O   UNL     1     -43.739  55.569 -50.822  1.00  0.00    -0.247 OA
HETATM   10  H   UNL     1     -40.757  56.365 -51.528  1.00  0.00     0.164 HD
HETATM   11  O   UNL     1     -40.707  58.347 -51.446  1.00  0.00    -0.271 OA
BRANCH   8  12
HETATM   12  C   UNL     1     -41.339  54.361 -51.940  1.00  0.00     0.089 C 
HETATM   13  C   UNL     1     -40.110  53.709 -51.262  1.00  0.00     0.004 C 
HETATM   14  C   UNL     1     -40.215  53.748 -49.733  1.00  0.00     0.012 C 
HETATM   15  C   UNL     1     -39.940  52.254 -51.731  1.00  0.00     0.006 C 
HETATM   16  C   UNL     1     -39.877  52.148 -53.253  1.00  0.00     0.001 C 
HETATM   17  C   UNL     1     -41.100  52.780 -53.908  1.00  0.00     0.002 C 
HETATM   18  C   UNL     1     -41.279  54.230 -53.470  1.00  0.00     0.026 C 
ENDBRANCH   8  12
ENDBRANCH   3   4
ENDBRANCH   1   3
BRANCH   1  19
HETATM   19  C   UNL     1     -44.530  61.333 -51.070  1.00  0.00     0.300 C 
BRANCH  19  20
HETATM   20  C   UNL     1     -44.811  61.244 -49.614  1.00  0.00     0.078 A 
HETATM   21  O   UNL     1     -45.661  60.253 -49.215  1.00  0.00    -0.325 OA
HETATM   22  C   UNL     1     -45.796  60.359 -47.868  1.00  0.00     0.142 A 
HETATM   23  C   UNL     1     -45.038  61.403 -47.393  1.00  0.00     0.027 A 
HETATM   24  C   UNL     1     -44.403  61.980 -48.520  1.00  0.00     0.036 A 
ENDBRANCH  19  20
ENDBRANCH   1  19
BRANCH   1  25
HETATM   25  C   UNL     1     -43.414  60.338 -53.107  1.00  0.00     0.277 C 
BRANCH  25  26
HETATM   26  C   UNL     1     -43.505  59.014 -53.813  1.00  0.00     0.001 A 
HETATM   27  C   UNL     1     -42.405  58.489 -54.501  1.00  0.00     0.073 A 
HETATM   28  C   UNL     1     -42.484  57.266 -55.164  1.00  0.00     0.037 A 
HETATM   29  C   UNL     1     -43.677  56.547 -55.138  1.00  0.00     0.003 A 
HETATM   30  C   UNL     1     -44.780  57.048 -54.448  1.00  0.00     0.001 A 
HETATM   31  C   UNL     1     -44.695  58.274 -53.786  1.00  0.00     0.011 A 
BRANCH  27  32
HETATM   32  O   UNL     1     -41.238  59.199 -54.509  1.00  0.00    -0.360 OA
HETATM   33  H   UNL     1     -41.353  59.977 -53.927  1.00  0.00     0.217 HD
ENDBRANCH  27  32
ENDBRANCH  25  26
ENDBRANCH   1  25
TORSDOF 8
ENDMDL
