MODEL 1
REMARK VINA RESULT:      -8.2      0.000      0.000
REMARK  6 active torsions:
REMARK  status: ('A' for Active; 'I' for Inactive)
REMARK    1  A    between atoms: C_3  and  N_4 
REMARK       I    between atoms: N_4  and  C_5 
REMARK       I    between atoms: C_5  and  N_6 
REMARK    2  A    between atoms: N_6  and  N_7 
REMARK       I    between atoms: N_7  and  C_8 
REMARK    3  A    between atoms: C_8  and  C_9 
REMARK    4  A    between atoms: C_9  and  N_10 
REMARK       I    between atoms: N_10  and  C_11 
REMARK       I    between atoms: C_11  and  N_12 
REMARK    5  A    between atoms: N_12  and  C_13 
REMARK    6  A    between atoms: C_16  and  O_17 
ROOT
HETATM    1  N   UNL     1     -44.711  57.205 -52.355  1.00  0.00    -0.265 N 
HETATM    2  C   UNL     1     -44.173  58.484 -52.411  1.00  0.00     0.253 C 
HETATM    3  O   UNL     1     -43.632  59.014 -51.439  1.00  0.00    -0.270 OA
HETATM    4  H   UNL     1     -44.728  56.681 -53.239  1.00  0.00     0.190 HD
ENDROOT
BRANCH   2   5
HETATM    5  C   UNL     1     -44.089  59.100 -53.808  1.00  0.00     0.228 C 
BRANCH   5   6
HETATM    6  N   UNL     1     -43.664  58.235 -54.893  1.00  0.00    -0.334 N 
HETATM    7  C   UNL     1     -42.496  58.403 -55.557  1.00  0.00     0.321 C 
HETATM    8  N   UNL     1     -42.340  57.753 -56.740  1.00  0.00    -0.309 N 
HETATM    9  O   UNL     1     -41.579  59.070 -55.079  1.00  0.00    -0.247 OA
HETATM   10  H   UNL     1     -41.381  57.785 -57.063  1.00  0.00     0.170 HD
HETATM   11  H   UNL     1     -44.105  57.329 -54.986  1.00  0.00     0.164 HD
BRANCH   8  12
HETATM   12  C   UNL     1     -43.278  57.235 -57.659  1.00  0.00     0.036 A 
HETATM   13  C   UNL     1     -44.415  57.913 -58.101  1.00  0.00     0.032 A 
HETATM   14  C   UNL     1     -45.265  57.332 -59.050  1.00  0.00     0.039 A 
HETATM   15  C   UNL     1     -44.980  56.082 -59.598  1.00  0.00     0.068 A 
HETATM   16  C   UNL     1     -43.843  55.402 -59.170  1.00  0.00     0.039 A 
HETATM   17  C   UNL     1     -42.998  55.979 -58.211  1.00  0.00     0.032 A 
BRANCH  15  18
HETATM   18  O   UNL     1     -45.880  55.643 -60.527  1.00  0.00    -0.356 OA
HETATM   19  C   UNL     1     -47.159  56.265 -60.520  1.00  0.00     0.210 C 
ENDBRANCH  15  18
ENDBRANCH   8  12
ENDBRANCH   5   6
ENDBRANCH   2   5
BRANCH   1  20
HETATM   20  N   UNL     1     -44.374  56.467 -51.195  1.00  0.00    -0.249 N 
HETATM   21  C   UNL     1     -43.619  55.314 -51.251  1.00  0.00     0.339 C 
HETATM   22  N   UNL     1     -42.815  55.227 -52.362  1.00  0.00    -0.307 N 
HETATM   23  O   UNL     1     -43.691  54.511 -50.327  1.00  0.00    -0.245 OA
HETATM   24  H   UNL     1     -42.832  56.058 -52.930  1.00  0.00     0.170 HD
HETATM   25  H   UNL     1     -45.102  56.427 -50.481  1.00  0.00     0.192 HD
BRANCH  22  26
HETATM   26  C   UNL     1     -41.941  54.178 -52.721  1.00  0.00     0.042 A 
HETATM   27  C   UNL     1     -42.016  53.640 -54.025  1.00  0.00    -0.034 A 
HETATM   28  C   UNL     1     -42.977  54.163 -55.058  1.00  0.00     0.050 C 
HETATM   29  C   UNL     1     -41.158  52.582 -54.384  1.00  0.00     0.032 A 
HETATM   30  C   UNL     1     -40.241  52.068 -53.470  1.00  0.00     0.034 A 
HETATM   31  C   UNL     1     -40.165  52.595 -52.188  1.00  0.00     0.026 A 
HETATM   32 CL   UNL     1     -39.202  50.777 -53.931  1.00  0.00    -0.084 Cl
HETATM   33  C   UNL     1     -41.012  53.643 -51.818  1.00  0.00     0.032 A 
ENDBRANCH  22  26
ENDBRANCH   1  20
TORSDOF 6
ENDMDL
MODEL 2
REMARK VINA RESULT:      -8.2      1.867      2.352
REMARK  6 active torsions:
REMARK  status: ('A' for Active; 'I' for Inactive)
REMARK    1  A    between atoms: C_3  and  N_4 
REMARK       I    between atoms: N_4  and  C_5 
REMARK       I    between atoms: C_5  and  N_6 
REMARK    2  A    between atoms: N_6  and  N_7 
REMARK       I    between atoms: N_7  and  C_8 
REMARK    3  A    between atoms: C_8  and  C_9 
REMARK    4  A    between atoms: C_9  and  N_10 
REMARK       I    between atoms: N_10  and  C_11 
REMARK       I    between atoms: C_11  and  N_12 
REMARK    5  A    between atoms: N_12  and  C_13 
REMARK    6  A    between atoms: C_16  and  O_17 
ROOT
HETATM    1  N   UNL     1     -42.373  57.391 -52.026  1.00  0.00    -0.265 N 
HETATM    2  C   UNL     1     -41.367  58.126 -51.414  1.00  0.00     0.253 C 
HETATM    3  O   UNL     1     -41.107  58.015 -50.215  1.00  0.00    -0.270 OA
HETATM    4  H   UNL     1     -42.247  57.195 -53.027  1.00  0.00     0.190 HD
ENDROOT
BRANCH   2   5
HETATM    5  C   UNL     1     -40.456  58.907 -52.362  1.00  0.00     0.228 C 
BRANCH   5   6
HETATM    6  N   UNL     1     -40.941  59.141 -53.710  1.00  0.00    -0.334 N 
HETATM    7  C   UNL     1     -41.945  60.004 -53.993  1.00  0.00     0.321 C 
HETATM    8  N   UNL     1     -42.530  59.916 -55.217  1.00  0.00    -0.309 N 
HETATM    9  O   UNL     1     -42.280  60.881 -53.197  1.00  0.00    -0.247 OA
HETATM   10  H   UNL     1     -43.128  60.712 -55.405  1.00  0.00     0.170 HD
HETATM   11  H   UNL     1     -40.352  58.869 -54.486  1.00  0.00     0.164 HD
BRANCH   8  12
HETATM   12  C   UNL     1     -42.603  58.860 -56.150  1.00  0.00     0.036 A 
HETATM   13  C   UNL     1     -43.236  57.638 -55.918  1.00  0.00     0.032 A 
HETATM   14  C   UNL     1     -43.294  56.666 -56.925  1.00  0.00     0.039 A 
HETATM   15  C   UNL     1     -42.753  56.907 -58.186  1.00  0.00     0.068 A 
HETATM   16  C   UNL     1     -42.128  58.126 -58.430  1.00  0.00     0.039 A 
HETATM   17  C   UNL     1     -42.058  59.096 -57.419  1.00  0.00     0.032 A 
BRANCH  15  18
HETATM   18  O   UNL     1     -42.898  55.883 -59.079  1.00  0.00    -0.356 OA
HETATM   19  C   UNL     1     -44.226  55.574 -59.485  1.00  0.00     0.210 C 
ENDBRANCH  15  18
ENDBRANCH   8  12
ENDBRANCH   5   6
ENDBRANCH   2   5
BRANCH   1  20
HETATM   20  N   UNL     1     -42.901  56.336 -51.242  1.00  0.00    -0.249 N 
HETATM   21  C   UNL     1     -42.623  55.011 -51.509  1.00  0.00     0.339 C 
HETATM   22  N   UNL     1     -41.451  54.816 -52.200  1.00  0.00    -0.307 N 
HETATM   23  O   UNL     1     -43.387  54.148 -51.094  1.00  0.00    -0.245 OA
HETATM   24  H   UNL     1     -40.924  55.664 -52.336  1.00  0.00     0.170 HD
HETATM   25  H   UNL     1     -43.857  56.479 -50.911  1.00  0.00     0.192 HD
BRANCH  22  26
HETATM   26  C   UNL     1     -40.894  53.595 -52.636  1.00  0.00     0.042 A 
HETATM   27  C   UNL     1     -41.206  53.123 -53.930  1.00  0.00    -0.034 A 
HETATM   28  C   UNL     1     -42.092  53.890 -54.875  1.00  0.00     0.050 C 
HETATM   29  C   UNL     1     -40.667  51.897 -54.366  1.00  0.00     0.032 A 
HETATM   30  C   UNL     1     -39.831  51.153 -53.535  1.00  0.00     0.034 A 
HETATM   31  C   UNL     1     -39.522  51.614 -52.264  1.00  0.00     0.026 A 
HETATM   32 CL   UNL     1     -39.183  49.658 -54.088  1.00  0.00    -0.084 Cl
HETATM   33  C   UNL     1     -40.053  52.828 -51.819  1.00  0.00     0.032 A 
ENDBRANCH  22  26
ENDBRANCH   1  20
TORSDOF 6
ENDMDL
MODEL 3
REMARK VINA RESULT:      -7.9      2.749      7.047
REMARK  6 active torsions:
REMARK  status: ('A' for Active; 'I' for Inactive)
REMARK    1  A    between atoms: C_3  and  N_4 
REMARK       I    between atoms: N_4  and  C_5 
REMARK       I    between atoms: C_5  and  N_6 
REMARK    2  A    between atoms: N_6  and  N_7 
REMARK       I    between atoms: N_7  and  C_8 
REMARK    3  A    between atoms: C_8  and  C_9 
REMARK    4  A    between atoms: C_9  and  N_10 
REMARK       I    between atoms: N_10  and  C_11 
REMARK       I    between atoms: C_11  and  N_12 
REMARK    5  A    between atoms: N_12  and  C_13 
REMARK    6  A    between atoms: C_16  and  O_17 
ROOT
HETATM    1  N   UNL     1     -42.042  59.612 -53.395  1.00  0.00    -0.265 N 
HETATM    2  C   UNL     1     -42.818  60.267 -52.447  1.00  0.00     0.253 C 
HETATM    3  O   UNL     1     -43.159  61.444 -52.575  1.00  0.00    -0.270 OA
HETATM    4  H   UNL     1     -42.169  58.595 -53.461  1.00  0.00     0.190 HD
ENDROOT
BRANCH   2   5
HETATM    5  C   UNL     1     -43.411  59.375 -51.356  1.00  0.00     0.228 C 
BRANCH   5   6
HETATM    6  N   UNL     1     -43.435  57.946 -51.604  1.00  0.00    -0.334 N 
HETATM    7  C   UNL     1     -44.404  57.130 -51.125  1.00  0.00     0.321 C 
HETATM    8  N   UNL     1     -44.170  55.791 -51.140  1.00  0.00    -0.309 N 
HETATM    9  O   UNL     1     -45.486  57.576 -50.745  1.00  0.00    -0.247 OA
HETATM   10  H   UNL     1     -45.010  55.261 -50.945  1.00  0.00     0.170 HD
HETATM   11  H   UNL     1     -42.880  57.581 -52.367  1.00  0.00     0.164 HD
BRANCH   8  12
HETATM   12  C   UNL     1     -42.972  55.046 -51.182  1.00  0.00     0.036 A 
HETATM   13  C   UNL     1     -42.081  54.915 -50.116  1.00  0.00     0.032 A 
HETATM   14  C   UNL     1     -40.937  54.116 -50.239  1.00  0.00     0.039 A 
HETATM   15  C   UNL     1     -40.679  53.412 -51.414  1.00  0.00     0.068 A 
HETATM   16  C   UNL     1     -41.566  53.529 -52.480  1.00  0.00     0.039 A 
HETATM   17  C   UNL     1     -42.706  54.338 -52.361  1.00  0.00     0.032 A 
BRANCH  15  18
HETATM   18  O   UNL     1     -39.541  52.655 -51.392  1.00  0.00    -0.356 OA
HETATM   19  C   UNL     1     -39.527  51.500 -52.222  1.00  0.00     0.210 C 
ENDBRANCH  15  18
ENDBRANCH   8  12
ENDBRANCH   5   6
ENDBRANCH   2   5
BRANCH   1  20
HETATM   20  N   UNL     1     -41.886  60.306 -54.620  1.00  0.00    -0.249 N 
HETATM   21  C   UNL     1     -42.063  59.689 -55.841  1.00  0.00     0.339 C 
HETATM   22  N   UNL     1     -42.871  58.579 -55.793  1.00  0.00    -0.307 N 
HETATM   23  O   UNL     1     -41.541  60.180 -56.836  1.00  0.00    -0.245 OA
HETATM   24  H   UNL     1     -43.285  58.427 -54.887  1.00  0.00     0.170 HD
HETATM   25  H   UNL     1     -41.136  60.998 -54.632  1.00  0.00     0.192 HD
BRANCH  22  26
HETATM   26  C   UNL     1     -43.235  57.724 -56.856  1.00  0.00     0.042 A 
HETATM   27  C   UNL     1     -42.799  56.381 -56.836  1.00  0.00    -0.034 A 
HETATM   28  C   UNL     1     -41.981  55.818 -55.704  1.00  0.00     0.050 C 
HETATM   29  C   UNL     1     -43.144  55.527 -57.901  1.00  0.00     0.032 A 
HETATM   30  C   UNL     1     -43.911  55.994 -58.966  1.00  0.00     0.034 A 
HETATM   31  C   UNL     1     -44.342  57.313 -58.990  1.00  0.00     0.026 A 
HETATM   32 CL   UNL     1     -44.322  54.933 -60.257  1.00  0.00    -0.084 Cl
HETATM   33  C   UNL     1     -44.003  58.171 -57.940  1.00  0.00     0.032 A 
ENDBRANCH  22  26
ENDBRANCH   1  20
TORSDOF 6
ENDMDL
MODEL 4
REMARK VINA RESULT:      -7.5      2.175      2.346
REMARK  6 active torsions:
REMARK  status: ('A' for Active; 'I' for Inactive)
REMARK    1  A    between atoms: C_3  and  N_4 
REMARK       I    between atoms: N_4  and  C_5 
REMARK       I    between atoms: C_5  and  N_6 
REMARK    2  A    between atoms: N_6  and  N_7 
REMARK       I    between atoms: N_7  and  C_8 
REMARK    3  A    between atoms: C_8  and  C_9 
REMARK    4  A    between atoms: C_9  and  N_10 
REMARK       I    between atoms: N_10  and  C_11 
REMARK       I    between atoms: C_11  and  N_12 
REMARK    5  A    between atoms: N_12  and  C_13 
REMARK    6  A    between atoms: C_16  and  O_17 
ROOT
HETATM    1  N   UNL     1     -42.642  57.223 -51.398  1.00  0.00    -0.265 N 
HETATM    2  C   UNL     1     -41.940  58.420 -51.340  1.00  0.00     0.253 C 
HETATM    3  O   UNL     1     -41.270  58.742 -50.358  1.00  0.00    -0.270 OA
HETATM    4  H   UNL     1     -42.789  56.828 -52.336  1.00  0.00     0.190 HD
ENDROOT
BRANCH   2   5
HETATM    5  C   UNL     1     -41.864  59.200 -52.652  1.00  0.00     0.228 C 
BRANCH   5   6
HETATM    6  N   UNL     1     -42.398  58.560 -53.841  1.00  0.00    -0.334 N 
HETATM    7  C   UNL     1     -41.730  57.602 -54.526  1.00  0.00     0.321 C 
HETATM    8  N   UNL     1     -42.163  57.301 -55.778  1.00  0.00    -0.309 N 
HETATM    9  O   UNL     1     -40.800  56.979 -54.014  1.00  0.00    -0.247 OA
HETATM   10  H   UNL     1     -41.730  56.456 -56.132  1.00  0.00     0.170 HD
HETATM   11  H   UNL     1     -43.392  58.623 -54.015  1.00  0.00     0.164 HD
BRANCH   8  12
HETATM   12  C   UNL     1     -42.926  58.034 -56.712  1.00  0.00     0.036 A 
HETATM   13  C   UNL     1     -44.311  57.942 -56.852  1.00  0.00     0.032 A 
HETATM   14  C   UNL     1     -44.987  58.746 -57.779  1.00  0.00     0.039 A 
HETATM   15  C   UNL     1     -44.298  59.674 -58.559  1.00  0.00     0.068 A 
HETATM   16  C   UNL     1     -42.917  59.779 -58.420  1.00  0.00     0.039 A 
HETATM   17  C   UNL     1     -42.239  58.966 -57.500  1.00  0.00     0.032 A 
BRANCH  15  18
HETATM   18  O   UNL     1     -45.081  60.405 -59.407  1.00  0.00    -0.356 OA
HETATM   19  C   UNL     1     -46.486  60.329 -59.202  1.00  0.00     0.210 C 
ENDBRANCH  15  18
ENDBRANCH   8  12
ENDBRANCH   5   6
ENDBRANCH   2   5
BRANCH   1  20
HETATM   20  N   UNL     1     -42.334  56.300 -50.370  1.00  0.00    -0.249 N 
HETATM   21  C   UNL     1     -41.930  55.009 -50.638  1.00  0.00     0.339 C 
HETATM   22  N   UNL     1     -41.364  54.848 -51.880  1.00  0.00    -0.307 N 
HETATM   23  O   UNL     1     -42.066  54.152 -49.772  1.00  0.00    -0.245 OA
HETATM   24  H   UNL     1     -41.250  55.715 -52.380  1.00  0.00     0.170 HD
HETATM   25  H   UNL     1     -42.925  56.364 -49.540  1.00  0.00     0.192 HD
BRANCH  22  26
HETATM   26  C   UNL     1     -40.867  53.661 -52.460  1.00  0.00     0.042 A 
HETATM   27  C   UNL     1     -41.389  53.234 -53.701  1.00  0.00    -0.034 A 
HETATM   28  C   UNL     1     -42.440  54.015 -54.443  1.00  0.00     0.050 C 
HETATM   29  C   UNL     1     -40.910  52.042 -54.277  1.00  0.00     0.032 A 
HETATM   30  C   UNL     1     -39.929  51.287 -53.638  1.00  0.00     0.034 A 
HETATM   31  C   UNL     1     -39.413  51.704 -52.419  1.00  0.00     0.026 A 
HETATM   32 CL   UNL     1     -39.357  49.835 -54.361  1.00  0.00    -0.084 Cl
HETATM   33  C   UNL     1     -39.882  52.884 -51.835  1.00  0.00     0.032 A 
ENDBRANCH  22  26
ENDBRANCH   1  20
TORSDOF 6
ENDMDL
MODEL 5
REMARK VINA RESULT:      -7.4      2.326      3.303
REMARK  6 active torsions:
REMARK  status: ('A' for Active; 'I' for Inactive)
REMARK    1  A    between atoms: C_3  and  N_4 
REMARK       I    between atoms: N_4  and  C_5 
REMARK       I    between atoms: C_5  and  N_6 
REMARK    2  A    between atoms: N_6  and  N_7 
REMARK       I    between atoms: N_7  and  C_8 
REMARK    3  A    between atoms: C_8  and  C_9 
REMARK    4  A    between atoms: C_9  and  N_10 
REMARK       I    between atoms: N_10  and  C_11 
REMARK       I    between atoms: C_11  and  N_12 
REMARK    5  A    between atoms: N_12  and  C_13 
REMARK    6  A    between atoms: C_16  and  O_17 
ROOT
HETATM    1  N   UNL     1     -42.162  57.672 -51.030  1.00  0.00    -0.265 N 
HETATM    2  C   UNL     1     -42.891  58.500 -51.874  1.00  0.00     0.253 C 
HETATM    3  O   UNL     1     -43.991  58.177 -52.324  1.00  0.00    -0.270 OA
HETATM    4  H   UNL     1     -41.527  58.141 -50.372  1.00  0.00     0.190 HD
ENDROOT
BRANCH   2   5
HETATM    5  C   UNL     1     -42.350  59.922 -52.025  1.00  0.00     0.228 C 
BRANCH   5   6
HETATM    6  N   UNL     1     -42.152  60.421 -53.373  1.00  0.00    -0.334 N 
HETATM    7  C   UNL     1     -42.843  61.468 -53.882  1.00  0.00     0.321 C 
HETATM    8  N   UNL     1     -42.816  61.651 -55.228  1.00  0.00    -0.309 N 
HETATM    9  O   UNL     1     -43.426  62.267 -53.149  1.00  0.00    -0.247 OA
HETATM   10  H   UNL     1     -43.195  62.552 -55.492  1.00  0.00     0.170 HD
HETATM   11  H   UNL     1     -41.301  60.168 -53.858  1.00  0.00     0.164 HD
BRANCH   8  12
HETATM   12  C   UNL     1     -42.548  60.764 -56.293  1.00  0.00     0.036 A 
HETATM   13  C   UNL     1     -43.011  59.449 -56.367  1.00  0.00     0.032 A 
HETATM   14  C   UNL     1     -42.728  58.659 -57.488  1.00  0.00     0.039 A 
HETATM   15  C   UNL     1     -42.008  59.173 -58.565  1.00  0.00     0.068 A 
HETATM   16  C   UNL     1     -41.549  60.486 -58.504  1.00  0.00     0.039 A 
HETATM   17  C   UNL     1     -41.822  61.275 -57.376  1.00  0.00     0.032 A 
BRANCH  15  18
HETATM   18  O   UNL     1     -41.822  58.302 -59.600  1.00  0.00    -0.356 OA
HETATM   19  C   UNL     1     -42.478  57.044 -59.501  1.00  0.00     0.210 C 
ENDBRANCH  15  18
ENDBRANCH   8  12
ENDBRANCH   5   6
ENDBRANCH   2   5
BRANCH   1  20
HETATM   20  N   UNL     1     -42.875  56.557 -50.528  1.00  0.00    -0.249 N 
HETATM   21  C   UNL     1     -42.708  55.286 -51.039  1.00  0.00     0.339 C 
HETATM   22  N   UNL     1     -41.497  55.089 -51.658  1.00  0.00    -0.307 N 
HETATM   23  O   UNL     1     -43.597  54.458 -50.876  1.00  0.00    -0.245 OA
HETATM   24  H   UNL     1     -40.874  55.876 -51.572  1.00  0.00     0.170 HD
HETATM   25  H   UNL     1     -43.840  56.748 -50.254  1.00  0.00     0.192 HD
BRANCH  22  26
HETATM   26  C   UNL     1     -41.025  53.918 -52.290  1.00  0.00     0.042 A 
HETATM   27  C   UNL     1     -40.259  52.997 -51.544  1.00  0.00    -0.034 A 
HETATM   28  C   UNL     1     -39.948  53.203 -50.086  1.00  0.00     0.050 C 
HETATM   29  C   UNL     1     -39.772  51.835 -52.173  1.00  0.00     0.032 A 
HETATM   30  C   UNL     1     -40.041  51.589 -53.518  1.00  0.00     0.034 A 
HETATM   31  C   UNL     1     -40.794  52.492 -54.255  1.00  0.00     0.026 A 
HETATM   32 CL   UNL     1     -39.437  50.163 -54.267  1.00  0.00    -0.084 Cl
HETATM   33  C   UNL     1     -41.281  53.650 -53.642  1.00  0.00     0.032 A 
ENDBRANCH  22  26
ENDBRANCH   1  20
TORSDOF 6
ENDMDL
MODEL 6
REMARK VINA RESULT:      -7.4      3.335      8.173
REMARK  6 active torsions:
REMARK  status: ('A' for Active; 'I' for Inactive)
REMARK    1  A    between atoms: C_3  and  N_4 
REMARK       I    between atoms: N_4  and  C_5 
REMARK       I    between atoms: C_5  and  N_6 
REMARK    2  A    between atoms: N_6  and  N_7 
REMARK       I    between atoms: N_7  and  C_8 
REMARK    3  A    between atoms: C_8  and  C_9 
REMARK    4  A    between atoms: C_9  and  N_10 
REMARK       I    between atoms: N_10  and  C_11 
REMARK       I    between atoms: C_11  and  N_12 
REMARK    5  A    between atoms: N_12  and  C_13 
REMARK    6  A    between atoms: C_16  and  O_17 
ROOT
HETATM    1  N   UNL     1     -42.592  56.548 -56.545  1.00  0.00    -0.265 N 
HETATM    2  C   UNL     1     -42.622  57.478 -55.514  1.00  0.00     0.253 C 
HETATM    3  O   UNL     1     -42.110  58.593 -55.619  1.00  0.00    -0.270 OA
HETATM    4  H   UNL     1     -43.368  55.874 -56.572  1.00  0.00     0.190 HD
ENDROOT
BRANCH   2   5
HETATM    5  C   UNL     1     -43.525  57.118 -54.334  1.00  0.00     0.228 C 
BRANCH   5   6
HETATM    6  N   UNL     1     -43.176  55.938 -53.563  1.00  0.00    -0.334 N 
HETATM    7  C   UNL     1     -42.987  55.961 -52.223  1.00  0.00     0.321 C 
HETATM    8  N   UNL     1     -42.364  54.897 -51.653  1.00  0.00    -0.309 N 
HETATM    9  O   UNL     1     -43.418  56.883 -51.531  1.00  0.00    -0.247 OA
HETATM   10  H   UNL     1     -42.437  54.915 -50.643  1.00  0.00     0.170 HD
HETATM   11  H   UNL     1     -43.340  55.029 -53.977  1.00  0.00     0.164 HD
BRANCH   8  12
HETATM   12  C   UNL     1     -41.498  53.918 -52.186  1.00  0.00     0.036 A 
HETATM   13  C   UNL     1     -40.544  53.215 -51.448  1.00  0.00     0.032 A 
HETATM   14  C   UNL     1     -39.759  52.228 -52.059  1.00  0.00     0.039 A 
HETATM   15  C   UNL     1     -39.933  51.905 -53.403  1.00  0.00     0.068 A 
HETATM   16  C   UNL     1     -40.888  52.594 -54.145  1.00  0.00     0.039 A 
HETATM   17  C   UNL     1     -41.666  53.591 -53.537  1.00  0.00     0.032 A 
BRANCH  15  18
HETATM   18  O   UNL     1     -39.117  50.911 -53.865  1.00  0.00    -0.356 OA
HETATM   19  C   UNL     1     -39.755  49.782 -54.450  1.00  0.00     0.210 C 
ENDBRANCH  15  18
ENDBRANCH   8  12
ENDBRANCH   5   6
ENDBRANCH   2   5
BRANCH   1  20
HETATM   20  N   UNL     1     -42.159  57.057 -57.794  1.00  0.00    -0.249 N 
HETATM   21  C   UNL     1     -42.974  57.060 -58.908  1.00  0.00     0.339 C 
HETATM   22  N   UNL     1     -44.317  57.039 -58.617  1.00  0.00    -0.307 N 
HETATM   23  O   UNL     1     -42.460  57.119 -60.019  1.00  0.00    -0.245 OA
HETATM   24  H   UNL     1     -44.511  57.109 -57.631  1.00  0.00     0.170 HD
HETATM   25  H   UNL     1     -41.181  56.872 -58.021  1.00  0.00     0.192 HD
BRANCH  22  26
HETATM   26  C   UNL     1     -45.400  57.021 -59.521  1.00  0.00     0.042 A 
HETATM   27  C   UNL     1     -45.712  55.819 -60.194  1.00  0.00    -0.034 A 
HETATM   28  C   UNL     1     -44.946  54.544 -59.961  1.00  0.00     0.050 C 
HETATM   29  C   UNL     1     -46.781  55.798 -61.110  1.00  0.00     0.032 A 
HETATM   30  C   UNL     1     -47.531  56.947 -61.354  1.00  0.00     0.034 A 
HETATM   31  C   UNL     1     -47.228  58.130 -60.694  1.00  0.00     0.026 A 
HETATM   32 CL   UNL     1     -48.834  56.899 -62.476  1.00  0.00    -0.084 Cl
HETATM   33  C   UNL     1     -46.167  58.164 -59.785  1.00  0.00     0.032 A 
ENDBRANCH  22  26
ENDBRANCH   1  20
TORSDOF 6
ENDMDL
MODEL 7
REMARK VINA RESULT:      -7.3      2.938      6.154
REMARK  6 active torsions:
REMARK  status: ('A' for Active; 'I' for Inactive)
REMARK    1  A    between atoms: C_3  and  N_4 
REMARK       I    between atoms: N_4  and  C_5 
REMARK       I    between atoms: C_5  and  N_6 
REMARK    2  A    between atoms: N_6  and  N_7 
REMARK       I    between atoms: N_7  and  C_8 
REMARK    3  A    between atoms: C_8  and  C_9 
REMARK    4  A    between atoms: C_9  and  N_10 
REMARK       I    between atoms: N_10  and  C_11 
REMARK       I    between atoms: C_11  and  N_12 
REMARK    5  A    between atoms: N_12  and  C_13 
REMARK    6  A    between atoms: C_16  and  O_17 
ROOT
HETATM    1  N   UNL     1     -42.515  57.028 -56.421  1.00  0.00    -0.265 N 
HETATM    2  C   UNL     1     -43.149  58.210 -56.061  1.00  0.00     0.253 C 
HETATM    3  O   UNL     1     -44.369  58.284 -55.914  1.00  0.00    -0.270 OA
HETATM    4  H   UNL     1     -41.544  56.918 -56.102  1.00  0.00     0.190 HD
ENDROOT
BRANCH   2   5
HETATM    5  C   UNL     1     -42.220  59.349 -55.639  1.00  0.00     0.228 C 
BRANCH   5   6
HETATM    6  N   UNL     1     -42.091  59.612 -54.218  1.00  0.00    -0.334 N 
HETATM    7  C   UNL     1     -41.579  58.712 -53.345  1.00  0.00     0.321 C 
HETATM    8  N   UNL     1     -41.793  58.924 -52.019  1.00  0.00    -0.309 N 
HETATM    9  O   UNL     1     -40.892  57.767 -53.729  1.00  0.00    -0.247 OA
HETATM   10  H   UNL     1     -41.221  58.316 -51.445  1.00  0.00     0.170 HD
HETATM   11  H   UNL     1     -42.126  60.572 -53.901  1.00  0.00     0.164 HD
BRANCH   8  12
HETATM   12  C   UNL     1     -42.774  59.670 -51.332  1.00  0.00     0.036 A 
HETATM   13  C   UNL     1     -44.110  59.292 -51.199  1.00  0.00     0.032 A 
HETATM   14  C   UNL     1     -45.001  60.079 -50.458  1.00  0.00     0.039 A 
HETATM   15  C   UNL     1     -44.569  61.237 -49.814  1.00  0.00     0.068 A 
HETATM   16  C   UNL     1     -43.235  61.618 -49.933  1.00  0.00     0.039 A 
HETATM   17  C   UNL     1     -42.345  60.836 -50.684  1.00  0.00     0.032 A 
BRANCH  15  18
HETATM   18  O   UNL     1     -45.535  61.898 -49.110  1.00  0.00    -0.356 OA
HETATM   19  C   UNL     1     -46.594  62.474 -49.866  1.00  0.00     0.210 C 
ENDBRANCH  15  18
ENDBRANCH   8  12
ENDBRANCH   5   6
ENDBRANCH   2   5
BRANCH   1  20
HETATM   20  N   UNL     1     -43.331  55.872 -56.359  1.00  0.00    -0.249 N 
HETATM   21  C   UNL     1     -42.918  54.714 -55.733  1.00  0.00     0.339 C 
HETATM   22  N   UNL     1     -41.954  54.912 -54.773  1.00  0.00    -0.307 N 
HETATM   23  O   UNL     1     -43.446  53.651 -56.040  1.00  0.00    -0.245 OA
HETATM   24  H   UNL     1     -41.752  55.885 -54.608  1.00  0.00     0.170 HD
HETATM   25  H   UNL     1     -43.890  55.691 -57.194  1.00  0.00     0.192 HD
BRANCH  22  26
HETATM   26  C   UNL     1     -41.317  53.942 -53.970  1.00  0.00     0.042 A 
HETATM   27  C   UNL     1     -41.456  54.014 -52.566  1.00  0.00    -0.034 A 
HETATM   28  C   UNL     1     -42.286  55.075 -51.894  1.00  0.00     0.050 C 
HETATM   29  C   UNL     1     -40.809  53.059 -51.759  1.00  0.00     0.032 A 
HETATM   30  C   UNL     1     -40.039  52.049 -52.331  1.00  0.00     0.034 A 
HETATM   31  C   UNL     1     -39.900  51.974 -53.709  1.00  0.00     0.026 A 
HETATM   32 CL   UNL     1     -39.259  50.892 -51.325  1.00  0.00    -0.084 Cl
HETATM   33  C   UNL     1     -40.535  52.917 -54.522  1.00  0.00     0.032 A 
ENDBRANCH  22  26
ENDBRANCH   1  20
TORSDOF 6
ENDMDL
MODEL 8
REMARK VINA RESULT:      -7.3      2.943      7.055
REMARK  6 active torsions:
REMARK  status: ('A' for Active; 'I' for Inactive)
REMARK    1  A    between atoms: C_3  and  N_4 
REMARK       I    between atoms: N_4  and  C_5 
REMARK       I    between atoms: C_5  and  N_6 
REMARK    2  A    between atoms: N_6  and  N_7 
REMARK       I    between atoms: N_7  and  C_8 
REMARK    3  A    between atoms: C_8  and  C_9 
REMARK    4  A    between atoms: C_9  and  N_10 
REMARK       I    between atoms: N_10  and  C_11 
REMARK       I    between atoms: C_11  and  N_12 
REMARK    5  A    between atoms: N_12  and  C_13 
REMARK    6  A    between atoms: C_16  and  O_17 
ROOT
HETATM    1  N   UNL     1     -44.708  56.930 -52.042  1.00  0.00    -0.265 N 
HETATM    2  C   UNL     1     -43.613  56.775 -51.201  1.00  0.00     0.253 C 
HETATM    3  O   UNL     1     -42.730  57.629 -51.107  1.00  0.00    -0.270 OA
HETATM    4  H   UNL     1     -45.570  56.448 -51.757  1.00  0.00     0.190 HD
ENDROOT
BRANCH   2   5
HETATM    5  C   UNL     1     -43.690  55.592 -50.235  1.00  0.00     0.228 C 
BRANCH   5   6
HETATM    6  N   UNL     1     -42.625  54.609 -50.300  1.00  0.00    -0.334 N 
HETATM    7  C   UNL     1     -41.418  54.789 -49.715  1.00  0.00     0.321 C 
HETATM    8  N   UNL     1     -40.401  53.971 -50.095  1.00  0.00    -0.309 N 
HETATM    9  O   UNL     1     -41.256  55.623 -48.825  1.00  0.00    -0.247 OA
HETATM   10  H   UNL     1     -39.603  54.053 -49.477  1.00  0.00     0.170 HD
HETATM   11  H   UNL     1     -42.864  53.658 -50.549  1.00  0.00     0.164 HD
BRANCH   8  12
HETATM   12  C   UNL     1     -40.195  53.207 -51.264  1.00  0.00     0.036 A 
HETATM   13  C   UNL     1     -39.733  51.891 -51.281  1.00  0.00     0.032 A 
HETATM   14  C   UNL     1     -39.602  51.199 -52.492  1.00  0.00     0.039 A 
HETATM   15  C   UNL     1     -39.958  51.796 -53.700  1.00  0.00     0.068 A 
HETATM   16  C   UNL     1     -40.428  53.106 -53.693  1.00  0.00     0.039 A 
HETATM   17  C   UNL     1     -40.549  53.803 -52.481  1.00  0.00     0.032 A 
BRANCH  15  18
HETATM   18  O   UNL     1     -39.800  51.003 -54.801  1.00  0.00    -0.356 OA
HETATM   19  C   UNL     1     -39.642  49.609 -54.566  1.00  0.00     0.210 C 
ENDBRANCH  15  18
ENDBRANCH   8  12
ENDBRANCH   5   6
ENDBRANCH   2   5
BRANCH   1  20
HETATM   20  N   UNL     1     -44.865  58.229 -52.583  1.00  0.00    -0.249 N 
HETATM   21  C   UNL     1     -44.553  58.521 -53.895  1.00  0.00     0.339 C 
HETATM   22  N   UNL     1     -44.591  57.432 -54.733  1.00  0.00    -0.307 N 
HETATM   23  O   UNL     1     -44.315  59.683 -54.205  1.00  0.00    -0.245 OA
HETATM   24  H   UNL     1     -44.924  56.595 -54.282  1.00  0.00     0.170 HD
HETATM   25  H   UNL     1     -44.641  58.993 -51.945  1.00  0.00     0.192 HD
BRANCH  22  26
HETATM   26  C   UNL     1     -44.311  57.391 -56.116  1.00  0.00     0.042 A 
HETATM   27  C   UNL     1     -43.232  56.603 -56.574  1.00  0.00    -0.034 A 
HETATM   28  C   UNL     1     -42.384  55.780 -55.642  1.00  0.00     0.050 C 
HETATM   29  C   UNL     1     -42.937  56.571 -57.951  1.00  0.00     0.032 A 
HETATM   30  C   UNL     1     -43.699  57.304 -58.858  1.00  0.00     0.034 A 
HETATM   31  C   UNL     1     -44.760  58.079 -58.412  1.00  0.00     0.026 A 
HETATM   32 CL   UNL     1     -43.322  57.249 -60.536  1.00  0.00    -0.084 Cl
HETATM   33  C   UNL     1     -45.062  58.121 -57.048  1.00  0.00     0.032 A 
ENDBRANCH  22  26
ENDBRANCH   1  20
TORSDOF 6
ENDMDL
MODEL 9
REMARK VINA RESULT:      -7.2      3.727      6.925
REMARK  6 active torsions:
REMARK  status: ('A' for Active; 'I' for Inactive)
REMARK    1  A    between atoms: C_3  and  N_4 
REMARK       I    between atoms: N_4  and  C_5 
REMARK       I    between atoms: C_5  and  N_6 
REMARK    2  A    between atoms: N_6  and  N_7 
REMARK       I    between atoms: N_7  and  C_8 
REMARK    3  A    between atoms: C_8  and  C_9 
REMARK    4  A    between atoms: C_9  and  N_10 
REMARK       I    between atoms: N_10  and  C_11 
REMARK       I    between atoms: C_11  and  N_12 
REMARK    5  A    between atoms: N_12  and  C_13 
REMARK    6  A    between atoms: C_16  and  O_17 
ROOT
HETATM    1  N   UNL     1     -42.311  57.680 -51.571  1.00  0.00    -0.265 N 
HETATM    2  C   UNL     1     -43.403  57.984 -52.373  1.00  0.00     0.253 C 
HETATM    3  O   UNL     1     -44.413  57.280 -52.405  1.00  0.00    -0.270 OA
HETATM    4  H   UNL     1     -41.742  58.476 -51.258  1.00  0.00     0.190 HD
ENDROOT
BRANCH   2   5
HETATM    5  C   UNL     1     -43.366  59.362 -53.035  1.00  0.00     0.228 C 
BRANCH   5   6
HETATM    6  N   UNL     1     -44.090  60.436 -52.379  1.00  0.00    -0.334 N 
HETATM    7  C   UNL     1     -43.684  61.727 -52.413  1.00  0.00     0.321 C 
HETATM    8  N   UNL     1     -44.240  62.589 -51.521  1.00  0.00    -0.309 N 
HETATM    9  O   UNL     1     -42.886  62.126 -53.260  1.00  0.00    -0.247 OA
HETATM   10  H   UNL     1     -44.021  63.553 -51.744  1.00  0.00     0.170 HD
HETATM   11  H   UNL     1     -45.055  60.277 -52.120  1.00  0.00     0.164 HD
BRANCH   8  12
HETATM   12  C   UNL     1     -44.875  62.377 -50.278  1.00  0.00     0.036 A 
HETATM   13  C   UNL     1     -46.178  62.771 -49.975  1.00  0.00     0.032 A 
HETATM   14  C   UNL     1     -46.737  62.476 -48.725  1.00  0.00     0.039 A 
HETATM   15  C   UNL     1     -46.019  61.759 -47.769  1.00  0.00     0.068 A 
HETATM   16  C   UNL     1     -44.720  61.354 -48.066  1.00  0.00     0.039 A 
HETATM   17  C   UNL     1     -44.156  61.659 -49.313  1.00  0.00     0.032 A 
BRANCH  15  18
HETATM   18  O   UNL     1     -46.690  61.523 -46.603  1.00  0.00    -0.356 OA
HETATM   19  C   UNL     1     -46.555  60.223 -46.041  1.00  0.00     0.210 C 
ENDBRANCH  15  18
ENDBRANCH   8  12
ENDBRANCH   5   6
ENDBRANCH   2   5
BRANCH   1  20
HETATM   20  N   UNL     1     -42.539  56.658 -50.618  1.00  0.00    -0.249 N 
HETATM   21  C   UNL     1     -42.273  55.330 -50.885  1.00  0.00     0.339 C 
HETATM   22  N   UNL     1     -41.334  55.137 -51.870  1.00  0.00    -0.307 N 
HETATM   23  O   UNL     1     -42.841  54.466 -50.228  1.00  0.00    -0.245 OA
HETATM   24  H   UNL     1     -40.914  55.995 -52.192  1.00  0.00     0.170 HD
HETATM   25  H   UNL     1     -43.369  56.784 -50.037  1.00  0.00     0.192 HD
BRANCH  22  26
HETATM   26  C   UNL     1     -40.855  53.913 -52.384  1.00  0.00     0.042 A 
HETATM   27  C   UNL     1     -41.252  53.511 -53.678  1.00  0.00    -0.034 A 
HETATM   28  C   UNL     1     -42.149  54.356 -54.543  1.00  0.00     0.050 C 
HETATM   29  C   UNL     1     -40.791  52.283 -54.191  1.00  0.00     0.032 A 
HETATM   30  C   UNL     1     -39.949  51.469 -53.436  1.00  0.00     0.034 A 
HETATM   31  C   UNL     1     -39.557  51.861 -52.164  1.00  0.00     0.026 A 
HETATM   32 CL   UNL     1     -39.397  49.973 -54.083  1.00  0.00    -0.084 Cl
HETATM   33  C   UNL     1     -40.009  53.076 -51.643  1.00  0.00     0.032 A 
ENDBRANCH  22  26
ENDBRANCH   1  20
TORSDOF 6
ENDMDL
MODEL 10
REMARK VINA RESULT:      -7.1      2.089      2.616
REMARK  6 active torsions:
REMARK  status: ('A' for Active; 'I' for Inactive)
REMARK    1  A    between atoms: C_3  and  N_4 
REMARK       I    between atoms: N_4  and  C_5 
REMARK       I    between atoms: C_5  and  N_6 
REMARK    2  A    between atoms: N_6  and  N_7 
REMARK       I    between atoms: N_7  and  C_8 
REMARK    3  A    between atoms: C_8  and  C_9 
REMARK    4  A    between atoms: C_9  and  N_10 
REMARK       I    between atoms: N_10  and  C_11 
REMARK       I    between atoms: C_11  and  N_12 
REMARK    5  A    between atoms: N_12  and  C_13 
REMARK    6  A    between atoms: C_16  and  O_17 
ROOT
HETATM    1  N   UNL     1     -45.653  59.846 -53.457  1.00  0.00    -0.265 N 
HETATM    2  C   UNL     1     -44.640  60.742 -53.769  1.00  0.00     0.253 C 
HETATM    3  O   UNL     1     -43.999  61.339 -52.903  1.00  0.00    -0.270 OA
HETATM    4  H   UNL     1     -45.821  59.095 -54.139  1.00  0.00     0.190 HD
ENDROOT
BRANCH   2   5
HETATM    5  C   UNL     1     -44.218  60.769 -55.238  1.00  0.00     0.228 C 
BRANCH   5   6
HETATM    6  N   UNL     1     -43.673  59.546 -55.798  1.00  0.00    -0.334 N 
HETATM    7  C   UNL     1     -42.349  59.265 -55.810  1.00  0.00     0.321 C 
HETATM    8  N   UNL     1     -41.921  58.265 -56.625  1.00  0.00    -0.309 N 
HETATM    9  O   UNL     1     -41.564  59.849 -55.064  1.00  0.00    -0.247 OA
HETATM   10  H   UNL     1     -40.962  58.004 -56.427  1.00  0.00     0.170 HD
HETATM   11  H   UNL     1     -44.298  58.762 -55.939  1.00  0.00     0.164 HD
BRANCH   8  12
HETATM   12  C   UNL     1     -42.486  57.688 -57.782  1.00  0.00     0.036 A 
HETATM   13  C   UNL     1     -42.472  58.272 -59.049  1.00  0.00     0.032 A 
HETATM   14  C   UNL     1     -43.022  57.599 -60.148  1.00  0.00     0.039 A 
HETATM   15  C   UNL     1     -43.566  56.323 -60.008  1.00  0.00     0.068 A 
HETATM   16  C   UNL     1     -43.576  55.729 -58.750  1.00  0.00     0.039 A 
HETATM   17  C   UNL     1     -43.036  56.407 -57.647  1.00  0.00     0.032 A 
BRANCH  15  18
HETATM   18  O   UNL     1     -44.048  55.775 -61.163  1.00  0.00    -0.356 OA
HETATM   19  C   UNL     1     -45.079  54.805 -61.027  1.00  0.00     0.210 C 
ENDBRANCH  15  18
ENDBRANCH   8  12
ENDBRANCH   5   6
ENDBRANCH   2   5
BRANCH   1  20
HETATM   20  N   UNL     1     -45.725  59.480 -52.091  1.00  0.00    -0.249 N 
HETATM   21  C   UNL     1     -45.028  58.404 -51.580  1.00  0.00     0.339 C 
HETATM   22  N   UNL     1     -43.917  58.062 -52.312  1.00  0.00    -0.307 N 
HETATM   23  O   UNL     1     -45.415  57.886 -50.539  1.00  0.00    -0.245 OA
HETATM   24  H   UNL     1     -43.726  58.700 -53.068  1.00  0.00     0.170 HD
HETATM   25  H   UNL     1     -46.643  59.596 -51.660  1.00  0.00     0.192 HD
BRANCH  22  26
HETATM   26  C   UNL     1     -43.008  57.009 -52.069  1.00  0.00     0.042 A 
HETATM   27  C   UNL     1     -42.989  55.903 -52.947  1.00  0.00    -0.034 A 
HETATM   28  C   UNL     1     -43.885  55.818 -54.153  1.00  0.00     0.050 C 
HETATM   29  C   UNL     1     -42.096  54.843 -52.701  1.00  0.00     0.032 A 
HETATM   30  C   UNL     1     -41.236  54.877 -51.606  1.00  0.00     0.034 A 
HETATM   31  C   UNL     1     -41.251  55.962 -50.741  1.00  0.00     0.026 A 
HETATM   32 CL   UNL     1     -40.152  53.571 -51.325  1.00  0.00    -0.084 Cl
HETATM   33  C   UNL     1     -42.134  57.020 -50.973  1.00  0.00     0.032 A 
ENDBRANCH  22  26
ENDBRANCH   1  20
TORSDOF 6
ENDMDL
