MODEL 1
REMARK VINA RESULT:      -8.4      0.000      0.000
REMARK  4 active torsions:
REMARK  status: ('A' for Active; 'I' for Inactive)
REMARK    1  A    between atoms: C_4  and  O_5 
REMARK    2  A    between atoms: C_6  and  C_7 
REMARK    3  A    between atoms: C_11  and  C_12 
REMARK       I    between atoms: C_12  and  N_13 
REMARK    4  A    between atoms: C_19  and  O_20 
ROOT
HETATM    1  C   UNL     1     -44.259  57.468 -58.177  1.00  0.00     0.065 A 
HETATM    2  N   UNL     1     -43.028  56.887 -58.318  1.00  0.00    -0.277 N 
HETATM    3  H   UNL     1     -42.747  56.268 -59.074  1.00  0.00     0.189 HD
HETATM    4  N   UNL     1     -42.124  57.252 -57.391  1.00  0.00    -0.169 NA
HETATM    5  C   UNL     1     -42.822  58.033 -56.540  1.00  0.00     0.148 A 
HETATM    6  C   UNL     1     -44.157  58.197 -57.008  1.00  0.00     0.071 A 
ENDROOT
BRANCH   5   7
HETATM    7  C   UNL     1     -42.240  58.707 -55.351  1.00  0.00     0.299 C 
HETATM    8  N   UNL     1     -42.356  58.066 -54.144  1.00  0.00    -0.189 NA
HETATM    9  C   UNL     1     -41.776  56.931 -53.980  1.00  0.00     0.154 C 
HETATM   10  S   UNL     1     -41.821  56.222 -52.330  1.00  0.00    -0.056 SA
HETATM   11  N   UNL     1     -41.109  56.089 -54.850  1.00  0.00    -0.236 NA
HETATM   12  C   UNL     1     -41.072  54.724 -52.925  1.00  0.00     0.032 A 
HETATM   13  C   UNL     1     -40.821  54.828 -54.296  1.00  0.00     0.032 A 
HETATM   14  C   UNL     1     -40.782  53.569 -52.220  1.00  0.00     0.057 A 
HETATM   15  C   UNL     1     -40.243  53.770 -54.980  1.00  0.00     0.028 A 
HETATM   16  C   UNL     1     -39.951  52.592 -54.280  1.00  0.00     0.038 A 
HETATM   17  C   UNL     1     -40.218  52.488 -52.905  1.00  0.00     0.069 A 
HETATM   18  H   UNL     1     -41.493  56.061 -55.793  1.00  0.00     0.136 HD
HETATM   19  O   UNL     1     -41.726  59.817 -55.455  1.00  0.00    -0.263 OA
BRANCH  17  20
HETATM   20  O   UNL     1     -39.970  51.390 -52.126  1.00  0.00    -0.356 OA
HETATM   21  C   UNL     1     -39.605  50.190 -52.796  1.00  0.00     0.210 C 
ENDBRANCH  17  20
ENDBRANCH   5   7
BRANCH   1  22
HETATM   22  C   UNL     1     -45.349  57.282 -59.145  1.00  0.00     0.025 A 
HETATM   23  C   UNL     1     -45.608  56.044 -59.764  1.00  0.00     0.078 A 
HETATM   24  C   UNL     1     -46.631  55.902 -60.710  1.00  0.00     0.044 A 
HETATM   25  C   UNL     1     -47.417  57.003 -61.067  1.00  0.00    -0.059 A 
HETATM   26  C   UNL     1     -48.528  56.861 -62.065  1.00  0.00     0.048 C 
HETATM   27  C   UNL     1     -47.186  58.231 -60.441  1.00  0.00     0.008 A 
HETATM   28  C   UNL     1     -46.163  58.368 -59.497  1.00  0.00     0.017 A 
BRANCH  23  29
HETATM   29  O   UNL     1     -44.847  54.943 -59.446  1.00  0.00    -0.360 OA
HETATM   30  H   UNL     1     -45.448  54.230 -59.168  1.00  0.00     0.217 HD
ENDBRANCH  23  29
ENDBRANCH   1  22
TORSDOF 4
ENDMDL
MODEL 2
REMARK VINA RESULT:      -8.3      3.835      8.309
REMARK  4 active torsions:
REMARK  status: ('A' for Active; 'I' for Inactive)
REMARK    1  A    between atoms: C_4  and  O_5 
REMARK    2  A    between atoms: C_6  and  C_7 
REMARK    3  A    between atoms: C_11  and  C_12 
REMARK       I    between atoms: C_12  and  N_13 
REMARK    4  A    between atoms: C_19  and  O_20 
ROOT
HETATM    1  C   UNL     1     -41.716  54.757 -51.943  1.00  0.00     0.065 A 
HETATM    2  N   UNL     1     -41.044  55.590 -51.089  1.00  0.00    -0.277 N 
HETATM    3  H   UNL     1     -40.097  55.449 -50.747  1.00  0.00     0.189 HD
HETATM    4  N   UNL     1     -41.706  56.713 -50.760  1.00  0.00    -0.169 NA
HETATM    5  C   UNL     1     -42.914  56.566 -51.344  1.00  0.00     0.148 A 
HETATM    6  C   UNL     1     -42.950  55.360 -52.100  1.00  0.00     0.071 A 
ENDROOT
BRANCH   5   7
HETATM    7  C   UNL     1     -44.001  57.578 -51.289  1.00  0.00     0.299 C 
HETATM    8  N   UNL     1     -43.733  58.819 -51.806  1.00  0.00    -0.189 NA
HETATM    9  C   UNL     1     -43.478  58.933 -53.060  1.00  0.00     0.154 C 
HETATM   10  S   UNL     1     -43.303  60.598 -53.710  1.00  0.00    -0.056 SA
HETATM   11  N   UNL     1     -43.281  58.000 -54.061  1.00  0.00    -0.236 NA
HETATM   12  C   UNL     1     -42.803  59.958 -55.290  1.00  0.00     0.032 A 
HETATM   13  C   UNL     1     -42.800  58.560 -55.259  1.00  0.00     0.032 A 
HETATM   14  C   UNL     1     -42.418  60.658 -56.420  1.00  0.00     0.057 A 
HETATM   15  C   UNL     1     -42.434  57.839 -56.385  1.00  0.00     0.028 A 
HETATM   16  C   UNL     1     -42.036  58.536 -57.534  1.00  0.00     0.038 A 
HETATM   17  C   UNL     1     -42.027  59.940 -57.555  1.00  0.00     0.069 A 
HETATM   18  H   UNL     1     -42.798  57.154 -53.765  1.00  0.00     0.136 HD
HETATM   19  O   UNL     1     -45.071  57.311 -50.750  1.00  0.00    -0.263 OA
BRANCH  17  20
HETATM   20  O   UNL     1     -41.662  60.719 -58.620  1.00  0.00    -0.356 OA
HETATM   21  C   UNL     1     -40.844  61.850 -58.344  1.00  0.00     0.210 C 
ENDBRANCH  17  20
ENDBRANCH   5   7
BRANCH   1  22
HETATM   22  C   UNL     1     -41.125  53.535 -52.503  1.00  0.00     0.025 A 
HETATM   23  C   UNL     1     -40.225  52.729 -51.780  1.00  0.00     0.078 A 
HETATM   24  C   UNL     1     -39.648  51.588 -52.350  1.00  0.00     0.044 A 
HETATM   25  C   UNL     1     -39.952  51.229 -53.667  1.00  0.00    -0.059 A 
HETATM   26  C   UNL     1     -39.354  49.999 -54.285  1.00  0.00     0.048 C 
HETATM   27  C   UNL     1     -40.863  52.007 -54.387  1.00  0.00     0.008 A 
HETATM   28  C   UNL     1     -41.437  53.146 -53.813  1.00  0.00     0.017 A 
BRANCH  23  29
HETATM   29  O   UNL     1     -39.894  53.058 -50.486  1.00  0.00    -0.360 OA
HETATM   30  H   UNL     1     -40.508  53.751 -50.183  1.00  0.00     0.217 HD
ENDBRANCH  23  29
ENDBRANCH   1  22
TORSDOF 4
ENDMDL
MODEL 3
REMARK VINA RESULT:      -8.1      2.658      8.455
REMARK  4 active torsions:
REMARK  status: ('A' for Active; 'I' for Inactive)
REMARK    1  A    between atoms: C_4  and  O_5 
REMARK    2  A    between atoms: C_6  and  C_7 
REMARK    3  A    between atoms: C_11  and  C_12 
REMARK       I    between atoms: C_12  and  N_13 
REMARK    4  A    between atoms: C_19  and  O_20 
ROOT
HETATM    1  C   UNL     1     -41.229  55.421 -53.074  1.00  0.00     0.065 A 
HETATM    2  N   UNL     1     -42.315  55.824 -52.344  1.00  0.00    -0.277 N 
HETATM    3  H   UNL     1     -42.940  55.213 -51.823  1.00  0.00     0.189 HD
HETATM    4  N   UNL     1     -42.489  57.156 -52.281  1.00  0.00    -0.169 NA
HETATM    5  C   UNL     1     -41.530  57.651 -53.092  1.00  0.00     0.148 A 
HETATM    6  C   UNL     1     -40.719  56.594 -53.595  1.00  0.00     0.071 A 
ENDROOT
BRANCH   5   7
HETATM    7  C   UNL     1     -41.299  59.100 -53.329  1.00  0.00     0.299 C 
HETATM    8  N   UNL     1     -41.325  59.537 -54.629  1.00  0.00    -0.189 NA
HETATM    9  C   UNL     1     -42.416  59.442 -55.300  1.00  0.00     0.154 C 
HETATM   10  S   UNL     1     -42.436  60.184 -56.936  1.00  0.00    -0.056 SA
HETATM   11  N   UNL     1     -43.631  58.843 -55.026  1.00  0.00    -0.236 NA
HETATM   12  C   UNL     1     -44.048  59.507 -57.252  1.00  0.00     0.032 A 
HETATM   13  C   UNL     1     -44.488  58.781 -56.141  1.00  0.00     0.032 A 
HETATM   14  C   UNL     1     -44.808  59.597 -58.405  1.00  0.00     0.057 A 
HETATM   15  C   UNL     1     -45.723  58.154 -56.163  1.00  0.00     0.028 A 
HETATM   16  C   UNL     1     -46.500  58.232 -57.327  1.00  0.00     0.038 A 
HETATM   17  C   UNL     1     -46.047  58.950 -58.446  1.00  0.00     0.069 A 
HETATM   18  H   UNL     1     -43.568  57.979 -54.491  1.00  0.00     0.136 HD
HETATM   19  O   UNL     1     -41.045  59.850 -52.392  1.00  0.00    -0.263 OA
BRANCH  17  20
HETATM   20  O   UNL     1     -46.723  59.094 -59.627  1.00  0.00    -0.356 OA
HETATM   21  C   UNL     1     -46.076  59.832 -60.657  1.00  0.00     0.210 C 
ENDBRANCH  17  20
ENDBRANCH   5   7
BRANCH   1  22
HETATM   22  C   UNL     1     -40.808  54.018 -53.176  1.00  0.00     0.025 A 
HETATM   23  C   UNL     1     -40.275  53.305 -52.084  1.00  0.00     0.078 A 
HETATM   24  C   UNL     1     -39.848  51.979 -52.218  1.00  0.00     0.044 A 
HETATM   25  C   UNL     1     -39.935  51.332 -53.455  1.00  0.00    -0.059 A 
HETATM   26  C   UNL     1     -39.498  49.906 -53.609  1.00  0.00     0.048 C 
HETATM   27  C   UNL     1     -40.485  52.021 -54.540  1.00  0.00     0.008 A 
HETATM   28  C   UNL     1     -40.911  53.346 -54.402  1.00  0.00     0.017 A 
BRANCH  23  29
HETATM   29  O   UNL     1     -40.164  53.913 -50.855  1.00  0.00    -0.360 OA
HETATM   30  H   UNL     1     -39.218  54.043 -50.666  1.00  0.00     0.217 HD
ENDBRANCH  23  29
ENDBRANCH   1  22
TORSDOF 4
ENDMDL
MODEL 4
REMARK VINA RESULT:      -8.0      1.229      1.504
REMARK  4 active torsions:
REMARK  status: ('A' for Active; 'I' for Inactive)
REMARK    1  A    between atoms: C_4  and  O_5 
REMARK    2  A    between atoms: C_6  and  C_7 
REMARK    3  A    between atoms: C_11  and  C_12 
REMARK       I    between atoms: C_12  and  N_13 
REMARK    4  A    between atoms: C_19  and  O_20 
ROOT
HETATM    1  C   UNL     1     -43.573  58.262 -57.012  1.00  0.00     0.065 A 
HETATM    2  N   UNL     1     -42.534  59.092 -57.338  1.00  0.00    -0.277 N 
HETATM    3  H   UNL     1     -42.314  59.428 -58.272  1.00  0.00     0.189 HD
HETATM    4  N   UNL     1     -41.815  59.531 -56.291  1.00  0.00    -0.169 NA
HETATM    5  C   UNL     1     -42.342  58.879 -55.232  1.00  0.00     0.148 A 
HETATM    6  C   UNL     1     -43.450  58.087 -55.647  1.00  0.00     0.071 A 
ENDROOT
BRANCH   5   7
HETATM    7  C   UNL     1     -41.891  59.059 -53.828  1.00  0.00     0.299 C 
HETATM    8  N   UNL     1     -42.163  58.045 -52.945  1.00  0.00    -0.189 NA
HETATM    9  C   UNL     1     -41.629  56.891 -53.134  1.00  0.00     0.154 C 
HETATM   10  S   UNL     1     -41.885  55.655 -51.856  1.00  0.00    -0.056 SA
HETATM   11  N   UNL     1     -40.881  56.367 -54.171  1.00  0.00    -0.236 NA
HETATM   12  C   UNL     1     -41.101  54.416 -52.860  1.00  0.00     0.032 A 
HETATM   13  C   UNL     1     -40.687  54.977 -54.073  1.00  0.00     0.032 A 
HETATM   14  C   UNL     1     -40.920  53.072 -52.584  1.00  0.00     0.057 A 
HETATM   15  C   UNL     1     -40.053  54.191 -55.022  1.00  0.00     0.028 A 
HETATM   16  C   UNL     1     -39.870  52.827 -54.758  1.00  0.00     0.038 A 
HETATM   17  C   UNL     1     -40.301  52.266 -53.545  1.00  0.00     0.069 A 
HETATM   18  H   UNL     1     -41.151  56.693 -55.097  1.00  0.00     0.136 HD
HETATM   19  O   UNL     1     -41.346  60.101 -53.478  1.00  0.00    -0.263 OA
BRANCH  17  20
HETATM   20  O   UNL     1     -40.170  50.953 -53.183  1.00  0.00    -0.356 OA
HETATM   21  C   UNL     1     -39.529  50.087 -54.112  1.00  0.00     0.210 C 
ENDBRANCH  17  20
ENDBRANCH   5   7
BRANCH   1  22
HETATM   22  C   UNL     1     -44.539  57.760 -57.999  1.00  0.00     0.025 A 
HETATM   23  C   UNL     1     -44.158  56.958 -59.092  1.00  0.00     0.078 A 
HETATM   24  C   UNL     1     -45.094  56.523 -60.038  1.00  0.00     0.044 A 
HETATM   25  C   UNL     1     -46.439  56.889 -59.917  1.00  0.00    -0.059 A 
HETATM   26  C   UNL     1     -47.455  56.416 -60.914  1.00  0.00     0.048 C 
HETATM   27  C   UNL     1     -46.833  57.664 -58.823  1.00  0.00     0.008 A 
HETATM   28  C   UNL     1     -45.895  58.097 -57.881  1.00  0.00     0.017 A 
BRANCH  23  29
HETATM   29  O   UNL     1     -42.842  56.589 -59.248  1.00  0.00    -0.360 OA
HETATM   30  H   UNL     1     -42.679  56.444 -60.196  1.00  0.00     0.217 HD
ENDBRANCH  23  29
ENDBRANCH   1  22
TORSDOF 4
ENDMDL
MODEL 5
REMARK VINA RESULT:      -7.8      2.418      3.257
REMARK  4 active torsions:
REMARK  status: ('A' for Active; 'I' for Inactive)
REMARK    1  A    between atoms: C_4  and  O_5 
REMARK    2  A    between atoms: C_6  and  C_7 
REMARK    3  A    between atoms: C_11  and  C_12 
REMARK       I    between atoms: C_12  and  N_13 
REMARK    4  A    between atoms: C_19  and  O_20 
ROOT
HETATM    1  C   UNL     1     -43.689  57.386 -55.098  1.00  0.00     0.065 A 
HETATM    2  N   UNL     1     -44.708  57.395 -54.183  1.00  0.00    -0.277 N 
HETATM    3  H   UNL     1     -45.690  57.230 -54.388  1.00  0.00     0.189 HD
HETATM    4  N   UNL     1     -44.319  57.572 -52.908  1.00  0.00    -0.169 NA
HETATM    5  C   UNL     1     -42.989  57.791 -52.997  1.00  0.00     0.148 A 
HETATM    6  C   UNL     1     -42.562  57.671 -54.350  1.00  0.00     0.071 A 
ENDROOT
BRANCH   5   7
HETATM    7  C   UNL     1     -42.097  58.014 -51.831  1.00  0.00     0.299 C 
HETATM    8  N   UNL     1     -41.938  56.974 -50.951  1.00  0.00    -0.189 NA
HETATM    9  C   UNL     1     -41.392  55.886 -51.360  1.00  0.00     0.154 C 
HETATM   10  S   UNL     1     -41.058  54.625 -50.124  1.00  0.00    -0.056 SA
HETATM   11  N   UNL     1     -41.004  55.449 -52.613  1.00  0.00    -0.236 NA
HETATM   12  C   UNL     1     -40.554  53.482 -51.388  1.00  0.00     0.032 A 
HETATM   13  C   UNL     1     -40.649  54.088 -52.644  1.00  0.00     0.032 A 
HETATM   14  C   UNL     1     -40.154  52.165 -51.247  1.00  0.00     0.057 A 
HETATM   15  C   UNL     1     -40.312  53.379 -53.786  1.00  0.00     0.028 A 
HETATM   16  C   UNL     1     -39.912  52.042 -53.658  1.00  0.00     0.038 A 
HETATM   17  C   UNL     1     -39.833  51.433 -52.394  1.00  0.00     0.069 A 
HETATM   18  H   UNL     1     -41.613  55.746 -53.373  1.00  0.00     0.136 HD
HETATM   19  O   UNL     1     -41.572  59.109 -51.651  1.00  0.00    -0.263 OA
BRANCH  17  20
HETATM   20  O   UNL     1     -39.451  50.141 -52.154  1.00  0.00    -0.356 OA
HETATM   21  C   UNL     1     -39.533  49.682 -50.811  1.00  0.00     0.210 C 
ENDBRANCH  17  20
ENDBRANCH   5   7
BRANCH   1  22
HETATM   22  C   UNL     1     -43.894  57.103 -56.524  1.00  0.00     0.025 A 
HETATM   23  C   UNL     1     -44.814  57.819 -57.314  1.00  0.00     0.078 A 
HETATM   24  C   UNL     1     -45.017  57.505 -58.663  1.00  0.00     0.044 A 
HETATM   25  C   UNL     1     -44.306  56.456 -59.256  1.00  0.00    -0.059 A 
HETATM   26  C   UNL     1     -44.499  56.120 -60.705  1.00  0.00     0.048 C 
HETATM   27  C   UNL     1     -43.372  55.754 -58.489  1.00  0.00     0.008 A 
HETATM   28  C   UNL     1     -43.173  56.071 -57.141  1.00  0.00     0.017 A 
BRANCH  23  29
HETATM   29  O   UNL     1     -45.539  58.849 -56.761  1.00  0.00    -0.360 OA
HETATM   30  H   UNL     1     -44.947  59.613 -56.655  1.00  0.00     0.217 HD
ENDBRANCH  23  29
ENDBRANCH   1  22
TORSDOF 4
ENDMDL
MODEL 6
REMARK VINA RESULT:      -7.6      3.232      8.528
REMARK  4 active torsions:
REMARK  status: ('A' for Active; 'I' for Inactive)
REMARK    1  A    between atoms: C_4  and  O_5 
REMARK    2  A    between atoms: C_6  and  C_7 
REMARK    3  A    between atoms: C_11  and  C_12 
REMARK       I    between atoms: C_12  and  N_13 
REMARK    4  A    between atoms: C_19  and  O_20 
ROOT
HETATM    1  C   UNL     1     -41.934  55.188 -51.355  1.00  0.00     0.065 A 
HETATM    2  N   UNL     1     -41.294  56.371 -51.101  1.00  0.00    -0.277 N 
HETATM    3  H   UNL     1     -40.313  56.472 -50.850  1.00  0.00     0.189 HD
HETATM    4  N   UNL     1     -42.048  57.469 -51.281  1.00  0.00    -0.169 NA
HETATM    5  C   UNL     1     -43.274  56.984 -51.570  1.00  0.00     0.148 A 
HETATM    6  C   UNL     1     -43.234  55.561 -51.635  1.00  0.00     0.071 A 
ENDROOT
BRANCH   5   7
HETATM    7  C   UNL     1     -44.457  57.826 -51.882  1.00  0.00     0.299 C 
HETATM    8  N   UNL     1     -44.351  58.695 -52.937  1.00  0.00    -0.189 NA
HETATM    9  C   UNL     1     -44.179  58.225 -54.121  1.00  0.00     0.154 C 
HETATM   10  S   UNL     1     -44.217  59.399 -55.479  1.00  0.00    -0.056 SA
HETATM   11  N   UNL     1     -43.938  56.948 -54.592  1.00  0.00    -0.236 NA
HETATM   12  C   UNL     1     -43.738  58.129 -56.626  1.00  0.00     0.032 A 
HETATM   13  C   UNL     1     -43.585  56.912 -55.953  1.00  0.00     0.032 A 
HETATM   14  C   UNL     1     -43.492  58.243 -57.983  1.00  0.00     0.057 A 
HETATM   15  C   UNL     1     -43.206  55.776 -56.649  1.00  0.00     0.028 A 
HETATM   16  C   UNL     1     -42.947  55.879 -58.023  1.00  0.00     0.038 A 
HETATM   17  C   UNL     1     -43.088  57.106 -58.690  1.00  0.00     0.069 A 
HETATM   18  H   UNL     1     -43.353  56.375 -53.987  1.00  0.00     0.136 HD
HETATM   19  O   UNL     1     -45.462  57.769 -51.180  1.00  0.00    -0.263 OA
BRANCH  17  20
HETATM   20  O   UNL     1     -42.867  57.318 -60.024  1.00  0.00    -0.356 OA
HETATM   21  C   UNL     1     -42.014  58.401 -60.374  1.00  0.00     0.210 C 
ENDBRANCH  17  20
ENDBRANCH   5   7
BRANCH   1  22
HETATM   22  C   UNL     1     -41.257  53.885 -51.319  1.00  0.00     0.025 A 
HETATM   23  C   UNL     1     -40.958  53.220 -50.114  1.00  0.00     0.078 A 
HETATM   24  C   UNL     1     -40.280  51.996 -50.106  1.00  0.00     0.044 A 
HETATM   25  C   UNL     1     -39.873  51.408 -51.308  1.00  0.00    -0.059 A 
HETATM   26  C   UNL     1     -39.161  50.088 -51.316  1.00  0.00     0.048 C 
HETATM   27  C   UNL     1     -40.185  52.046 -52.512  1.00  0.00     0.008 A 
HETATM   28  C   UNL     1     -40.863  53.269 -52.515  1.00  0.00     0.017 A 
BRANCH  23  29
HETATM   29  O   UNL     1     -41.333  53.774 -48.912  1.00  0.00    -0.360 OA
HETATM   30  H   UNL     1     -40.781  53.382 -48.213  1.00  0.00     0.217 HD
ENDBRANCH  23  29
ENDBRANCH   1  22
TORSDOF 4
ENDMDL
MODEL 7
REMARK VINA RESULT:      -7.5      3.046      3.204
REMARK  4 active torsions:
REMARK  status: ('A' for Active; 'I' for Inactive)
REMARK    1  A    between atoms: C_4  and  O_5 
REMARK    2  A    between atoms: C_6  and  C_7 
REMARK    3  A    between atoms: C_11  and  C_12 
REMARK       I    between atoms: C_12  and  N_13 
REMARK    4  A    between atoms: C_19  and  O_20 
ROOT
HETATM    1  C   UNL     1     -42.707  59.354 -56.870  1.00  0.00     0.065 A 
HETATM    2  N   UNL     1     -43.573  58.421 -56.366  1.00  0.00    -0.277 N 
HETATM    3  H   UNL     1     -44.256  57.894 -56.905  1.00  0.00     0.189 HD
HETATM    4  N   UNL     1     -43.423  58.163 -55.055  1.00  0.00    -0.169 NA
HETATM    5  C   UNL     1     -42.479  59.041 -54.652  1.00  0.00     0.148 A 
HETATM    6  C   UNL     1     -42.004  59.793 -55.764  1.00  0.00     0.071 A 
ENDROOT
BRANCH   5   7
HETATM    7  C   UNL     1     -41.946  59.124 -53.268  1.00  0.00     0.299 C 
HETATM    8  N   UNL     1     -42.157  58.045 -52.447  1.00  0.00    -0.189 NA
HETATM    9  C   UNL     1     -41.628  56.915 -52.751  1.00  0.00     0.154 C 
HETATM   10  S   UNL     1     -41.797  55.586 -51.554  1.00  0.00    -0.056 SA
HETATM   11  N   UNL     1     -40.939  56.476 -53.867  1.00  0.00    -0.236 NA
HETATM   12  C   UNL     1     -41.066  54.433 -52.691  1.00  0.00     0.032 A 
HETATM   13  C   UNL     1     -40.730  55.084 -53.882  1.00  0.00     0.032 A 
HETATM   14  C   UNL     1     -40.859  53.075 -52.525  1.00  0.00     0.057 A 
HETATM   15  C   UNL     1     -40.149  54.377 -54.922  1.00  0.00     0.028 A 
HETATM   16  C   UNL     1     -39.940  53.000 -54.770  1.00  0.00     0.038 A 
HETATM   17  C   UNL     1     -40.294  52.347 -53.577  1.00  0.00     0.069 A 
HETATM   18  H   UNL     1     -41.267  56.865 -54.749  1.00  0.00     0.136 HD
HETATM   19  O   UNL     1     -41.389  60.144 -52.877  1.00  0.00    -0.263 OA
BRANCH  17  20
HETATM   20  O   UNL     1     -40.131  51.013 -53.321  1.00  0.00    -0.356 OA
HETATM   21  C   UNL     1     -39.866  50.168 -54.434  1.00  0.00     0.210 C 
ENDBRANCH  17  20
ENDBRANCH   5   7
BRANCH   1  22
HETATM   22  C   UNL     1     -42.640  59.699 -58.296  1.00  0.00     0.025 A 
HETATM   23  C   UNL     1     -42.125  58.816 -59.265  1.00  0.00     0.078 A 
HETATM   24  C   UNL     1     -42.040  59.183 -60.613  1.00  0.00     0.044 A 
HETATM   25  C   UNL     1     -42.462  60.451 -61.026  1.00  0.00    -0.059 A 
HETATM   26  C   UNL     1     -42.393  60.852 -62.470  1.00  0.00     0.048 C 
HETATM   27  C   UNL     1     -42.998  61.327 -60.078  1.00  0.00     0.008 A 
HETATM   28  C   UNL     1     -43.081  60.957 -58.732  1.00  0.00     0.017 A 
BRANCH  23  29
HETATM   29  O   UNL     1     -41.691  57.565 -58.893  1.00  0.00    -0.360 OA
HETATM   30  H   UNL     1     -41.814  56.965 -59.649  1.00  0.00     0.217 HD
ENDBRANCH  23  29
ENDBRANCH   1  22
TORSDOF 4
ENDMDL
MODEL 8
REMARK VINA RESULT:      -7.5      5.881      8.752
REMARK  4 active torsions:
REMARK  status: ('A' for Active; 'I' for Inactive)
REMARK    1  A    between atoms: C_4  and  O_5 
REMARK    2  A    between atoms: C_6  and  C_7 
REMARK    3  A    between atoms: C_11  and  C_12 
REMARK       I    between atoms: C_12  and  N_13 
REMARK    4  A    between atoms: C_19  and  O_20 
ROOT
HETATM    1  C   UNL     1     -45.148  60.441 -49.757  1.00  0.00     0.065 A 
HETATM    2  N   UNL     1     -45.498  59.122 -49.869  1.00  0.00    -0.277 N 
HETATM    3  H   UNL     1     -45.820  58.527 -49.110  1.00  0.00     0.189 HD
HETATM    4  N   UNL     1     -45.466  58.635 -51.122  1.00  0.00    -0.169 NA
HETATM    5  C   UNL     1     -44.973  59.654 -51.859  1.00  0.00     0.148 A 
HETATM    6  C   UNL     1     -44.775  60.801 -51.037  1.00  0.00     0.071 A 
ENDROOT
BRANCH   5   7
HETATM    7  C   UNL     1     -44.777  59.607 -53.331  1.00  0.00     0.299 C 
HETATM    8  N   UNL     1     -43.563  59.164 -53.790  1.00  0.00    -0.189 NA
HETATM    9  C   UNL     1     -43.205  57.954 -53.546  1.00  0.00     0.154 C 
HETATM   10  S   UNL     1     -41.687  57.381 -54.315  1.00  0.00    -0.056 SA
HETATM   11  N   UNL     1     -43.757  56.957 -52.763  1.00  0.00    -0.236 NA
HETATM   12  C   UNL     1     -41.772  55.856 -53.409  1.00  0.00     0.032 A 
HETATM   13  C   UNL     1     -42.911  55.845 -52.599  1.00  0.00     0.032 A 
HETATM   14  C   UNL     1     -40.874  54.803 -53.410  1.00  0.00     0.057 A 
HETATM   15  C   UNL     1     -43.181  54.751 -51.791  1.00  0.00     0.028 A 
HETATM   16  C   UNL     1     -42.276  53.681 -51.778  1.00  0.00     0.038 A 
HETATM   17  C   UNL     1     -41.125  53.704 -52.583  1.00  0.00     0.069 A 
HETATM   18  H   UNL     1     -44.198  57.285 -51.906  1.00  0.00     0.136 HD
HETATM   19  O   UNL     1     -45.659  60.002 -54.088  1.00  0.00    -0.263 OA
BRANCH  17  20
HETATM   20  O   UNL     1     -40.181  52.715 -52.651  1.00  0.00    -0.356 OA
HETATM   21  C   UNL     1     -39.815  52.085 -51.429  1.00  0.00     0.210 C 
ENDBRANCH  17  20
ENDBRANCH   5   7
BRANCH   1  22
HETATM   22  C   UNL     1     -45.221  61.184 -48.493  1.00  0.00     0.025 A 
HETATM   23  C   UNL     1     -45.779  60.636 -47.322  1.00  0.00     0.078 A 
HETATM   24  C   UNL     1     -45.869  61.380 -46.139  1.00  0.00     0.044 A 
HETATM   25  C   UNL     1     -45.407  62.699 -46.101  1.00  0.00    -0.059 A 
HETATM   26  C   UNL     1     -45.480  63.502 -44.836  1.00  0.00     0.048 C 
HETATM   27  C   UNL     1     -44.828  63.247 -47.249  1.00  0.00     0.008 A 
HETATM   28  C   UNL     1     -44.741  62.500 -48.429  1.00  0.00     0.017 A 
BRANCH  23  29
HETATM   29  O   UNL     1     -46.254  59.345 -47.327  1.00  0.00    -0.360 OA
HETATM   30  H   UNL     1     -46.426  59.082 -46.405  1.00  0.00     0.217 HD
ENDBRANCH  23  29
ENDBRANCH   1  22
TORSDOF 4
ENDMDL
MODEL 9
REMARK VINA RESULT:      -7.4      3.446      8.294
REMARK  4 active torsions:
REMARK  status: ('A' for Active; 'I' for Inactive)
REMARK    1  A    between atoms: C_4  and  O_5 
REMARK    2  A    between atoms: C_6  and  C_7 
REMARK    3  A    between atoms: C_11  and  C_12 
REMARK       I    between atoms: C_12  and  N_13 
REMARK    4  A    between atoms: C_19  and  O_20 
ROOT
HETATM    1  C   UNL     1     -41.432  56.056 -53.519  1.00  0.00     0.065 A 
HETATM    2  N   UNL     1     -40.610  57.143 -53.648  1.00  0.00    -0.277 N 
HETATM    3  H   UNL     1     -39.594  57.119 -53.682  1.00  0.00     0.189 HD
HETATM    4  N   UNL     1     -41.249  58.316 -53.811  1.00  0.00    -0.169 NA
HETATM    5  C   UNL     1     -42.556  57.999 -53.682  1.00  0.00     0.148 A 
HETATM    6  C   UNL     1     -42.705  56.594 -53.510  1.00  0.00     0.071 A 
ENDROOT
BRANCH   5   7
HETATM    7  C   UNL     1     -43.671  58.972 -53.814  1.00  0.00     0.299 C 
HETATM    8  N   UNL     1     -43.468  60.055 -54.631  1.00  0.00    -0.189 NA
HETATM    9  C   UNL     1     -43.278  59.865 -55.887  1.00  0.00     0.154 C 
HETATM   10  S   UNL     1     -43.189  61.324 -56.930  1.00  0.00    -0.056 SA
HETATM   11  N   UNL     1     -43.099  58.720 -56.641  1.00  0.00    -0.236 NA
HETATM   12  C   UNL     1     -42.745  60.328 -58.332  1.00  0.00     0.032 A 
HETATM   13  C   UNL     1     -42.695  58.980 -57.964  1.00  0.00     0.032 A 
HETATM   14  C   UNL     1     -42.438  60.739 -59.617  1.00  0.00     0.057 A 
HETATM   15  C   UNL     1     -42.360  58.014 -58.899  1.00  0.00     0.028 A 
HETATM   16  C   UNL     1     -42.041  58.418 -60.203  1.00  0.00     0.038 A 
HETATM   17  C   UNL     1     -42.078  59.775 -60.564  1.00  0.00     0.069 A 
HETATM   18  H   UNL     1     -42.575  57.981 -56.175  1.00  0.00     0.136 HD
HETATM   19  O   UNL     1     -44.704  58.823 -53.169  1.00  0.00    -0.263 OA
BRANCH  17  20
HETATM   20  O   UNL     1     -41.791  60.278 -61.804  1.00  0.00    -0.356 OA
HETATM   21  C   UNL     1     -41.629  61.687 -61.909  1.00  0.00     0.210 C 
ENDBRANCH  17  20
ENDBRANCH   5   7
BRANCH   1  22
HETATM   22  C   UNL     1     -40.931  54.678 -53.437  1.00  0.00     0.025 A 
HETATM   23  C   UNL     1     -40.563  53.936 -54.577  1.00  0.00     0.078 A 
HETATM   24  C   UNL     1     -40.122  52.612 -54.474  1.00  0.00     0.044 A 
HETATM   25  C   UNL     1     -40.045  51.991 -53.223  1.00  0.00    -0.059 A 
HETATM   26  C   UNL     1     -39.557  50.578 -53.096  1.00  0.00     0.048 C 
HETATM   27  C   UNL     1     -40.383  52.724 -52.082  1.00  0.00     0.008 A 
HETATM   28  C   UNL     1     -40.824  54.047 -52.190  1.00  0.00     0.017 A 
BRANCH  23  29
HETATM   29  O   UNL     1     -40.637  54.512 -55.824  1.00  0.00    -0.360 OA
HETATM   30  H   UNL     1     -40.675  53.798 -56.485  1.00  0.00     0.217 HD
ENDBRANCH  23  29
ENDBRANCH   1  22
TORSDOF 4
ENDMDL
MODEL 10
REMARK VINA RESULT:      -7.4     16.255     19.602
REMARK  4 active torsions:
REMARK  status: ('A' for Active; 'I' for Inactive)
REMARK    1  A    between atoms: C_4  and  O_5 
REMARK    2  A    between atoms: C_6  and  C_7 
REMARK    3  A    between atoms: C_11  and  C_12 
REMARK       I    between atoms: C_12  and  N_13 
REMARK    4  A    between atoms: C_19  and  O_20 
ROOT
HETATM    1  C   UNL     1     -35.043  41.205 -53.707  1.00  0.00     0.065 A 
HETATM    2  N   UNL     1     -34.616  41.953 -54.771  1.00  0.00    -0.277 N 
HETATM    3  H   UNL     1     -33.686  42.349 -54.882  1.00  0.00     0.189 HD
HETATM    4  N   UNL     1     -35.516  42.089 -55.761  1.00  0.00    -0.169 NA
HETATM    5  C   UNL     1     -36.625  41.486 -55.283  1.00  0.00     0.148 A 
HETATM    6  C   UNL     1     -36.360  40.914 -54.006  1.00  0.00     0.071 A 
ENDROOT
BRANCH   5   7
HETATM    7  C   UNL     1     -37.898  41.352 -56.038  1.00  0.00     0.299 C 
HETATM    8  N   UNL     1     -37.820  41.353 -57.407  1.00  0.00    -0.189 NA
HETATM    9  C   UNL     1     -37.187  40.405 -57.999  1.00  0.00     0.154 C 
HETATM   10  S   UNL     1     -37.264  40.367 -59.794  1.00  0.00    -0.056 SA
HETATM   11  N   UNL     1     -36.404  39.368 -57.527  1.00  0.00    -0.236 NA
HETATM   12  C   UNL     1     -36.088  39.035 -59.843  1.00  0.00     0.032 A 
HETATM   13  C   UNL     1     -35.710  38.685 -58.543  1.00  0.00     0.032 A 
HETATM   14  C   UNL     1     -35.544  38.408 -60.950  1.00  0.00     0.057 A 
HETATM   15  C   UNL     1     -34.791  37.668 -58.336  1.00  0.00     0.028 A 
HETATM   16  C   UNL     1     -34.227  37.030 -59.449  1.00  0.00     0.038 A 
HETATM   17  C   UNL     1     -34.600  37.396 -60.752  1.00  0.00     0.069 A 
HETATM   18  H   UNL     1     -35.841  39.598 -56.710  1.00  0.00     0.136 HD
HETATM   19  O   UNL     1     -38.970  41.295 -55.444  1.00  0.00    -0.263 OA
BRANCH  17  20
HETATM   20  O   UNL     1     -34.117  36.838 -61.906  1.00  0.00    -0.356 OA
HETATM   21  C   UNL     1     -33.358  37.681 -62.763  1.00  0.00     0.210 C 
ENDBRANCH  17  20
ENDBRANCH   5   7
BRANCH   1  22
HETATM   22  C   UNL     1     -34.176  40.852 -52.575  1.00  0.00     0.025 A 
HETATM   23  C   UNL     1     -32.791  40.643 -52.718  1.00  0.00     0.078 A 
HETATM   24  C   UNL     1     -31.994  40.273 -51.629  1.00  0.00     0.044 A 
HETATM   25  C   UNL     1     -32.566  40.094 -50.365  1.00  0.00    -0.059 A 
HETATM   26  C   UNL     1     -31.721  39.715 -49.185  1.00  0.00     0.048 C 
HETATM   27  C   UNL     1     -33.936  40.323 -50.205  1.00  0.00     0.008 A 
HETATM   28  C   UNL     1     -34.729  40.692 -51.296  1.00  0.00     0.017 A 
BRANCH  23  29
HETATM   29  O   UNL     1     -32.196  40.798 -53.948  1.00  0.00    -0.360 OA
HETATM   30  H   UNL     1     -31.825  39.940 -54.216  1.00  0.00     0.217 HD
ENDBRANCH  23  29
ENDBRANCH   1  22
TORSDOF 4
ENDMDL
