MODEL 1
REMARK VINA RESULT:      -8.5      0.000      0.000
REMARK  4 active torsions:
REMARK  status: ('A' for Active; 'I' for Inactive)
REMARK    1  A    between atoms: C_6  and  N_7 
REMARK       I    between atoms: N_7  and  C_8 
REMARK    2  A    between atoms: C_8  and  C_9 
REMARK    3  A    between atoms: C_10  and  C_11 
REMARK    4  A    between atoms: C_14  and  O_15 
ROOT
HETATM    1  C   UNL     1     -42.757  57.131 -52.625  1.00  0.00     0.131 C 
HETATM    2  C   UNL     1     -42.416  58.074 -53.809  1.00  0.00     0.177 C 
HETATM    3  N   UNL     1     -42.814  59.441 -53.487  1.00  0.00    -0.088 N 
HETATM    4  C   UNL     1     -43.699  59.787 -52.506  1.00  0.00     0.721 A 
HETATM    5  N   UNL     1     -44.252  58.866 -51.700  1.00  0.00    -0.218 N 
HETATM    6  C   UNL     1     -44.139  57.439 -51.995  1.00  0.00     0.111 C 
HETATM    7  C   UNL     1     -44.337  56.691 -50.668  1.00  0.00     0.034 C 
HETATM    8  N   UNL     1     -42.261  60.531 -54.061  1.00  0.00    -0.149 NA
HETATM    9  C   UNL     1     -42.947  61.502 -53.447  1.00  0.00     0.275 A 
HETATM   10  N   UNL     1     -43.831  61.088 -52.487  1.00  0.00    -0.055 NA
HETATM   11  H   UNL     1     -45.057  59.166 -51.153  1.00  0.00     0.178 HD
ENDROOT
BRANCH   1  12
HETATM   12  C   UNL     1     -42.611  55.671 -53.030  1.00  0.00     0.230 C 
HETATM   13  N   UNL     1     -41.327  55.185 -52.837  1.00  0.00    -0.326 N 
HETATM   14  H   UNL     1     -40.667  55.800 -52.384  1.00  0.00     0.169 HD
HETATM   15  O   UNL     1     -43.568  55.043 -53.472  1.00  0.00    -0.273 OA
BRANCH  13  16
HETATM   16  C   UNL     1     -40.832  53.893 -53.145  1.00  0.00     0.040 A 
HETATM   17  C   UNL     1     -40.305  53.101 -52.102  1.00  0.00    -0.035 A 
HETATM   18  C   UNL     1     -39.819  51.810 -52.388  1.00  0.00     0.015 A 
HETATM   19  C   UNL     1     -40.245  53.577 -50.674  1.00  0.00     0.050 C 
HETATM   20  C   UNL     1     -39.832  51.301 -53.690  1.00  0.00    -0.061 A 
HETATM   21  C   UNL     1     -39.346  49.912 -53.978  1.00  0.00     0.048 C 
HETATM   22  C   UNL     1     -40.356  52.090 -54.712  1.00  0.00     0.009 A 
HETATM   23  C   UNL     1     -40.844  53.372 -54.443  1.00  0.00     0.030 A 
ENDBRANCH  13  16
ENDBRANCH   1  12
BRANCH   2  24
HETATM   24  C   UNL     1     -42.882  57.720 -55.220  1.00  0.00    -0.032 A 
HETATM   25  C   UNL     1     -42.137  56.952 -56.122  1.00  0.00     0.012 A 
HETATM   26  C   UNL     1     -42.633  56.663 -57.398  1.00  0.00     0.037 A 
HETATM   27  C   UNL     1     -43.888  57.116 -57.803  1.00  0.00     0.068 A 
HETATM   28  C   UNL     1     -44.651  57.864 -56.913  1.00  0.00     0.037 A 
HETATM   29  C   UNL     1     -44.153  58.160 -55.638  1.00  0.00     0.012 A 
BRANCH  27  30
HETATM   30  O   UNL     1     -44.246  56.759 -59.073  1.00  0.00    -0.356 OA
HETATM   31  C   UNL     1     -43.620  55.605 -59.617  1.00  0.00     0.210 C 
ENDBRANCH  27  30
ENDBRANCH   2  24
TORSDOF 4
ENDMDL
MODEL 2
REMARK VINA RESULT:      -8.4      2.055      5.940
REMARK  4 active torsions:
REMARK  status: ('A' for Active; 'I' for Inactive)
REMARK    1  A    between atoms: C_6  and  N_7 
REMARK       I    between atoms: N_7  and  C_8 
REMARK    2  A    between atoms: C_8  and  C_9 
REMARK    3  A    between atoms: C_10  and  C_11 
REMARK    4  A    between atoms: C_14  and  O_15 
ROOT
HETATM    1  C   UNL     1     -43.036  58.161 -54.052  1.00  0.00     0.131 C 
HETATM    2  C   UNL     1     -42.404  57.194 -53.017  1.00  0.00     0.177 C 
HETATM    3  N   UNL     1     -41.447  57.913 -52.182  1.00  0.00    -0.088 N 
HETATM    4  C   UNL     1     -40.885  59.116 -52.498  1.00  0.00     0.721 A 
HETATM    5  N   UNL     1     -41.221  59.779 -53.618  1.00  0.00    -0.218 N 
HETATM    6  C   UNL     1     -42.000  59.133 -54.672  1.00  0.00     0.111 C 
HETATM    7  C   UNL     1     -42.680  60.251 -55.475  1.00  0.00     0.034 C 
HETATM    8  N   UNL     1     -41.092  57.511 -50.944  1.00  0.00    -0.149 NA
HETATM    9  C   UNL     1     -40.223  58.475 -50.617  1.00  0.00     0.275 A 
HETATM   10  N   UNL     1     -40.073  59.476 -51.538  1.00  0.00    -0.055 NA
HETATM   11  H   UNL     1     -40.608  60.544 -53.894  1.00  0.00     0.178 HD
ENDROOT
BRANCH   1  12
HETATM   12  C   UNL     1     -43.824  57.396 -55.106  1.00  0.00     0.230 C 
HETATM   13  N   UNL     1     -43.198  57.386 -56.343  1.00  0.00    -0.326 N 
HETATM   14  H   UNL     1     -42.277  57.798 -56.395  1.00  0.00     0.169 HD
HETATM   15  O   UNL     1     -44.893  56.862 -54.828  1.00  0.00    -0.273 OA
BRANCH  13  16
HETATM   16  C   UNL     1     -43.668  56.808 -57.550  1.00  0.00     0.040 A 
HETATM   17  C   UNL     1     -44.567  57.545 -58.351  1.00  0.00    -0.035 A 
HETATM   18  C   UNL     1     -45.035  56.989 -59.558  1.00  0.00     0.015 A 
HETATM   19  C   UNL     1     -45.050  58.920 -57.974  1.00  0.00     0.050 C 
HETATM   20  C   UNL     1     -44.642  55.713 -59.973  1.00  0.00    -0.061 A 
HETATM   21  C   UNL     1     -45.117  55.146 -61.277  1.00  0.00     0.048 C 
HETATM   22  C   UNL     1     -43.752  54.995 -59.175  1.00  0.00     0.009 A 
HETATM   23  C   UNL     1     -43.277  55.534 -57.975  1.00  0.00     0.030 A 
ENDBRANCH  13  16
ENDBRANCH   1  12
BRANCH   2  24
HETATM   24  C   UNL     1     -41.792  55.875 -53.486  1.00  0.00    -0.032 A 
HETATM   25  C   UNL     1     -40.696  55.784 -54.352  1.00  0.00     0.012 A 
HETATM   26  C   UNL     1     -40.186  54.537 -54.733  1.00  0.00     0.037 A 
HETATM   27  C   UNL     1     -40.741  53.353 -54.251  1.00  0.00     0.068 A 
HETATM   28  C   UNL     1     -41.817  53.425 -53.373  1.00  0.00     0.037 A 
HETATM   29  C   UNL     1     -42.334  54.671 -52.996  1.00  0.00     0.012 A 
BRANCH  27  30
HETATM   30  O   UNL     1     -40.142  52.210 -54.703  1.00  0.00    -0.356 OA
HETATM   31  C   UNL     1     -39.687  51.291 -53.719  1.00  0.00     0.210 C 
ENDBRANCH  27  30
ENDBRANCH   2  24
TORSDOF 4
ENDMDL
MODEL 3
REMARK VINA RESULT:      -8.0      2.541      5.181
REMARK  4 active torsions:
REMARK  status: ('A' for Active; 'I' for Inactive)
REMARK    1  A    between atoms: C_6  and  N_7 
REMARK       I    between atoms: N_7  and  C_8 
REMARK    2  A    between atoms: C_8  and  C_9 
REMARK    3  A    between atoms: C_10  and  C_11 
REMARK    4  A    between atoms: C_14  and  O_15 
ROOT
HETATM    1  C   UNL     1     -43.065  55.371 -54.599  1.00  0.00     0.131 C 
HETATM    2  C   UNL     1     -43.963  56.636 -54.635  1.00  0.00     0.177 C 
HETATM    3  N   UNL     1     -43.848  57.291 -55.934  1.00  0.00    -0.088 N 
HETATM    4  C   UNL     1     -42.833  57.088 -56.825  1.00  0.00     0.721 A 
HETATM    5  N   UNL     1     -41.855  56.198 -56.587  1.00  0.00    -0.218 N 
HETATM    6  C   UNL     1     -41.684  55.600 -55.264  1.00  0.00     0.111 C 
HETATM    7  C   UNL     1     -40.926  54.280 -55.465  1.00  0.00     0.034 C 
HETATM    8  N   UNL     1     -44.800  58.098 -56.446  1.00  0.00    -0.149 NA
HETATM    9  C   UNL     1     -44.234  58.432 -57.612  1.00  0.00     0.275 A 
HETATM   10  N   UNL     1     -43.035  57.831 -57.882  1.00  0.00    -0.055 NA
HETATM   11  H   UNL     1     -41.029  56.263 -57.179  1.00  0.00     0.178 HD
ENDROOT
BRANCH   1  12
HETATM   12  C   UNL     1     -42.948  54.824 -53.183  1.00  0.00     0.230 C 
HETATM   13  N   UNL     1     -41.792  55.240 -52.540  1.00  0.00    -0.326 N 
HETATM   14  H   UNL     1     -41.210  55.907 -53.026  1.00  0.00     0.169 HD
HETATM   15  O   UNL     1     -43.820  54.099 -52.715  1.00  0.00    -0.273 OA
BRANCH  13  16
HETATM   16  C   UNL     1     -41.347  54.888 -51.240  1.00  0.00     0.040 A 
HETATM   17  C   UNL     1     -40.588  53.708 -51.077  1.00  0.00    -0.035 A 
HETATM   18  C   UNL     1     -40.130  53.349 -49.795  1.00  0.00     0.015 A 
HETATM   19  C   UNL     1     -40.236  52.806 -52.230  1.00  0.00     0.050 C 
HETATM   20  C   UNL     1     -40.425  54.130 -48.673  1.00  0.00    -0.061 A 
HETATM   21  C   UNL     1     -39.901  53.759 -47.318  1.00  0.00     0.048 C 
HETATM   22  C   UNL     1     -41.173  55.293 -48.844  1.00  0.00     0.009 A 
HETATM   23  C   UNL     1     -41.634  55.664 -50.112  1.00  0.00     0.030 A 
ENDBRANCH  13  16
ENDBRANCH   1  12
BRANCH   2  24
HETATM   24  C   UNL     1     -43.855  57.675 -53.521  1.00  0.00    -0.032 A 
HETATM   25  C   UNL     1     -44.755  57.777 -52.454  1.00  0.00     0.012 A 
HETATM   26  C   UNL     1     -44.587  58.755 -51.466  1.00  0.00     0.037 A 
HETATM   27  C   UNL     1     -43.513  59.642 -51.505  1.00  0.00     0.068 A 
HETATM   28  C   UNL     1     -42.598  59.542 -52.547  1.00  0.00     0.037 A 
HETATM   29  C   UNL     1     -42.768  58.570 -53.540  1.00  0.00     0.012 A 
BRANCH  27  30
HETATM   30  O   UNL     1     -43.472  60.541 -50.476  1.00  0.00    -0.356 OA
HETATM   31  C   UNL     1     -44.719  60.952 -49.932  1.00  0.00     0.210 C 
ENDBRANCH  27  30
ENDBRANCH   2  24
TORSDOF 4
ENDMDL
MODEL 4
REMARK VINA RESULT:      -7.9      1.805      2.522
REMARK  4 active torsions:
REMARK  status: ('A' for Active; 'I' for Inactive)
REMARK    1  A    between atoms: C_6  and  N_7 
REMARK       I    between atoms: N_7  and  C_8 
REMARK    2  A    between atoms: C_8  and  C_9 
REMARK    3  A    between atoms: C_10  and  C_11 
REMARK    4  A    between atoms: C_14  and  O_15 
ROOT
HETATM    1  C   UNL     1     -42.943  58.391 -54.780  1.00  0.00     0.131 C 
HETATM    2  C   UNL     1     -42.581  58.899 -56.201  1.00  0.00     0.177 C 
HETATM    3  N   UNL     1     -42.965  60.299 -56.342  1.00  0.00    -0.088 N 
HETATM    4  C   UNL     1     -43.853  60.952 -55.535  1.00  0.00     0.721 A 
HETATM    5  N   UNL     1     -44.424  60.345 -54.480  1.00  0.00    -0.218 N 
HETATM    6  C   UNL     1     -44.325  58.898 -54.298  1.00  0.00     0.111 C 
HETATM    7  C   UNL     1     -44.543  58.620 -52.803  1.00  0.00     0.034 C 
HETATM    8  N   UNL     1     -42.395  61.140 -57.230  1.00  0.00    -0.149 NA
HETATM    9  C   UNL     1     -43.074  62.264 -56.970  1.00  0.00     0.275 A 
HETATM   10  N   UNL     1     -43.970  62.190 -55.938  1.00  0.00    -0.055 NA
HETATM   11  H   UNL     1     -45.229  60.813 -54.069  1.00  0.00     0.178 HD
ENDROOT
BRANCH   1  12
HETATM   12  C   UNL     1     -42.812  56.877 -54.691  1.00  0.00     0.230 C 
HETATM   13  N   UNL     1     -41.579  56.472 -54.202  1.00  0.00    -0.326 N 
HETATM   14  H   UNL     1     -40.950  57.196 -53.885  1.00  0.00     0.169 HD
HETATM   15  O   UNL     1     -43.736  56.145 -55.028  1.00  0.00    -0.273 OA
BRANCH  13  16
HETATM   16  C   UNL     1     -41.106  55.147 -54.030  1.00  0.00     0.040 A 
HETATM   17  C   UNL     1     -41.149  54.571 -52.742  1.00  0.00    -0.035 A 
HETATM   18  C   UNL     1     -40.693  53.252 -52.555  1.00  0.00     0.015 A 
HETATM   19  C   UNL     1     -41.676  55.311 -51.540  1.00  0.00     0.050 C 
HETATM   20  C   UNL     1     -40.180  52.502 -53.619  1.00  0.00    -0.061 A 
HETATM   21  C   UNL     1     -39.731  51.086 -53.418  1.00  0.00     0.048 C 
HETATM   22  C   UNL     1     -40.143  53.079 -54.887  1.00  0.00     0.009 A 
HETATM   23  C   UNL     1     -40.595  54.387 -55.088  1.00  0.00     0.030 A 
ENDBRANCH  13  16
ENDBRANCH   1  12
BRANCH   2  24
HETATM   24  C   UNL     1     -43.040  58.112 -57.427  1.00  0.00    -0.032 A 
HETATM   25  C   UNL     1     -44.381  57.937 -57.790  1.00  0.00     0.012 A 
HETATM   26  C   UNL     1     -44.724  57.206 -58.934  1.00  0.00     0.037 A 
HETATM   27  C   UNL     1     -43.745  56.647 -59.753  1.00  0.00     0.068 A 
HETATM   28  C   UNL     1     -42.407  56.828 -59.419  1.00  0.00     0.037 A 
HETATM   29  C   UNL     1     -42.061  57.552 -58.271  1.00  0.00     0.012 A 
BRANCH  27  30
HETATM   30  O   UNL     1     -44.222  55.963 -60.836  1.00  0.00    -0.356 OA
HETATM   31  C   UNL     1     -45.602  55.624 -60.824  1.00  0.00     0.210 C 
ENDBRANCH  27  30
ENDBRANCH   2  24
TORSDOF 4
ENDMDL
MODEL 5
REMARK VINA RESULT:      -7.9     16.148     18.181
REMARK  4 active torsions:
REMARK  status: ('A' for Active; 'I' for Inactive)
REMARK    1  A    between atoms: C_6  and  N_7 
REMARK       I    between atoms: N_7  and  C_8 
REMARK    2  A    between atoms: C_8  and  C_9 
REMARK    3  A    between atoms: C_10  and  C_11 
REMARK    4  A    between atoms: C_14  and  O_15 
ROOT
HETATM    1  C   UNL     1     -36.528  41.883 -54.725  1.00  0.00     0.131 C 
HETATM    2  C   UNL     1     -35.751  41.649 -56.047  1.00  0.00     0.177 C 
HETATM    3  N   UNL     1     -36.680  41.290 -57.113  1.00  0.00    -0.088 N 
HETATM    4  C   UNL     1     -37.952  40.831 -56.920  1.00  0.00     0.721 A 
HETATM    5  N   UNL     1     -38.482  40.721 -55.690  1.00  0.00    -0.218 N 
HETATM    6  C   UNL     1     -37.647  40.836 -54.496  1.00  0.00     0.111 C 
HETATM    7  C   UNL     1     -38.574  41.239 -53.340  1.00  0.00     0.034 C 
HETATM    8  N   UNL     1     -36.416  41.475 -58.424  1.00  0.00    -0.149 NA
HETATM    9  C   UNL     1     -37.543  41.001 -58.968  1.00  0.00     0.275 A 
HETATM   10  N   UNL     1     -38.507  40.603 -58.082  1.00  0.00    -0.055 NA
HETATM   11  H   UNL     1     -39.335  40.171 -55.611  1.00  0.00     0.178 HD
ENDROOT
BRANCH   1  12
HETATM   12  C   UNL     1     -35.574  41.987 -53.542  1.00  0.00     0.230 C 
HETATM   13  N   UNL     1     -35.097  40.754 -53.126  1.00  0.00    -0.326 N 
HETATM   14  H   UNL     1     -35.352  39.951 -53.683  1.00  0.00     0.169 HD
HETATM   15  O   UNL     1     -35.295  43.078 -53.055  1.00  0.00    -0.273 OA
BRANCH  13  16
HETATM   16  C   UNL     1     -34.232  40.480 -52.037  1.00  0.00     0.040 A 
HETATM   17  C   UNL     1     -34.798  40.185 -50.777  1.00  0.00    -0.035 A 
HETATM   18  C   UNL     1     -33.954  39.901 -49.686  1.00  0.00     0.015 A 
HETATM   19  C   UNL     1     -36.286  40.153 -50.544  1.00  0.00     0.050 C 
HETATM   20  C   UNL     1     -32.562  39.921 -49.820  1.00  0.00    -0.061 A 
HETATM   21  C   UNL     1     -31.672  39.581 -48.662  1.00  0.00     0.048 C 
HETATM   22  C   UNL     1     -32.013  40.211 -51.068  1.00  0.00     0.009 A 
HETATM   23  C   UNL     1     -32.839  40.494 -52.160  1.00  0.00     0.030 A 
ENDBRANCH  13  16
ENDBRANCH   1  12
BRANCH   2  24
HETATM   24  C   UNL     1     -34.552  40.702 -56.066  1.00  0.00    -0.032 A 
HETATM   25  C   UNL     1     -33.220  41.123 -55.994  1.00  0.00     0.012 A 
HETATM   26  C   UNL     1     -32.173  40.194 -56.011  1.00  0.00     0.037 A 
HETATM   27  C   UNL     1     -32.425  38.825 -56.084  1.00  0.00     0.068 A 
HETATM   28  C   UNL     1     -33.745  38.388 -56.137  1.00  0.00     0.037 A 
HETATM   29  C   UNL     1     -34.793  39.316 -56.127  1.00  0.00     0.012 A 
BRANCH  27  30
HETATM   30  O   UNL     1     -31.310  38.034 -56.090  1.00  0.00    -0.356 OA
HETATM   31  C   UNL     1     -30.053  38.696 -56.133  1.00  0.00     0.210 C 
ENDBRANCH  27  30
ENDBRANCH   2  24
TORSDOF 4
ENDMDL
MODEL 6
REMARK VINA RESULT:      -7.9      2.522      4.596
REMARK  4 active torsions:
REMARK  status: ('A' for Active; 'I' for Inactive)
REMARK    1  A    between atoms: C_6  and  N_7 
REMARK       I    between atoms: N_7  and  C_8 
REMARK    2  A    between atoms: C_8  and  C_9 
REMARK    3  A    between atoms: C_10  and  C_11 
REMARK    4  A    between atoms: C_14  and  O_15 
ROOT
HETATM    1  C   UNL     1     -42.874  56.459 -54.687  1.00  0.00     0.131 C 
HETATM    2  C   UNL     1     -43.200  57.388 -53.488  1.00  0.00     0.177 C 
HETATM    3  N   UNL     1     -44.103  58.452 -53.914  1.00  0.00    -0.088 N 
HETATM    4  C   UNL     1     -44.311  58.829 -55.210  1.00  0.00     0.721 A 
HETATM    5  N   UNL     1     -43.716  58.191 -56.233  1.00  0.00    -0.218 N 
HETATM    6  C   UNL     1     -42.629  57.242 -56.001  1.00  0.00     0.111 C 
HETATM    7  C   UNL     1     -42.583  56.308 -57.219  1.00  0.00     0.034 C 
HETATM    8  N   UNL     1     -44.921  59.115 -53.070  1.00  0.00    -0.149 NA
HETATM    9  C   UNL     1     -45.517  59.958 -53.922  1.00  0.00     0.275 A 
HETATM   10  N   UNL     1     -45.174  59.810 -55.239  1.00  0.00    -0.055 NA
HETATM   11  H   UNL     1     -43.741  58.661 -57.136  1.00  0.00     0.178 HD
ENDROOT
BRANCH   1  12
HETATM   12  C   UNL     1     -41.731  55.511 -54.349  1.00  0.00     0.230 C 
HETATM   13  N   UNL     1     -42.139  54.428 -53.587  1.00  0.00    -0.326 N 
HETATM   14  H   UNL     1     -43.130  54.335 -53.413  1.00  0.00     0.169 HD
HETATM   15  O   UNL     1     -40.591  55.736 -54.742  1.00  0.00    -0.273 OA
BRANCH  13  16
HETATM   16  C   UNL     1     -41.336  53.383 -53.063  1.00  0.00     0.040 A 
HETATM   17  C   UNL     1     -41.121  53.324 -51.669  1.00  0.00    -0.035 A 
HETATM   18  C   UNL     1     -40.335  52.287 -51.130  1.00  0.00     0.015 A 
HETATM   19  C   UNL     1     -41.710  54.330 -50.715  1.00  0.00     0.050 C 
HETATM   20  C   UNL     1     -39.745  51.321 -51.951  1.00  0.00    -0.061 A 
HETATM   21  C   UNL     1     -38.940  50.200 -51.366  1.00  0.00     0.048 C 
HETATM   22  C   UNL     1     -39.964  51.387 -53.326  1.00  0.00     0.009 A 
HETATM   23  C   UNL     1     -40.745  52.409 -53.875  1.00  0.00     0.030 A 
ENDBRANCH  13  16
ENDBRANCH   1  12
BRANCH   2  24
HETATM   24  C   UNL     1     -42.064  57.977 -52.654  1.00  0.00    -0.032 A 
HETATM   25  C   UNL     1     -40.995  58.706 -53.188  1.00  0.00     0.012 A 
HETATM   26  C   UNL     1     -39.993  59.221 -52.358  1.00  0.00     0.037 A 
HETATM   27  C   UNL     1     -40.037  59.039 -50.977  1.00  0.00     0.068 A 
HETATM   28  C   UNL     1     -41.103  58.335 -50.426  1.00  0.00     0.037 A 
HETATM   29  C   UNL     1     -42.102  57.813 -51.256  1.00  0.00     0.012 A 
BRANCH  27  30
HETATM   30  O   UNL     1     -38.995  59.597 -50.289  1.00  0.00    -0.356 OA
HETATM   31  C   UNL     1     -37.687  59.175 -50.652  1.00  0.00     0.210 C 
ENDBRANCH  27  30
ENDBRANCH   2  24
TORSDOF 4
ENDMDL
MODEL 7
REMARK VINA RESULT:      -7.9      1.567      2.156
REMARK  4 active torsions:
REMARK  status: ('A' for Active; 'I' for Inactive)
REMARK    1  A    between atoms: C_6  and  N_7 
REMARK       I    between atoms: N_7  and  C_8 
REMARK    2  A    between atoms: C_8  and  C_9 
REMARK    3  A    between atoms: C_10  and  C_11 
REMARK    4  A    between atoms: C_14  and  O_15 
ROOT
HETATM    1  C   UNL     1     -42.981  58.057 -52.614  1.00  0.00     0.131 C 
HETATM    2  C   UNL     1     -43.157  59.084 -53.763  1.00  0.00     0.177 C 
HETATM    3  N   UNL     1     -44.324  59.922 -53.507  1.00  0.00    -0.088 N 
HETATM    4  C   UNL     1     -45.332  59.614 -52.639  1.00  0.00     0.721 A 
HETATM    5  N   UNL     1     -45.300  58.500 -51.890  1.00  0.00    -0.218 N 
HETATM    6  C   UNL     1     -44.325  57.442 -52.151  1.00  0.00     0.111 C 
HETATM    7  C   UNL     1     -44.167  56.648 -50.846  1.00  0.00     0.034 C 
HETATM    8  N   UNL     1     -44.481  61.157 -54.028  1.00  0.00    -0.149 NA
HETATM    9  C   UNL     1     -45.669  61.490 -53.510  1.00  0.00     0.275 A 
HETATM   10  N   UNL     1     -46.218  60.575 -52.653  1.00  0.00    -0.055 NA
HETATM   11  H   UNL     1     -46.174  58.228 -51.443  1.00  0.00     0.178 HD
ENDROOT
BRANCH   1  12
HETATM   12  C   UNL     1     -41.949  56.999 -52.981  1.00  0.00     0.230 C 
HETATM   13  N   UNL     1     -42.456  55.710 -52.921  1.00  0.00    -0.326 N 
HETATM   14  H   UNL     1     -43.444  55.614 -52.732  1.00  0.00     0.169 HD
HETATM   15  O   UNL     1     -40.806  57.317 -53.291  1.00  0.00    -0.273 OA
BRANCH  13  16
HETATM   16  C   UNL     1     -41.767  54.494 -53.155  1.00  0.00     0.040 A 
HETATM   17  C   UNL     1     -42.023  53.787 -54.351  1.00  0.00    -0.035 A 
HETATM   18  C   UNL     1     -41.339  52.582 -54.605  1.00  0.00     0.015 A 
HETATM   19  C   UNL     1     -43.003  54.273 -55.386  1.00  0.00     0.050 C 
HETATM   20  C   UNL     1     -40.421  52.060 -53.688  1.00  0.00    -0.061 A 
HETATM   21  C   UNL     1     -39.671  50.796 -53.984  1.00  0.00     0.048 C 
HETATM   22  C   UNL     1     -40.174  52.766 -52.512  1.00  0.00     0.009 A 
HETATM   23  C   UNL     1     -40.844  53.965 -52.247  1.00  0.00     0.030 A 
ENDBRANCH  13  16
ENDBRANCH   1  12
BRANCH   2  24
HETATM   24  C   UNL     1     -43.173  58.605 -55.214  1.00  0.00    -0.032 A 
HETATM   25  C   UNL     1     -44.161  57.773 -55.753  1.00  0.00     0.012 A 
HETATM   26  C   UNL     1     -44.111  57.380 -57.096  1.00  0.00     0.037 A 
HETATM   27  C   UNL     1     -43.091  57.818 -57.938  1.00  0.00     0.068 A 
HETATM   28  C   UNL     1     -42.112  58.662 -57.424  1.00  0.00     0.037 A 
HETATM   29  C   UNL     1     -42.156  59.050 -56.080  1.00  0.00     0.012 A 
BRANCH  27  30
HETATM   30  O   UNL     1     -43.168  57.359 -59.224  1.00  0.00    -0.356 OA
HETATM   31  C   UNL     1     -42.046  57.603 -60.061  1.00  0.00     0.210 C 
ENDBRANCH  27  30
ENDBRANCH   2  24
TORSDOF 4
ENDMDL
MODEL 8
REMARK VINA RESULT:      -7.8      2.684      6.564
REMARK  4 active torsions:
REMARK  status: ('A' for Active; 'I' for Inactive)
REMARK    1  A    between atoms: C_6  and  N_7 
REMARK       I    between atoms: N_7  and  C_8 
REMARK    2  A    between atoms: C_8  and  C_9 
REMARK    3  A    between atoms: C_10  and  C_11 
REMARK    4  A    between atoms: C_14  and  O_15 
ROOT
HETATM    1  C   UNL     1     -41.211  55.712 -52.910  1.00  0.00     0.131 C 
HETATM    2  C   UNL     1     -41.477  56.430 -51.561  1.00  0.00     0.177 C 
HETATM    3  N   UNL     1     -41.304  55.492 -50.456  1.00  0.00    -0.088 N 
HETATM    4  C   UNL     1     -41.314  54.132 -50.576  1.00  0.00     0.721 A 
HETATM    5  N   UNL     1     -41.436  53.531 -51.772  1.00  0.00    -0.218 N 
HETATM    6  C   UNL     1     -41.822  54.289 -52.961  1.00  0.00     0.111 C 
HETATM    7  C   UNL     1     -41.320  53.498 -54.178  1.00  0.00     0.034 C 
HETATM    8  N   UNL     1     -41.007  55.874 -49.196  1.00  0.00    -0.149 NA
HETATM    9  C   UNL     1     -40.959  54.684 -48.587  1.00  0.00     0.275 A 
HETATM   10  N   UNL     1     -41.137  53.595 -49.397  1.00  0.00    -0.055 NA
HETATM   11  H   UNL     1     -41.658  52.538 -51.761  1.00  0.00     0.178 HD
ENDROOT
BRANCH   1  12
HETATM   12  C   UNL     1     -41.646  56.578 -54.085  1.00  0.00     0.230 C 
HETATM   13  N   UNL     1     -42.697  56.025 -54.799  1.00  0.00    -0.326 N 
HETATM   14  H   UNL     1     -43.109  55.180 -54.431  1.00  0.00     0.169 HD
HETATM   15  O   UNL     1     -41.087  57.644 -54.320  1.00  0.00    -0.273 OA
BRANCH  13  16
HETATM   16  C   UNL     1     -43.318  56.538 -55.967  1.00  0.00     0.040 A 
HETATM   17  C   UNL     1     -44.330  57.513 -55.826  1.00  0.00    -0.035 A 
HETATM   18  C   UNL     1     -44.950  58.041 -56.975  1.00  0.00     0.015 A 
HETATM   19  C   UNL     1     -44.779  58.028 -54.483  1.00  0.00     0.050 C 
HETATM   20  C   UNL     1     -44.596  57.606 -58.256  1.00  0.00    -0.061 A 
HETATM   21  C   UNL     1     -45.235  58.200 -59.475  1.00  0.00     0.048 C 
HETATM   22  C   UNL     1     -43.595  56.645 -58.384  1.00  0.00     0.009 A 
HETATM   23  C   UNL     1     -42.969  56.113 -57.253  1.00  0.00     0.030 A 
ENDBRANCH  13  16
ENDBRANCH   1  12
BRANCH   2  24
HETATM   24  C   UNL     1     -42.765  57.227 -51.366  1.00  0.00    -0.032 A 
HETATM   25  C   UNL     1     -44.020  56.647 -51.148  1.00  0.00     0.012 A 
HETATM   26  C   UNL     1     -45.157  57.444 -50.972  1.00  0.00     0.037 A 
HETATM   27  C   UNL     1     -45.072  58.835 -50.991  1.00  0.00     0.068 A 
HETATM   28  C   UNL     1     -43.829  59.429 -51.186  1.00  0.00     0.037 A 
HETATM   29  C   UNL     1     -42.692  58.633 -51.370  1.00  0.00     0.012 A 
BRANCH  27  30
HETATM   30  O   UNL     1     -46.259  59.487 -50.804  1.00  0.00    -0.356 OA
HETATM   31  C   UNL     1     -46.591  60.499 -51.746  1.00  0.00     0.210 C 
ENDBRANCH  27  30
ENDBRANCH   2  24
TORSDOF 4
ENDMDL
MODEL 9
REMARK VINA RESULT:      -7.4     16.175     19.193
REMARK  4 active torsions:
REMARK  status: ('A' for Active; 'I' for Inactive)
REMARK    1  A    between atoms: C_6  and  N_7 
REMARK       I    between atoms: N_7  and  C_8 
REMARK    2  A    between atoms: C_8  and  C_9 
REMARK    3  A    between atoms: C_10  and  C_11 
REMARK    4  A    between atoms: C_14  and  O_15 
ROOT
HETATM    1  C   UNL     1     -36.422  39.866 -55.066  1.00  0.00     0.131 C 
HETATM    2  C   UNL     1     -35.122  39.634 -54.252  1.00  0.00     0.177 C 
HETATM    3  N   UNL     1     -34.983  40.668 -53.232  1.00  0.00    -0.088 N 
HETATM    4  C   UNL     1     -35.640  41.865 -53.237  1.00  0.00     0.721 A 
HETATM    5  N   UNL     1     -36.537  42.172 -54.190  1.00  0.00    -0.218 N 
HETATM    6  C   UNL     1     -36.661  41.360 -55.399  1.00  0.00     0.111 C 
HETATM    7  C   UNL     1     -38.072  41.600 -55.955  1.00  0.00     0.034 C 
HETATM    8  N   UNL     1     -34.261  40.506 -52.103  1.00  0.00    -0.149 NA
HETATM    9  C   UNL     1     -34.445  41.698 -51.525  1.00  0.00     0.275 A 
HETATM   10  N   UNL     1     -35.286  42.554 -52.184  1.00  0.00    -0.055 NA
HETATM   11  H   UNL     1     -36.813  43.150 -54.255  1.00  0.00     0.178 HD
ENDROOT
BRANCH   1  12
HETATM   12  C   UNL     1     -36.458  38.979 -56.303  1.00  0.00     0.230 C 
HETATM   13  N   UNL     1     -35.935  39.601 -57.426  1.00  0.00    -0.326 N 
HETATM   14  H   UNL     1     -35.519  40.512 -57.295  1.00  0.00     0.169 HD
HETATM   15  O   UNL     1     -36.912  37.841 -56.247  1.00  0.00    -0.273 OA
BRANCH  13  16
HETATM   16  C   UNL     1     -35.852  39.086 -58.745  1.00  0.00     0.040 A 
HETATM   17  C   UNL     1     -36.688  39.633 -59.742  1.00  0.00    -0.035 A 
HETATM   18  C   UNL     1     -36.611  39.141 -61.059  1.00  0.00     0.015 A 
HETATM   19  C   UNL     1     -37.668  40.741 -59.459  1.00  0.00     0.050 C 
HETATM   20  C   UNL     1     -35.734  38.106 -61.399  1.00  0.00    -0.061 A 
HETATM   21  C   UNL     1     -35.633  37.614 -62.811  1.00  0.00     0.048 C 
HETATM   22  C   UNL     1     -34.911  37.574 -60.407  1.00  0.00     0.009 A 
HETATM   23  C   UNL     1     -34.975  38.054 -59.095  1.00  0.00     0.030 A 
ENDBRANCH  13  16
ENDBRANCH   1  12
BRANCH   2  24
HETATM   24  C   UNL     1     -33.793  39.446 -54.982  1.00  0.00    -0.032 A 
HETATM   25  C   UNL     1     -33.094  40.480 -55.617  1.00  0.00     0.012 A 
HETATM   26  C   UNL     1     -31.877  40.231 -56.261  1.00  0.00     0.037 A 
HETATM   27  C   UNL     1     -31.317  38.954 -56.276  1.00  0.00     0.068 A 
HETATM   28  C   UNL     1     -31.988  37.919 -55.633  1.00  0.00     0.037 A 
HETATM   29  C   UNL     1     -33.209  38.165 -54.994  1.00  0.00     0.012 A 
BRANCH  27  30
HETATM   30  O   UNL     1     -30.125  38.856 -56.939  1.00  0.00    -0.356 OA
HETATM   31  C   UNL     1     -29.676  37.546 -57.262  1.00  0.00     0.210 C 
ENDBRANCH  27  30
ENDBRANCH   2  24
TORSDOF 4
ENDMDL
MODEL 10
REMARK VINA RESULT:      -7.2      2.839      6.794
REMARK  4 active torsions:
REMARK  status: ('A' for Active; 'I' for Inactive)
REMARK    1  A    between atoms: C_6  and  N_7 
REMARK       I    between atoms: N_7  and  C_8 
REMARK    2  A    between atoms: C_8  and  C_9 
REMARK    3  A    between atoms: C_10  and  C_11 
REMARK    4  A    between atoms: C_14  and  O_15 
ROOT
HETATM    1  C   UNL     1     -42.426  56.166 -54.733  1.00  0.00     0.131 C 
HETATM    2  C   UNL     1     -42.107  57.048 -53.497  1.00  0.00     0.177 C 
HETATM    3  N   UNL     1     -41.869  56.203 -52.331  1.00  0.00    -0.088 N 
HETATM    4  C   UNL     1     -42.256  54.898 -52.220  1.00  0.00     0.721 A 
HETATM    5  N   UNL     1     -42.861  54.254 -53.232  1.00  0.00    -0.218 N 
HETATM    6  C   UNL     1     -43.366  54.981 -54.395  1.00  0.00     0.111 C 
HETATM    7  C   UNL     1     -43.447  53.973 -55.551  1.00  0.00     0.034 C 
HETATM    8  N   UNL     1     -41.139  56.594 -51.266  1.00  0.00    -0.149 NA
HETATM    9  C   UNL     1     -41.222  55.500 -50.500  1.00  0.00     0.275 A 
HETATM   10  N   UNL     1     -41.892  54.441 -51.050  1.00  0.00    -0.055 NA
HETATM   11  H   UNL     1     -43.314  53.371 -53.002  1.00  0.00     0.178 HD
ENDROOT
BRANCH   1  12
HETATM   12  C   UNL     1     -42.944  57.012 -55.888  1.00  0.00     0.230 C 
HETATM   13  N   UNL     1     -41.963  57.304 -56.823  1.00  0.00    -0.326 N 
HETATM   14  H   UNL     1     -41.060  56.871 -56.692  1.00  0.00     0.169 HD
HETATM   15  O   UNL     1     -44.119  57.363 -55.932  1.00  0.00    -0.273 OA
BRANCH  13  16
HETATM   16  C   UNL     1     -42.085  58.098 -57.991  1.00  0.00     0.040 A 
HETATM   17  C   UNL     1     -42.449  57.473 -59.203  1.00  0.00    -0.035 A 
HETATM   18  C   UNL     1     -42.585  58.248 -60.371  1.00  0.00     0.015 A 
HETATM   19  C   UNL     1     -42.709  55.992 -59.305  1.00  0.00     0.050 C 
HETATM   20  C   UNL     1     -42.351  59.627 -60.360  1.00  0.00    -0.061 A 
HETATM   21  C   UNL     1     -42.534  60.449 -61.600  1.00  0.00     0.048 C 
HETATM   22  C   UNL     1     -41.994  60.235 -59.158  1.00  0.00     0.009 A 
HETATM   23  C   UNL     1     -41.857  59.479 -57.990  1.00  0.00     0.030 A 
ENDBRANCH  13  16
ENDBRANCH   1  12
BRANCH   2  24
HETATM   24  C   UNL     1     -43.041  58.196 -53.121  1.00  0.00    -0.032 A 
HETATM   25  C   UNL     1     -44.291  58.023 -52.514  1.00  0.00     0.012 A 
HETATM   26  C   UNL     1     -45.090  59.126 -52.194  1.00  0.00     0.037 A 
HETATM   27  C   UNL     1     -44.661  60.427 -52.453  1.00  0.00     0.068 A 
HETATM   28  C   UNL     1     -43.414  60.618 -53.038  1.00  0.00     0.037 A 
HETATM   29  C   UNL     1     -42.616  59.516 -53.366  1.00  0.00     0.012 A 
BRANCH  27  30
HETATM   30  O   UNL     1     -45.541  61.407 -52.087  1.00  0.00    -0.356 OA
HETATM   31  C   UNL     1     -46.917  61.166 -52.351  1.00  0.00     0.210 C 
ENDBRANCH  27  30
ENDBRANCH   2  24
TORSDOF 4
ENDMDL
