MODEL 1
REMARK VINA RESULT:      -8.2      0.000      0.000
REMARK  7 active torsions:
REMARK  status: ('A' for Active; 'I' for Inactive)
REMARK    1  A    between atoms: O_2  and  C_3 
REMARK    2  A    between atoms: C_3  and  C_5 
REMARK    3  A    between atoms: C_9  and  N_10 
REMARK       I    between atoms: N_10  and  C_13 
REMARK    4  A    between atoms: C_13  and  C_15 
REMARK    5  A    between atoms: C_15  and  C_16 
REMARK    6  A    between atoms: C_16  and  N_17 
REMARK    7  A    between atoms: N_23  and  C_26 
ROOT
HETATM    1  C   UNL     1     -41.610  55.037 -51.742  1.00  0.00     0.142 A 
HETATM    2  N   UNL     1     -41.976  55.701 -50.618  1.00  0.00    -0.224 NA
HETATM    3  C   UNL     1     -41.670  55.146 -49.421  1.00  0.00     0.237 A 
HETATM    4  N   UNL     1     -41.066  53.973 -49.183  1.00  0.00    -0.223 NA
HETATM    5  C   UNL     1     -40.721  53.351 -50.316  1.00  0.00     0.144 A 
HETATM    6  N   UNL     1     -40.070  52.147 -50.388  1.00  0.00    -0.348 N 
HETATM    7  H   UNL     1     -39.790  51.604 -49.582  1.00  0.00     0.167 HD
HETATM    8  C   UNL     1     -39.847  51.822 -51.708  1.00  0.00     0.113 A 
HETATM    9  C   UNL     1     -40.362  52.844 -52.479  1.00  0.00     0.077 A 
HETATM   10  C   UNL     1     -40.328  52.944 -53.905  1.00  0.00     0.102 C 
HETATM   11  N   UNL     1     -40.394  53.144 -55.047  1.00  0.00    -0.191 NA
HETATM   12  C   UNL     1     -40.943  53.805 -51.604  1.00  0.00     0.078 A 
ENDROOT
BRANCH   1  13
HETATM   13  N   UNL     1     -41.878  55.600 -52.999  1.00  0.00    -0.365 N 
HETATM   14  C   UNL     1     -43.275  55.485 -53.393  1.00  0.00     0.126 C 
HETATM   15  C   UNL     1     -44.012  56.786 -53.120  1.00  0.00     0.041 C 
HETATM   16  C   UNL     1     -43.286  58.011 -53.704  1.00  0.00     0.076 C 
HETATM   17  C   UNL     1     -41.819  58.070 -53.229  1.00  0.00     0.041 C 
HETATM   18  C   UNL     1     -41.054  56.751 -53.315  1.00  0.00     0.126 C 
BRANCH  16  19
HETATM   19  C   UNL     1     -43.366  57.934 -55.256  1.00  0.00     0.330 C 
HETATM   20  N   UNL     1     -42.288  57.527 -56.109  1.00  0.00     0.018 N 
HETATM   21  H   UNL     1     -41.926  56.619 -55.791  1.00  0.00     0.294 HD
HETATM   22  H   UNL     1     -41.492  58.152 -55.961  1.00  0.00     0.294 HD
HETATM   23  O   UNL     1     -44.404  58.189 -55.849  1.00  0.00    -0.264 OA
BRANCH  20  24
HETATM   24  C   UNL     1     -42.518  57.439 -57.546  1.00  0.00     0.142 A 
HETATM   25  C   UNL     1     -41.958  58.398 -58.393  1.00  0.00     0.037 A 
HETATM   26  C   UNL     1     -42.126  58.278 -59.772  1.00  0.00     0.003 A 
HETATM   27  C   UNL     1     -42.846  57.203 -60.302  1.00  0.00     0.018 A 
HETATM   28  C   UNL     1     -43.403  56.242 -59.451  1.00  0.00     0.041 A 
HETATM   29  C   UNL     1     -43.235  56.361 -58.062  1.00  0.00     0.055 A 
BRANCH  28  30
HETATM   30  C   UNL     1     -44.177  55.078 -59.955  1.00  0.00     0.293 C 
HETATM   31  O   UNL     1     -44.255  54.037 -59.323  1.00  0.00    -0.259 OA
BRANCH  30  32
HETATM   32  O   UNL     1     -44.716  55.343 -61.164  1.00  0.00    -0.323 OA
HETATM   33  C   UNL     1     -46.078  55.777 -61.116  1.00  0.00     0.213 C 
ENDBRANCH  30  32
ENDBRANCH  28  30
ENDBRANCH  20  24
ENDBRANCH  16  19
BRANCH  16  34
HETATM   34  C   UNL     1     -44.050  59.334 -53.316  1.00  0.00     0.253 C 
BRANCH  34  35
HETATM   35  N   UNL     1     -43.891  60.551 -54.230  1.00  0.00    -0.078 N 
HETATM   36  H   UNL     1     -43.472  60.264 -55.126  1.00  0.00     0.279 HD
HETATM   37  C   UNL     1     -45.144  61.322 -54.567  1.00  0.00     0.269 C 
HETATM   38  C   UNL     1     -42.856  61.511 -53.648  1.00  0.00     0.269 C 
ENDBRANCH  34  35
ENDBRANCH  16  34
ENDBRANCH   1  13
TORSDOF 7
ENDMDL
MODEL 2
REMARK VINA RESULT:      -8.1      1.528      1.924
REMARK  7 active torsions:
REMARK  status: ('A' for Active; 'I' for Inactive)
REMARK    1  A    between atoms: O_2  and  C_3 
REMARK    2  A    between atoms: C_3  and  C_5 
REMARK    3  A    between atoms: C_9  and  N_10 
REMARK       I    between atoms: N_10  and  C_13 
REMARK    4  A    between atoms: C_13  and  C_15 
REMARK    5  A    between atoms: C_15  and  C_16 
REMARK    6  A    between atoms: C_16  and  N_17 
REMARK    7  A    between atoms: N_23  and  C_26 
ROOT
HETATM    1  C   UNL     1     -41.378  55.251 -51.437  1.00  0.00     0.142 A 
HETATM    2  N   UNL     1     -41.638  55.737 -50.198  1.00  0.00    -0.224 NA
HETATM    3  C   UNL     1     -41.336  54.959 -49.131  1.00  0.00     0.237 A 
HETATM    4  N   UNL     1     -40.831  53.717 -49.128  1.00  0.00    -0.223 NA
HETATM    5  C   UNL     1     -40.588  53.275 -50.367  1.00  0.00     0.144 A 
HETATM    6  N   UNL     1     -40.050  52.053 -50.678  1.00  0.00    -0.348 N 
HETATM    7  H   UNL     1     -39.788  51.358 -49.991  1.00  0.00     0.167 HD
HETATM    8  C   UNL     1     -39.910  51.946 -52.044  1.00  0.00     0.113 A 
HETATM    9  C   UNL     1     -40.361  53.125 -52.601  1.00  0.00     0.077 A 
HETATM   10  C   UNL     1     -40.374  53.467 -53.989  1.00  0.00     0.102 C 
HETATM   11  N   UNL     1     -40.467  53.867 -55.076  1.00  0.00    -0.191 NA
HETATM   12  C   UNL     1     -40.818  53.963 -51.546  1.00  0.00     0.078 A 
ENDROOT
BRANCH   1  13
HETATM   13  N   UNL     1     -41.643  56.042 -52.564  1.00  0.00    -0.365 N 
HETATM   14  C   UNL     1     -43.014  55.919 -53.041  1.00  0.00     0.126 C 
HETATM   15  C   UNL     1     -43.856  57.083 -52.545  1.00  0.00     0.041 C 
HETATM   16  C   UNL     1     -43.204  58.449 -52.829  1.00  0.00     0.076 C 
HETATM   17  C   UNL     1     -41.763  58.505 -52.281  1.00  0.00     0.041 C 
HETATM   18  C   UNL     1     -40.898  57.286 -52.596  1.00  0.00     0.126 C 
BRANCH  16  19
HETATM   19  C   UNL     1     -43.225  58.690 -54.367  1.00  0.00     0.330 C 
HETATM   20  N   UNL     1     -42.056  58.817 -55.187  1.00  0.00     0.018 N 
HETATM   21  H   UNL     1     -41.438  58.011 -55.027  1.00  0.00     0.294 HD
HETATM   22  H   UNL     1     -41.494  59.602 -54.850  1.00  0.00     0.294 HD
HETATM   23  O   UNL     1     -44.278  58.747 -54.983  1.00  0.00    -0.264 OA
BRANCH  20  24
HETATM   24  C   UNL     1     -42.218  58.978 -56.628  1.00  0.00     0.142 A 
HETATM   25  C   UNL     1     -42.069  60.243 -57.199  1.00  0.00     0.037 A 
HETATM   26  C   UNL     1     -42.163  60.387 -58.583  1.00  0.00     0.003 A 
HETATM   27  C   UNL     1     -42.399  59.272 -59.392  1.00  0.00     0.018 A 
HETATM   28  C   UNL     1     -42.544  58.004 -58.816  1.00  0.00     0.041 A 
HETATM   29  C   UNL     1     -42.451  57.858 -57.422  1.00  0.00     0.055 A 
BRANCH  28  30
HETATM   30  C   UNL     1     -42.795  56.781 -59.622  1.00  0.00     0.293 C 
HETATM   31  O   UNL     1     -41.955  56.331 -60.385  1.00  0.00    -0.259 OA
BRANCH  30  32
HETATM   32  O   UNL     1     -44.039  56.305 -59.403  1.00  0.00    -0.323 OA
HETATM   33  C   UNL     1     -44.197  54.916 -59.704  1.00  0.00     0.213 C 
ENDBRANCH  30  32
ENDBRANCH  28  30
ENDBRANCH  20  24
ENDBRANCH  16  19
BRANCH  16  34
HETATM   34  C   UNL     1     -44.079  59.608 -52.217  1.00  0.00     0.253 C 
BRANCH  34  35
HETATM   35  N   UNL     1     -44.161  59.718 -50.693  1.00  0.00    -0.078 N 
HETATM   36  H   UNL     1     -43.688  58.914 -50.257  1.00  0.00     0.279 HD
HETATM   37  C   UNL     1     -43.571  60.958 -50.064  1.00  0.00     0.269 C 
HETATM   38  C   UNL     1     -45.609  59.568 -50.234  1.00  0.00     0.269 C 
ENDBRANCH  34  35
ENDBRANCH  16  34
ENDBRANCH   1  13
TORSDOF 7
ENDMDL
MODEL 3
REMARK VINA RESULT:      -7.9      2.886      6.371
REMARK  7 active torsions:
REMARK  status: ('A' for Active; 'I' for Inactive)
REMARK    1  A    between atoms: O_2  and  C_3 
REMARK    2  A    between atoms: C_3  and  C_5 
REMARK    3  A    between atoms: C_9  and  N_10 
REMARK       I    between atoms: N_10  and  C_13 
REMARK    4  A    between atoms: C_13  and  C_15 
REMARK    5  A    between atoms: C_15  and  C_16 
REMARK    6  A    between atoms: C_16  and  N_17 
REMARK    7  A    between atoms: N_23  and  C_26 
ROOT
HETATM    1  C   UNL     1     -40.365  52.065 -53.314  1.00  0.00     0.142 A 
HETATM    2  N   UNL     1     -40.366  51.644 -54.603  1.00  0.00    -0.224 NA
HETATM    3  C   UNL     1     -40.054  50.349 -54.851  1.00  0.00     0.237 A 
HETATM    4  N   UNL     1     -39.697  49.400 -53.973  1.00  0.00    -0.223 NA
HETATM    5  C   UNL     1     -39.711  49.855 -52.715  1.00  0.00     0.144 A 
HETATM    6  N   UNL     1     -39.415  49.110 -51.603  1.00  0.00    -0.348 N 
HETATM    7  H   UNL     1     -39.149  48.134 -51.628  1.00  0.00     0.167 HD
HETATM    8  C   UNL     1     -39.560  49.888 -50.475  1.00  0.00     0.113 A 
HETATM    9  C   UNL     1     -39.961  51.143 -50.886  1.00  0.00     0.077 A 
HETATM   10  C   UNL     1     -40.260  52.263 -50.050  1.00  0.00     0.102 C 
HETATM   11  N   UNL     1     -40.509  53.256 -49.500  1.00  0.00    -0.191 NA
HETATM   12  C   UNL     1     -40.033  51.138 -52.308  1.00  0.00     0.078 A 
ENDROOT
BRANCH   1  13
HETATM   13  N   UNL     1     -40.719  53.389 -53.016  1.00  0.00    -0.365 N 
HETATM   14  C   UNL     1     -39.953  54.371 -53.772  1.00  0.00     0.126 C 
HETATM   15  C   UNL     1     -40.755  54.867 -54.964  1.00  0.00     0.041 C 
HETATM   16  C   UNL     1     -42.172  55.329 -54.573  1.00  0.00     0.076 C 
HETATM   17  C   UNL     1     -42.922  54.230 -53.791  1.00  0.00     0.041 C 
HETATM   18  C   UNL     1     -42.119  53.561 -52.677  1.00  0.00     0.126 C 
BRANCH  16  19
HETATM   19  C   UNL     1     -42.046  56.629 -53.727  1.00  0.00     0.330 C 
HETATM   20  N   UNL     1     -42.756  56.878 -52.507  1.00  0.00     0.018 N 
HETATM   21  H   UNL     1     -42.607  56.093 -51.859  1.00  0.00     0.294 HD
HETATM   22  H   UNL     1     -43.761  56.831 -52.689  1.00  0.00     0.294 HD
HETATM   23  O   UNL     1     -41.278  57.522 -54.050  1.00  0.00    -0.264 OA
BRANCH  20  24
HETATM   24  C   UNL     1     -42.498  58.115 -51.778  1.00  0.00     0.142 A 
HETATM   25  C   UNL     1     -41.406  58.188 -50.911  1.00  0.00     0.037 A 
HETATM   26  C   UNL     1     -41.123  59.390 -50.263  1.00  0.00     0.003 A 
HETATM   27  C   UNL     1     -41.924  60.513 -50.483  1.00  0.00     0.018 A 
HETATM   28  C   UNL     1     -43.017  60.438 -51.356  1.00  0.00     0.041 A 
HETATM   29  C   UNL     1     -43.303  59.228 -52.009  1.00  0.00     0.055 A 
BRANCH  28  30
HETATM   30  C   UNL     1     -43.904  61.597 -51.631  1.00  0.00     0.293 C 
HETATM   31  O   UNL     1     -43.455  62.709 -51.859  1.00  0.00    -0.259 OA
BRANCH  30  32
HETATM   32  O   UNL     1     -45.204  61.239 -51.559  1.00  0.00    -0.323 OA
HETATM   33  C   UNL     1     -45.840  61.585 -50.325  1.00  0.00     0.213 C 
ENDBRANCH  30  32
ENDBRANCH  28  30
ENDBRANCH  20  24
ENDBRANCH  16  19
BRANCH  16  34
HETATM   34  C   UNL     1     -42.981  55.749 -55.859  1.00  0.00     0.253 C 
BRANCH  34  35
HETATM   35  N   UNL     1     -43.031  57.234 -56.222  1.00  0.00    -0.078 N 
HETATM   36  H   UNL     1     -42.558  57.790 -55.496  1.00  0.00     0.279 HD
HETATM   37  C   UNL     1     -42.416  57.637 -57.541  1.00  0.00     0.269 C 
HETATM   38  C   UNL     1     -44.472  57.738 -56.170  1.00  0.00     0.269 C 
ENDBRANCH  34  35
ENDBRANCH  16  34
ENDBRANCH   1  13
TORSDOF 7
ENDMDL
MODEL 4
REMARK VINA RESULT:      -7.8      2.455      6.118
REMARK  7 active torsions:
REMARK  status: ('A' for Active; 'I' for Inactive)
REMARK    1  A    between atoms: O_2  and  C_3 
REMARK    2  A    between atoms: C_3  and  C_5 
REMARK    3  A    between atoms: C_9  and  N_10 
REMARK       I    between atoms: N_10  and  C_13 
REMARK    4  A    between atoms: C_13  and  C_15 
REMARK    5  A    between atoms: C_15  and  C_16 
REMARK    6  A    between atoms: C_16  and  N_17 
REMARK    7  A    between atoms: N_23  and  C_26 
ROOT
HETATM    1  C   UNL     1     -40.960  53.284 -53.297  1.00  0.00     0.142 A 
HETATM    2  N   UNL     1     -40.607  52.689 -54.463  1.00  0.00    -0.224 NA
HETATM    3  C   UNL     1     -39.937  51.512 -54.402  1.00  0.00     0.237 A 
HETATM    4  N   UNL     1     -39.529  50.848 -53.311  1.00  0.00    -0.223 NA
HETATM    5  C   UNL     1     -39.899  51.466 -52.183  1.00  0.00     0.144 A 
HETATM    6  N   UNL     1     -39.644  51.013 -50.915  1.00  0.00    -0.348 N 
HETATM    7  H   UNL     1     -39.142  50.159 -50.708  1.00  0.00     0.167 HD
HETATM    8  C   UNL     1     -40.194  51.879 -49.997  1.00  0.00     0.113 A 
HETATM    9  C   UNL     1     -40.811  52.893 -50.702  1.00  0.00     0.077 A 
HETATM   10  C   UNL     1     -41.537  53.997 -50.157  1.00  0.00     0.102 C 
HETATM   11  N   UNL     1     -42.129  54.951 -49.856  1.00  0.00    -0.191 NA
HETATM   12  C   UNL     1     -40.605  52.652 -52.089  1.00  0.00     0.078 A 
ENDROOT
BRANCH   1  13
HETATM   13  N   UNL     1     -41.686  54.484 -53.321  1.00  0.00    -0.365 N 
HETATM   14  C   UNL     1     -40.897  55.621 -53.774  1.00  0.00     0.126 C 
HETATM   15  C   UNL     1     -41.176  55.911 -55.240  1.00  0.00     0.041 C 
HETATM   16  C   UNL     1     -42.681  56.018 -55.547  1.00  0.00     0.076 C 
HETATM   17  C   UNL     1     -43.443  54.771 -55.051  1.00  0.00     0.041 C 
HETATM   18  C   UNL     1     -43.092  54.313 -53.637  1.00  0.00     0.126 C 
BRANCH  16  19
HETATM   19  C   UNL     1     -43.227  57.309 -54.871  1.00  0.00     0.330 C 
HETATM   20  N   UNL     1     -44.556  57.459 -54.354  1.00  0.00     0.018 N 
HETATM   21  H   UNL     1     -44.761  56.684 -53.710  1.00  0.00     0.294 HD
HETATM   22  H   UNL     1     -45.228  57.306 -55.110  1.00  0.00     0.294 HD
HETATM   23  O   UNL     1     -42.513  58.286 -54.704  1.00  0.00    -0.264 OA
BRANCH  20  24
HETATM   24  C   UNL     1     -44.919  58.704 -53.687  1.00  0.00     0.142 A 
HETATM   25  C   UNL     1     -45.297  59.809 -54.452  1.00  0.00     0.037 A 
HETATM   26  C   UNL     1     -45.704  60.980 -53.813  1.00  0.00     0.003 A 
HETATM   27  C   UNL     1     -45.737  61.044 -52.417  1.00  0.00     0.018 A 
HETATM   28  C   UNL     1     -45.362  59.932 -51.653  1.00  0.00     0.041 A 
HETATM   29  C   UNL     1     -44.951  58.753 -52.295  1.00  0.00     0.055 A 
BRANCH  28  30
HETATM   30  C   UNL     1     -45.378  59.939 -50.167  1.00  0.00     0.293 C 
HETATM   31  O   UNL     1     -46.098  59.189 -49.529  1.00  0.00    -0.259 OA
BRANCH  30  32
HETATM   32  O   UNL     1     -44.536  60.876 -49.679  1.00  0.00    -0.323 OA
HETATM   33  C   UNL     1     -44.942  61.433 -48.426  1.00  0.00     0.213 C 
ENDBRANCH  30  32
ENDBRANCH  28  30
ENDBRANCH  20  24
ENDBRANCH  16  19
BRANCH  16  34
HETATM   34  C   UNL     1     -42.909  56.232 -57.092  1.00  0.00     0.253 C 
BRANCH  34  35
HETATM   35  N   UNL     1     -43.100  57.663 -57.598  1.00  0.00    -0.078 N 
HETATM   36  H   UNL     1     -43.272  58.297 -56.804  1.00  0.00     0.279 HD
HETATM   37  C   UNL     1     -41.966  58.266 -58.391  1.00  0.00     0.269 C 
HETATM   38  C   UNL     1     -44.386  57.762 -58.415  1.00  0.00     0.269 C 
ENDBRANCH  34  35
ENDBRANCH  16  34
ENDBRANCH   1  13
TORSDOF 7
ENDMDL
MODEL 5
REMARK VINA RESULT:      -7.8      2.909      7.594
REMARK  7 active torsions:
REMARK  status: ('A' for Active; 'I' for Inactive)
REMARK    1  A    between atoms: O_2  and  C_3 
REMARK    2  A    between atoms: C_3  and  C_5 
REMARK    3  A    between atoms: C_9  and  N_10 
REMARK       I    between atoms: N_10  and  C_13 
REMARK    4  A    between atoms: C_13  and  C_15 
REMARK    5  A    between atoms: C_15  and  C_16 
REMARK    6  A    between atoms: C_16  and  N_17 
REMARK    7  A    between atoms: N_23  and  C_26 
ROOT
HETATM    1  C   UNL     1     -43.657  59.870 -53.321  1.00  0.00     0.142 A 
HETATM    2  N   UNL     1     -44.445  60.325 -54.325  1.00  0.00    -0.224 NA
HETATM    3  C   UNL     1     -44.932  61.586 -54.233  1.00  0.00     0.237 A 
HETATM    4  N   UNL     1     -44.765  62.467 -53.236  1.00  0.00    -0.223 NA
HETATM    5  C   UNL     1     -43.981  61.980 -52.267  1.00  0.00     0.144 A 
HETATM    6  N   UNL     1     -43.614  62.659 -51.134  1.00  0.00    -0.348 N 
HETATM    7  H   UNL     1     -43.909  63.602 -50.916  1.00  0.00     0.167 HD
HETATM    8  C   UNL     1     -42.779  61.869 -50.375  1.00  0.00     0.113 A 
HETATM    9  C   UNL     1     -42.613  60.675 -51.047  1.00  0.00     0.077 A 
HETATM   10  C   UNL     1     -41.803  59.569 -50.642  1.00  0.00     0.102 C 
HETATM   11  N   UNL     1     -41.210  58.593 -50.428  1.00  0.00    -0.191 NA
HETATM   12  C   UNL     1     -43.394  60.728 -52.236  1.00  0.00     0.078 A 
ENDROOT
BRANCH   1  13
HETATM   13  N   UNL     1     -43.106  58.582 -53.399  1.00  0.00    -0.365 N 
HETATM   14  C   UNL     1     -44.110  57.528 -53.394  1.00  0.00     0.126 C 
HETATM   15  C   UNL     1     -44.380  57.044 -54.809  1.00  0.00     0.041 C 
HETATM   16  C   UNL     1     -43.089  56.688 -55.570  1.00  0.00     0.076 C 
HETATM   17  C   UNL     1     -42.085  57.859 -55.543  1.00  0.00     0.041 C 
HETATM   18  C   UNL     1     -41.883  58.513 -54.177  1.00  0.00     0.126 C 
BRANCH  16  19
HETATM   19  C   UNL     1     -42.476  55.413 -54.922  1.00  0.00     0.330 C 
HETATM   20  N   UNL     1     -41.109  55.286 -54.508  1.00  0.00     0.018 N 
HETATM   21  H   UNL     1     -40.865  56.072 -53.892  1.00  0.00     0.294 HD
HETATM   22  H   UNL     1     -40.500  55.436 -55.316  1.00  0.00     0.294 HD
HETATM   23  O   UNL     1     -43.162  54.430 -54.688  1.00  0.00    -0.264 OA
BRANCH  20  24
HETATM   24  C   UNL     1     -40.679  54.054 -53.856  1.00  0.00     0.142 A 
HETATM   25  C   UNL     1     -40.205  52.994 -54.631  1.00  0.00     0.037 A 
HETATM   26  C   UNL     1     -39.736  51.840 -54.004  1.00  0.00     0.003 A 
HETATM   27  C   UNL     1     -39.737  51.749 -52.610  1.00  0.00     0.018 A 
HETATM   28  C   UNL     1     -40.210  52.815 -51.835  1.00  0.00     0.041 A 
HETATM   29  C   UNL     1     -40.683  53.977 -52.465  1.00  0.00     0.055 A 
BRANCH  28  30
HETATM   30  C   UNL     1     -40.235  52.776 -50.349  1.00  0.00     0.293 C 
HETATM   31  O   UNL     1     -40.456  51.745 -49.737  1.00  0.00    -0.259 OA
BRANCH  30  32
HETATM   32  O   UNL     1     -40.015  54.004 -49.831  1.00  0.00    -0.323 OA
HETATM   33  C   UNL     1     -40.267  54.100 -48.426  1.00  0.00     0.213 C 
ENDBRANCH  30  32
ENDBRANCH  28  30
ENDBRANCH  20  24
ENDBRANCH  16  19
BRANCH  16  34
HETATM   34  C   UNL     1     -43.426  56.277 -57.053  1.00  0.00     0.253 C 
BRANCH  34  35
HETATM   35  N   UNL     1     -43.160  57.299 -58.160  1.00  0.00    -0.078 N 
HETATM   36  H   UNL     1     -42.480  58.001 -57.835  1.00  0.00     0.279 HD
HETATM   37  C   UNL     1     -42.633  56.766 -59.471  1.00  0.00     0.269 C 
HETATM   38  C   UNL     1     -44.417  58.123 -58.426  1.00  0.00     0.269 C 
ENDBRANCH  34  35
ENDBRANCH  16  34
ENDBRANCH   1  13
TORSDOF 7
ENDMDL
MODEL 6
REMARK VINA RESULT:      -7.7      1.585      2.034
REMARK  7 active torsions:
REMARK  status: ('A' for Active; 'I' for Inactive)
REMARK    1  A    between atoms: O_2  and  C_3 
REMARK    2  A    between atoms: C_3  and  C_5 
REMARK    3  A    between atoms: C_9  and  N_10 
REMARK       I    between atoms: N_10  and  C_13 
REMARK    4  A    between atoms: C_13  and  C_15 
REMARK    5  A    between atoms: C_15  and  C_16 
REMARK    6  A    between atoms: C_16  and  N_17 
REMARK    7  A    between atoms: N_23  and  C_26 
ROOT
HETATM    1  C   UNL     1     -41.435  55.097 -51.666  1.00  0.00     0.142 A 
HETATM    2  N   UNL     1     -41.769  55.857 -50.594  1.00  0.00    -0.224 NA
HETATM    3  C   UNL     1     -41.536  55.354 -49.357  1.00  0.00     0.237 A 
HETATM    4  N   UNL     1     -41.037  54.153 -49.033  1.00  0.00    -0.223 NA
HETATM    5  C   UNL     1     -40.719  53.436 -50.118  1.00  0.00     0.144 A 
HETATM    6  N   UNL     1     -40.168  52.181 -50.100  1.00  0.00    -0.348 N 
HETATM    7  H   UNL     1     -39.951  51.668 -49.255  1.00  0.00     0.167 HD
HETATM    8  C   UNL     1     -39.944  51.759 -51.392  1.00  0.00     0.113 A 
HETATM    9  C   UNL     1     -40.356  52.769 -52.236  1.00  0.00     0.077 A 
HETATM   10  C   UNL     1     -40.281  52.778 -53.663  1.00  0.00     0.102 C 
HETATM   11  N   UNL     1     -40.306  52.912 -54.817  1.00  0.00    -0.191 NA
HETATM   12  C   UNL     1     -40.874  53.826 -51.436  1.00  0.00     0.078 A 
ENDROOT
BRANCH   1  13
HETATM   13  N   UNL     1     -41.627  55.601 -52.961  1.00  0.00    -0.365 N 
HETATM   14  C   UNL     1     -42.960  55.338 -53.485  1.00  0.00     0.126 C 
HETATM   15  C   UNL     1     -43.844  56.564 -53.330  1.00  0.00     0.041 C 
HETATM   16  C   UNL     1     -43.185  57.843 -53.880  1.00  0.00     0.076 C 
HETATM   17  C   UNL     1     -41.786  58.059 -53.266  1.00  0.00     0.041 C 
HETATM   18  C   UNL     1     -40.891  56.821 -53.232  1.00  0.00     0.126 C 
BRANCH  16  19
HETATM   19  C   UNL     1     -43.100  57.722 -55.429  1.00  0.00     0.330 C 
HETATM   20  N   UNL     1     -44.028  56.991 -56.241  1.00  0.00     0.018 N 
HETATM   21  H   UNL     1     -44.985  57.297 -56.025  1.00  0.00     0.294 HD
HETATM   22  H   UNL     1     -44.032  56.012 -55.945  1.00  0.00     0.294 HD
HETATM   23  O   UNL     1     -42.227  58.297 -56.062  1.00  0.00    -0.264 OA
BRANCH  20  24
HETATM   24  C   UNL     1     -43.868  57.011 -57.691  1.00  0.00     0.142 A 
HETATM   25  C   UNL     1     -43.167  55.981 -58.320  1.00  0.00     0.037 A 
HETATM   26  C   UNL     1     -43.067  55.968 -59.711  1.00  0.00     0.003 A 
HETATM   27  C   UNL     1     -43.668  56.976 -60.469  1.00  0.00     0.018 A 
HETATM   28  C   UNL     1     -44.374  58.006 -59.835  1.00  0.00     0.041 A 
HETATM   29  C   UNL     1     -44.474  58.021 -58.434  1.00  0.00     0.055 A 
BRANCH  28  30
HETATM   30  C   UNL     1     -45.035  59.105 -60.586  1.00  0.00     0.293 C 
HETATM   31  O   UNL     1     -46.247  59.242 -60.588  1.00  0.00    -0.259 OA
BRANCH  30  32
HETATM   32  O   UNL     1     -44.126  59.855 -61.245  1.00  0.00    -0.323 OA
HETATM   33  C   UNL     1     -43.818  61.097 -60.607  1.00  0.00     0.213 C 
ENDBRANCH  30  32
ENDBRANCH  28  30
ENDBRANCH  20  24
ENDBRANCH  16  19
BRANCH  16  34
HETATM   34  C   UNL     1     -44.109  59.091 -53.613  1.00  0.00     0.253 C 
BRANCH  34  35
HETATM   35  N   UNL     1     -44.106  60.221 -54.643  1.00  0.00    -0.078 N 
HETATM   36  H   UNL     1     -43.552  59.944 -55.467  1.00  0.00     0.279 HD
HETATM   37  C   UNL     1     -45.447  60.679 -55.162  1.00  0.00     0.269 C 
HETATM   38  C   UNL     1     -43.345  61.427 -54.096  1.00  0.00     0.269 C 
ENDBRANCH  34  35
ENDBRANCH  16  34
ENDBRANCH   1  13
TORSDOF 7
ENDMDL
MODEL 7
REMARK VINA RESULT:      -7.7      2.920      7.493
REMARK  7 active torsions:
REMARK  status: ('A' for Active; 'I' for Inactive)
REMARK    1  A    between atoms: O_2  and  C_3 
REMARK    2  A    between atoms: C_3  and  C_5 
REMARK    3  A    between atoms: C_9  and  N_10 
REMARK       I    between atoms: N_10  and  C_13 
REMARK    4  A    between atoms: C_13  and  C_15 
REMARK    5  A    between atoms: C_15  and  C_16 
REMARK    6  A    between atoms: C_16  and  N_17 
REMARK    7  A    between atoms: N_23  and  C_26 
ROOT
HETATM    1  C   UNL     1     -44.654  58.711 -56.260  1.00  0.00     0.142 A 
HETATM    2  N   UNL     1     -45.305  59.804 -55.791  1.00  0.00    -0.224 NA
HETATM    3  C   UNL     1     -46.040  60.533 -56.666  1.00  0.00     0.237 A 
HETATM    4  N   UNL     1     -46.191  60.339 -57.983  1.00  0.00    -0.223 NA
HETATM    5  C   UNL     1     -45.535  59.251 -58.405  1.00  0.00     0.144 A 
HETATM    6  N   UNL     1     -45.523  58.788 -59.695  1.00  0.00    -0.348 N 
HETATM    7  H   UNL     1     -46.010  59.233 -60.463  1.00  0.00     0.167 HD
HETATM    8  C   UNL     1     -44.775  57.633 -59.763  1.00  0.00     0.113 A 
HETATM    9  C   UNL     1     -44.315  57.362 -58.490  1.00  0.00     0.077 A 
HETATM   10  C   UNL     1     -43.523  56.244 -58.086  1.00  0.00     0.102 C 
HETATM   11  N   UNL     1     -42.864  55.406 -57.622  1.00  0.00    -0.191 NA
HETATM   12  C   UNL     1     -44.770  58.399 -57.628  1.00  0.00     0.078 A 
ENDROOT
BRANCH   1  13
HETATM   13  N   UNL     1     -43.914  57.912 -55.377  1.00  0.00    -0.365 N 
HETATM   14  C   UNL     1     -42.592  58.450 -55.087  1.00  0.00     0.126 C 
HETATM   15  C   UNL     1     -42.597  59.183 -53.756  1.00  0.00     0.041 C 
HETATM   16  C   UNL     1     -43.204  58.342 -52.618  1.00  0.00     0.076 C 
HETATM   17  C   UNL     1     -44.607  57.822 -52.995  1.00  0.00     0.041 C 
HETATM   18  C   UNL     1     -44.724  57.218 -54.393  1.00  0.00     0.126 C 
BRANCH  16  19
HETATM   19  C   UNL     1     -42.236  57.161 -52.314  1.00  0.00     0.330 C 
HETATM   20  N   UNL     1     -42.644  55.882 -51.813  1.00  0.00     0.018 N 
HETATM   21  H   UNL     1     -43.386  55.502 -52.413  1.00  0.00     0.294 HD
HETATM   22  H   UNL     1     -43.121  56.011 -50.918  1.00  0.00     0.294 HD
HETATM   23  O   UNL     1     -41.037  57.255 -52.531  1.00  0.00    -0.264 OA
BRANCH  20  24
HETATM   24  C   UNL     1     -41.639  54.841 -51.630  1.00  0.00     0.142 A 
HETATM   25  C   UNL     1     -41.059  54.657 -50.373  1.00  0.00     0.037 A 
HETATM   26  C   UNL     1     -40.144  53.622 -50.183  1.00  0.00     0.003 A 
HETATM   27  C   UNL     1     -39.813  52.773 -51.243  1.00  0.00     0.018 A 
HETATM   28  C   UNL     1     -40.399  52.958 -52.501  1.00  0.00     0.041 A 
HETATM   29  C   UNL     1     -41.319  54.000 -52.694  1.00  0.00     0.055 A 
BRANCH  28  30
HETATM   30  C   UNL     1     -40.088  52.088 -53.665  1.00  0.00     0.293 C 
HETATM   31  O   UNL     1     -40.150  52.502 -54.811  1.00  0.00    -0.259 OA
BRANCH  30  32
HETATM   32  O   UNL     1     -39.775  50.837 -53.264  1.00  0.00    -0.323 OA
HETATM   33  C   UNL     1     -39.716  49.879 -54.323  1.00  0.00     0.213 C 
ENDBRANCH  30  32
ENDBRANCH  28  30
ENDBRANCH  20  24
ENDBRANCH  16  19
BRANCH  16  34
HETATM   34  C   UNL     1     -43.260  59.184 -51.288  1.00  0.00     0.253 C 
BRANCH  34  35
HETATM   35  N   UNL     1     -42.293  60.361 -51.140  1.00  0.00    -0.078 N 
HETATM   36  H   UNL     1     -41.848  60.565 -52.047  1.00  0.00     0.279 HD
HETATM   37  C   UNL     1     -42.871  61.663 -50.642  1.00  0.00     0.269 C 
HETATM   38  C   UNL     1     -41.118  59.964 -50.250  1.00  0.00     0.269 C 
ENDBRANCH  34  35
ENDBRANCH  16  34
ENDBRANCH   1  13
TORSDOF 7
ENDMDL
MODEL 8
REMARK VINA RESULT:      -7.2      3.678      7.428
REMARK  7 active torsions:
REMARK  status: ('A' for Active; 'I' for Inactive)
REMARK    1  A    between atoms: O_2  and  C_3 
REMARK    2  A    between atoms: C_3  and  C_5 
REMARK    3  A    between atoms: C_9  and  N_10 
REMARK       I    between atoms: N_10  and  C_13 
REMARK    4  A    between atoms: C_13  and  C_15 
REMARK    5  A    between atoms: C_15  and  C_16 
REMARK    6  A    between atoms: C_16  and  N_17 
REMARK    7  A    between atoms: N_23  and  C_26 
ROOT
HETATM    1  C   UNL     1     -41.377  55.297 -53.015  1.00  0.00     0.142 A 
HETATM    2  N   UNL     1     -41.461  55.118 -54.356  1.00  0.00    -0.224 NA
HETATM    3  C   UNL     1     -41.047  53.934 -54.869  1.00  0.00     0.237 A 
HETATM    4  N   UNL     1     -40.514  52.890 -54.217  1.00  0.00    -0.223 NA
HETATM    5  C   UNL     1     -40.451  53.106 -52.898  1.00  0.00     0.144 A 
HETATM    6  N   UNL     1     -39.977  52.212 -51.974  1.00  0.00    -0.348 N 
HETATM    7  H   UNL     1     -39.619  51.294 -52.204  1.00  0.00     0.167 HD
HETATM    8  C   UNL     1     -40.089  52.751 -50.711  1.00  0.00     0.113 A 
HETATM    9  C   UNL     1     -40.650  54.005 -50.844  1.00  0.00     0.077 A 
HETATM   10  C   UNL     1     -40.977  54.914 -49.791  1.00  0.00     0.102 C 
HETATM   11  N   UNL     1     -41.269  55.755 -49.045  1.00  0.00    -0.191 NA
HETATM   12  C   UNL     1     -40.859  54.248 -52.231  1.00  0.00     0.078 A 
ENDROOT
BRANCH   1  13
HETATM   13  N   UNL     1     -41.831  56.495 -52.445  1.00  0.00    -0.365 N 
HETATM   14  C   UNL     1     -40.830  57.553 -52.463  1.00  0.00     0.126 C 
HETATM   15  C   UNL     1     -41.079  58.500 -53.625  1.00  0.00     0.041 C 
HETATM   16  C   UNL     1     -42.535  59.001 -53.679  1.00  0.00     0.076 C 
HETATM   17  C   UNL     1     -43.531  57.823 -53.672  1.00  0.00     0.041 C 
HETATM   18  C   UNL     1     -43.249  56.737 -52.636  1.00  0.00     0.126 C 
BRANCH  16  19
HETATM   19  C   UNL     1     -42.774  59.941 -52.462  1.00  0.00     0.330 C 
HETATM   20  N   UNL     1     -44.032  60.546 -52.135  1.00  0.00     0.018 N 
HETATM   21  H   UNL     1     -44.758  59.820 -52.090  1.00  0.00     0.294 HD
HETATM   22  H   UNL     1     -44.339  61.123 -52.922  1.00  0.00     0.294 HD
HETATM   23  O   UNL     1     -41.879  60.189 -51.669  1.00  0.00    -0.264 OA
BRANCH  20  24
HETATM   24  C   UNL     1     -44.134  61.357 -50.928  1.00  0.00     0.142 A 
HETATM   25  C   UNL     1     -43.735  62.695 -50.962  1.00  0.00     0.037 A 
HETATM   26  C   UNL     1     -43.890  63.487 -49.824  1.00  0.00     0.003 A 
HETATM   27  C   UNL     1     -44.445  62.946 -48.661  1.00  0.00     0.018 A 
HETATM   28  C   UNL     1     -44.847  61.605 -48.631  1.00  0.00     0.041 A 
HETATM   29  C   UNL     1     -44.691  60.807 -49.776  1.00  0.00     0.055 A 
BRANCH  28  30
HETATM   30  C   UNL     1     -45.444  60.974 -47.426  1.00  0.00     0.293 C 
HETATM   31  O   UNL     1     -46.117  59.960 -47.498  1.00  0.00    -0.259 OA
BRANCH  30  32
HETATM   32  O   UNL     1     -45.157  61.687 -46.315  1.00  0.00    -0.323 OA
HETATM   33  C   UNL     1     -44.674  60.901 -45.222  1.00  0.00     0.213 C 
ENDBRANCH  30  32
ENDBRANCH  28  30
ENDBRANCH  20  24
ENDBRANCH  16  19
BRANCH  16  34
HETATM   34  C   UNL     1     -42.752  59.907 -54.950  1.00  0.00     0.253 C 
BRANCH  34  35
HETATM   35  N   UNL     1     -44.018  59.688 -55.781  1.00  0.00    -0.078 N 
HETATM   36  H   UNL     1     -44.492  58.825 -55.478  1.00  0.00     0.279 HD
HETATM   37  C   UNL     1     -45.056  60.783 -55.748  1.00  0.00     0.269 C 
HETATM   38  C   UNL     1     -43.647  59.396 -57.233  1.00  0.00     0.269 C 
ENDBRANCH  34  35
ENDBRANCH  16  34
ENDBRANCH   1  13
TORSDOF 7
ENDMDL
MODEL 9
REMARK VINA RESULT:      -7.1      2.623      6.026
REMARK  7 active torsions:
REMARK  status: ('A' for Active; 'I' for Inactive)
REMARK    1  A    between atoms: O_2  and  C_3 
REMARK    2  A    between atoms: C_3  and  C_5 
REMARK    3  A    between atoms: C_9  and  N_10 
REMARK       I    between atoms: N_10  and  C_13 
REMARK    4  A    between atoms: C_13  and  C_15 
REMARK    5  A    between atoms: C_15  and  C_16 
REMARK    6  A    between atoms: C_16  and  N_17 
REMARK    7  A    between atoms: N_23  and  C_26 
ROOT
HETATM    1  C   UNL     1     -41.108  53.595 -53.112  1.00  0.00     0.142 A 
HETATM    2  N   UNL     1     -40.810  53.179 -54.367  1.00  0.00    -0.224 NA
HETATM    3  C   UNL     1     -40.101  52.032 -54.508  1.00  0.00     0.237 A 
HETATM    4  N   UNL     1     -39.606  51.242 -53.545  1.00  0.00    -0.223 NA
HETATM    5  C   UNL     1     -39.923  51.686 -52.323  1.00  0.00     0.144 A 
HETATM    6  N   UNL     1     -39.576  51.075 -51.146  1.00  0.00    -0.348 N 
HETATM    7  H   UNL     1     -39.034  50.222 -51.088  1.00  0.00     0.167 HD
HETATM    8  C   UNL     1     -40.094  51.787 -50.087  1.00  0.00     0.113 A 
HETATM    9  C   UNL     1     -40.786  52.861 -50.608  1.00  0.00     0.077 A 
HETATM   10  C   UNL     1     -41.511  53.851 -49.875  1.00  0.00     0.102 C 
HETATM   11  N   UNL     1     -42.112  54.731 -49.412  1.00  0.00    -0.191 NA
HETATM   12  C   UNL     1     -40.659  52.820 -52.025  1.00  0.00     0.078 A 
ENDROOT
BRANCH   1  13
HETATM   13  N   UNL     1     -41.872  54.757 -52.928  1.00  0.00    -0.365 N 
HETATM   14  C   UNL     1     -41.087  55.980 -53.023  1.00  0.00     0.126 C 
HETATM   15  C   UNL     1     -41.237  56.602 -54.401  1.00  0.00     0.041 C 
HETATM   16  C   UNL     1     -42.710  56.758 -54.823  1.00  0.00     0.076 C 
HETATM   17  C   UNL     1     -43.468  55.420 -54.710  1.00  0.00     0.041 C 
HETATM   18  C   UNL     1     -43.235  54.647 -53.413  1.00  0.00     0.126 C 
BRANCH  16  19
HETATM   19  C   UNL     1     -43.364  57.847 -53.923  1.00  0.00     0.330 C 
HETATM   20  N   UNL     1     -44.715  57.806 -53.446  1.00  0.00     0.018 N 
HETATM   21  H   UNL     1     -44.886  56.904 -52.983  1.00  0.00     0.294 HD
HETATM   22  H   UNL     1     -45.350  57.772 -54.246  1.00  0.00     0.294 HD
HETATM   23  O   UNL     1     -42.723  58.810 -53.529  1.00  0.00    -0.264 OA
BRANCH  20  24
HETATM   24  C   UNL     1     -45.182  58.863 -52.556  1.00  0.00     0.142 A 
HETATM   25  C   UNL     1     -45.122  58.675 -51.174  1.00  0.00     0.037 A 
HETATM   26  C   UNL     1     -45.512  59.709 -50.322  1.00  0.00     0.003 A 
HETATM   27  C   UNL     1     -45.954  60.925 -50.850  1.00  0.00     0.018 A 
HETATM   28  C   UNL     1     -46.010  61.111 -52.236  1.00  0.00     0.041 A 
HETATM   29  C   UNL     1     -45.619  60.071 -53.094  1.00  0.00     0.055 A 
BRANCH  28  30
HETATM   30  C   UNL     1     -46.470  62.381 -52.856  1.00  0.00     0.293 C 
HETATM   31  O   UNL     1     -46.144  63.468 -52.410  1.00  0.00    -0.259 OA
BRANCH  30  32
HETATM   32  O   UNL     1     -47.282  62.139 -53.908  1.00  0.00    -0.323 OA
HETATM   33  C   UNL     1     -48.610  62.647 -53.754  1.00  0.00     0.213 C 
ENDBRANCH  30  32
ENDBRANCH  28  30
ENDBRANCH  20  24
ENDBRANCH  16  19
BRANCH  16  34
HETATM   34  C   UNL     1     -42.799  57.327 -56.290  1.00  0.00     0.253 C 
BRANCH  34  35
HETATM   35  N   UNL     1     -44.014  56.942 -57.137  1.00  0.00    -0.078 N 
HETATM   36  H   UNL     1     -44.516  56.158 -56.696  1.00  0.00     0.279 HD
HETATM   37  C   UNL     1     -45.039  58.020 -57.392  1.00  0.00     0.269 C 
HETATM   38  C   UNL     1     -43.558  56.362 -58.474  1.00  0.00     0.269 C 
ENDBRANCH  34  35
ENDBRANCH  16  34
ENDBRANCH   1  13
TORSDOF 7
ENDMDL
MODEL 10
REMARK VINA RESULT:      -7.1      2.527      6.343
REMARK  7 active torsions:
REMARK  status: ('A' for Active; 'I' for Inactive)
REMARK    1  A    between atoms: O_2  and  C_3 
REMARK    2  A    between atoms: C_3  and  C_5 
REMARK    3  A    between atoms: C_9  and  N_10 
REMARK       I    between atoms: N_10  and  C_13 
REMARK    4  A    between atoms: C_13  and  C_15 
REMARK    5  A    between atoms: C_15  and  C_16 
REMARK    6  A    between atoms: C_16  and  N_17 
REMARK    7  A    between atoms: N_23  and  C_26 
ROOT
HETATM    1  C   UNL     1     -41.072  53.963 -53.159  1.00  0.00     0.142 A 
HETATM    2  N   UNL     1     -40.754  53.595 -54.424  1.00  0.00    -0.224 NA
HETATM    3  C   UNL     1     -40.087  52.428 -54.601  1.00  0.00     0.237 A 
HETATM    4  N   UNL     1     -39.651  51.574 -53.664  1.00  0.00    -0.223 NA
HETATM    5  C   UNL     1     -39.986  51.973 -52.431  1.00  0.00     0.144 A 
HETATM    6  N   UNL     1     -39.697  51.293 -51.277  1.00  0.00    -0.348 N 
HETATM    7  H   UNL     1     -39.192  50.417 -51.245  1.00  0.00     0.167 HD
HETATM    8  C   UNL     1     -40.217  51.975 -50.199  1.00  0.00     0.113 A 
HETATM    9  C   UNL     1     -40.850  53.100 -50.685  1.00  0.00     0.077 A 
HETATM   10  C   UNL     1     -41.556  54.083 -49.925  1.00  0.00     0.102 C 
HETATM   11  N   UNL     1     -42.135  54.964 -49.436  1.00  0.00    -0.191 NA
HETATM   12  C   UNL     1     -40.684  53.120 -52.099  1.00  0.00     0.078 A 
ENDROOT
BRANCH   1  13
HETATM   13  N   UNL     1     -41.794  55.146 -52.940  1.00  0.00    -0.365 N 
HETATM   14  C   UNL     1     -41.072  56.342 -53.351  1.00  0.00     0.126 C 
HETATM   15  C   UNL     1     -41.544  56.802 -54.721  1.00  0.00     0.041 C 
HETATM   16  C   UNL     1     -43.076  56.922 -54.810  1.00  0.00     0.076 C 
HETATM   17  C   UNL     1     -43.766  55.613 -54.373  1.00  0.00     0.041 C 
HETATM   18  C   UNL     1     -43.229  54.993 -53.084  1.00  0.00     0.126 C 
BRANCH  16  19
HETATM   19  C   UNL     1     -43.527  58.114 -53.915  1.00  0.00     0.330 C 
HETATM   20  N   UNL     1     -44.553  58.041 -52.917  1.00  0.00     0.018 N 
HETATM   21  H   UNL     1     -44.355  57.257 -52.281  1.00  0.00     0.294 HD
HETATM   22  H   UNL     1     -45.429  57.755 -53.359  1.00  0.00     0.294 HD
HETATM   23  O   UNL     1     -42.981  59.204 -53.993  1.00  0.00    -0.264 OA
BRANCH  20  24
HETATM   24  C   UNL     1     -44.833  59.218 -52.103  1.00  0.00     0.142 A 
HETATM   25  C   UNL     1     -44.019  59.507 -51.006  1.00  0.00     0.037 A 
HETATM   26  C   UNL     1     -44.249  60.666 -50.266  1.00  0.00     0.003 A 
HETATM   27  C   UNL     1     -45.284  61.534 -50.623  1.00  0.00     0.018 A 
HETATM   28  C   UNL     1     -46.097  61.244 -51.725  1.00  0.00     0.041 A 
HETATM   29  C   UNL     1     -45.867  60.077 -52.471  1.00  0.00     0.055 A 
BRANCH  28  30
HETATM   30  C   UNL     1     -47.212  62.128 -52.154  1.00  0.00     0.293 C 
HETATM   31  O   UNL     1     -48.027  61.774 -52.990  1.00  0.00    -0.259 OA
BRANCH  30  32
HETATM   32  O   UNL     1     -47.154  63.320 -51.522  1.00  0.00    -0.323 OA
HETATM   33  C   UNL     1     -48.387  63.727 -50.923  1.00  0.00     0.213 C 
ENDBRANCH  30  32
ENDBRANCH  28  30
ENDBRANCH  20  24
ENDBRANCH  16  19
BRANCH  16  34
HETATM   34  C   UNL     1     -43.508  57.318 -56.273  1.00  0.00     0.253 C 
BRANCH  34  35
HETATM   35  N   UNL     1     -42.557  56.973 -57.421  1.00  0.00    -0.078 N 
HETATM   36  H   UNL     1     -41.665  56.622 -57.044  1.00  0.00     0.279 HD
HETATM   37  C   UNL     1     -43.035  55.948 -58.420  1.00  0.00     0.269 C 
HETATM   38  C   UNL     1     -42.151  58.243 -58.165  1.00  0.00     0.269 C 
ENDBRANCH  34  35
ENDBRANCH  16  34
ENDBRANCH   1  13
TORSDOF 7
ENDMDL
