MODEL 1
REMARK VINA RESULT:      -7.9      0.000      0.000
REMARK  6 active torsions:
REMARK  status: ('A' for Active; 'I' for Inactive)
REMARK    1  A    between atoms: C_9  and  C_10 
REMARK       I    between atoms: C_10  and  N_11 
REMARK    2  A    between atoms: N_11  and  C_12 
REMARK    3  A    between atoms: C_12  and  C_13 
REMARK    4  A    between atoms: C_13  and  O_14 
REMARK    5  A    between atoms: C_13  and  C_15 
REMARK    6  A    between atoms: C_18  and  O_19 
ROOT
HETATM    1  C   UNL     1     -40.817  55.037 -53.733  1.00  0.00     0.258 C 
HETATM    2  N   UNL     1     -41.943  55.812 -53.596  1.00  0.00    -0.350 N 
HETATM    3  O   UNL     1     -40.038  55.158 -54.674  1.00  0.00    -0.267 OA
HETATM    4  H   UNL     1     -42.478  55.724 -52.733  1.00  0.00     0.163 HD
ENDROOT
BRANCH   2   5
HETATM    5  C   UNL     1     -42.221  56.962 -54.450  1.00  0.00     0.114 C 
HETATM    6  C   UNL     1     -41.975  58.245 -53.649  1.00  0.00     0.035 C 
BRANCH   5   7
HETATM    7  C   UNL     1     -43.668  56.935 -55.009  1.00  0.00     0.173 C 
BRANCH   7   8
HETATM    8  O   UNL     1     -44.443  55.916 -54.360  1.00  0.00    -0.389 OA
HETATM    9  H   UNL     1     -44.866  55.398 -55.066  1.00  0.00     0.210 HD
ENDBRANCH   7   8
BRANCH   7  10
HETATM   10  C   UNL     1     -43.726  56.771 -56.517  1.00  0.00    -0.028 A 
HETATM   11  C   UNL     1     -43.158  55.641 -57.119  1.00  0.00     0.012 A 
HETATM   12  C   UNL     1     -43.208  55.473 -58.504  1.00  0.00     0.037 A 
HETATM   13  C   UNL     1     -43.829  56.425 -59.316  1.00  0.00     0.068 A 
HETATM   14  C   UNL     1     -44.410  57.546 -58.726  1.00  0.00     0.037 A 
HETATM   15  C   UNL     1     -44.364  57.715 -57.337  1.00  0.00     0.012 A 
BRANCH  13  16
HETATM   16  O   UNL     1     -43.800  56.140 -60.653  1.00  0.00    -0.356 OA
HETATM   17  C   UNL     1     -44.800  55.255 -61.143  1.00  0.00     0.210 C 
ENDBRANCH  13  16
ENDBRANCH   7  10
ENDBRANCH   5   7
ENDBRANCH   2   5
BRANCH   1  18
HETATM   18  C   UNL     1     -40.598  54.071 -52.668  1.00  0.00     0.105 A 
HETATM   19  C   UNL     1     -40.272  52.731 -52.788  1.00  0.00     0.169 A 
HETATM   20  N   UNL     1     -40.048  51.945 -53.891  1.00  0.00    -0.233 NA
HETATM   21  N   UNL     1     -40.222  52.217 -51.487  1.00  0.00    -0.219 N 
HETATM   22  C   UNL     1     -39.815  50.683 -53.668  1.00  0.00     0.035 A 
HETATM   23  C   UNL     1     -39.556  49.789 -54.854  1.00  0.00     0.070 C 
HETATM   24  C   UNL     1     -39.753  50.048 -52.315  1.00  0.00     0.053 A 
HETATM   25  C   UNL     1     -39.959  50.858 -51.261  1.00  0.00     0.036 A 
HETATM   26  C   UNL     1     -39.934  50.372 -49.846  1.00  0.00     0.070 C 
HETATM   27  N   UNL     1     -40.457  53.178 -50.562  1.00  0.00    -0.170 NA
HETATM   28  C   UNL     1     -40.692  54.289 -51.269  1.00  0.00     0.071 A 
HETATM   29  C   UNL     1     -41.011  55.559 -50.565  1.00  0.00     0.073 C 
ENDBRANCH   1  18
TORSDOF 6
ENDMDL
MODEL 2
REMARK VINA RESULT:      -7.9      2.735      7.535
REMARK  6 active torsions:
REMARK  status: ('A' for Active; 'I' for Inactive)
REMARK    1  A    between atoms: C_9  and  C_10 
REMARK       I    between atoms: C_10  and  N_11 
REMARK    2  A    between atoms: N_11  and  C_12 
REMARK    3  A    between atoms: C_12  and  C_13 
REMARK    4  A    between atoms: C_13  and  O_14 
REMARK    5  A    between atoms: C_13  and  C_15 
REMARK    6  A    between atoms: C_18  and  O_19 
ROOT
HETATM    1  C   UNL     1     -43.507  57.263 -54.946  1.00  0.00     0.258 C 
HETATM    2  N   UNL     1     -42.497  56.814 -54.129  1.00  0.00    -0.350 N 
HETATM    3  O   UNL     1     -44.689  57.237 -54.616  1.00  0.00    -0.267 OA
HETATM    4  H   UNL     1     -41.536  56.970 -54.432  1.00  0.00     0.163 HD
ENDROOT
BRANCH   2   5
HETATM    5  C   UNL     1     -42.714  56.435 -52.737  1.00  0.00     0.114 C 
HETATM    6  C   UNL     1     -41.414  56.652 -51.956  1.00  0.00     0.035 C 
BRANCH   5   7
HETATM    7  C   UNL     1     -43.195  54.966 -52.602  1.00  0.00     0.173 C 
BRANCH   7   8
HETATM    8  O   UNL     1     -43.835  54.757 -51.335  1.00  0.00    -0.389 OA
HETATM    9  H   UNL     1     -43.739  53.811 -51.130  1.00  0.00     0.210 HD
ENDBRANCH   7   8
BRANCH   7  10
HETATM   10  C   UNL     1     -42.089  53.949 -52.817  1.00  0.00    -0.028 A 
HETATM   11  C   UNL     1     -41.846  53.444 -54.101  1.00  0.00     0.012 A 
HETATM   12  C   UNL     1     -40.829  52.511 -54.316  1.00  0.00     0.037 A 
HETATM   13  C   UNL     1     -40.031  52.068 -53.258  1.00  0.00     0.068 A 
HETATM   14  C   UNL     1     -40.256  52.576 -51.980  1.00  0.00     0.037 A 
HETATM   15  C   UNL     1     -41.273  53.513 -51.762  1.00  0.00     0.012 A 
BRANCH  13  16
HETATM   16  O   UNL     1     -39.078  51.153 -53.608  1.00  0.00    -0.356 OA
HETATM   17  C   UNL     1     -39.519  50.009 -54.329  1.00  0.00     0.210 C 
ENDBRANCH  13  16
ENDBRANCH   7  10
ENDBRANCH   5   7
ENDBRANCH   2   5
BRANCH   1  18
HETATM   18  C   UNL     1     -43.074  57.795 -56.228  1.00  0.00     0.105 A 
HETATM   19  C   UNL     1     -43.205  57.215 -57.478  1.00  0.00     0.169 A 
HETATM   20  N   UNL     1     -43.769  56.028 -57.875  1.00  0.00    -0.233 NA
HETATM   21  N   UNL     1     -42.589  58.084 -58.385  1.00  0.00    -0.219 N 
HETATM   22  C   UNL     1     -43.677  55.735 -59.141  1.00  0.00     0.035 A 
HETATM   23  C   UNL     1     -44.292  54.443 -59.617  1.00  0.00     0.070 C 
HETATM   24  C   UNL     1     -43.030  56.599 -60.177  1.00  0.00     0.053 A 
HETATM   25  C   UNL     1     -42.507  57.761 -59.748  1.00  0.00     0.036 A 
HETATM   26  C   UNL     1     -41.823  58.731 -60.661  1.00  0.00     0.070 C 
HETATM   27  N   UNL     1     -42.122  59.197 -57.770  1.00  0.00    -0.170 NA
HETATM   28  C   UNL     1     -42.404  59.021 -56.475  1.00  0.00     0.071 A 
HETATM   29  C   UNL     1     -42.009  60.057 -55.485  1.00  0.00     0.073 C 
ENDBRANCH   1  18
TORSDOF 6
ENDMDL
MODEL 3
REMARK VINA RESULT:      -7.7      3.603      6.582
REMARK  6 active torsions:
REMARK  status: ('A' for Active; 'I' for Inactive)
REMARK    1  A    between atoms: C_9  and  C_10 
REMARK       I    between atoms: C_10  and  N_11 
REMARK    2  A    between atoms: N_11  and  C_12 
REMARK    3  A    between atoms: C_12  and  C_13 
REMARK    4  A    between atoms: C_13  and  O_14 
REMARK    5  A    between atoms: C_13  and  C_15 
REMARK    6  A    between atoms: C_18  and  O_19 
ROOT
HETATM    1  C   UNL     1     -42.800  56.461 -53.322  1.00  0.00     0.258 C 
HETATM    2  N   UNL     1     -41.928  57.498 -53.093  1.00  0.00    -0.350 N 
HETATM    3  O   UNL     1     -44.015  56.618 -53.388  1.00  0.00    -0.267 OA
HETATM    4  H   UNL     1     -40.929  57.303 -53.161  1.00  0.00     0.163 HD
ENDROOT
BRANCH   2   5
HETATM    5  C   UNL     1     -42.344  58.897 -53.085  1.00  0.00     0.114 C 
HETATM    6  C   UNL     1     -41.699  59.613 -54.275  1.00  0.00     0.035 C 
BRANCH   5   7
HETATM    7  C   UNL     1     -41.978  59.605 -51.755  1.00  0.00     0.173 C 
BRANCH   7   8
HETATM    8  O   UNL     1     -41.099  58.787 -50.970  1.00  0.00    -0.389 OA
HETATM    9  H   UNL     1     -40.235  58.802 -51.416  1.00  0.00     0.210 HD
ENDBRANCH   7   8
BRANCH   7  10
HETATM   10  C   UNL     1     -43.191  60.021 -50.942  1.00  0.00    -0.028 A 
HETATM   11  C   UNL     1     -43.107  61.119 -50.076  1.00  0.00     0.012 A 
HETATM   12  C   UNL     1     -44.216  61.517 -49.325  1.00  0.00     0.037 A 
HETATM   13  C   UNL     1     -45.429  60.832 -49.425  1.00  0.00     0.068 A 
HETATM   14  C   UNL     1     -45.526  59.746 -50.294  1.00  0.00     0.037 A 
HETATM   15  C   UNL     1     -44.417  59.348 -51.050  1.00  0.00     0.012 A 
BRANCH  13  16
HETATM   16  O   UNL     1     -46.428  61.323 -48.631  1.00  0.00    -0.356 OA
HETATM   17  C   UNL     1     -46.101  61.581 -47.272  1.00  0.00     0.210 C 
ENDBRANCH  13  16
ENDBRANCH   7  10
ENDBRANCH   5   7
ENDBRANCH   2   5
BRANCH   1  18
HETATM   18  C   UNL     1     -42.177  55.159 -53.505  1.00  0.00     0.105 A 
HETATM   19  C   UNL     1     -41.393  54.458 -52.606  1.00  0.00     0.169 A 
HETATM   20  N   UNL     1     -40.995  54.750 -51.325  1.00  0.00    -0.233 NA
HETATM   21  N   UNL     1     -40.988  53.289 -53.261  1.00  0.00    -0.219 N 
HETATM   22  C   UNL     1     -40.194  53.895 -50.756  1.00  0.00     0.035 A 
HETATM   23  C   UNL     1     -39.740  54.177 -49.346  1.00  0.00     0.070 C 
HETATM   24  C   UNL     1     -39.704  52.629 -51.383  1.00  0.00     0.053 A 
HETATM   25  C   UNL     1     -40.133  52.372 -52.632  1.00  0.00     0.036 A 
HETATM   26  C   UNL     1     -39.729  51.149 -53.395  1.00  0.00     0.070 C 
HETATM   27  N   UNL     1     -41.517  53.206 -54.505  1.00  0.00    -0.170 NA
HETATM   28  C   UNL     1     -42.223  54.332 -54.656  1.00  0.00     0.071 A 
HETATM   29  C   UNL     1     -42.937  54.590 -55.935  1.00  0.00     0.073 C 
ENDBRANCH   1  18
TORSDOF 6
ENDMDL
MODEL 4
REMARK VINA RESULT:      -7.7      2.646      7.583
REMARK  6 active torsions:
REMARK  status: ('A' for Active; 'I' for Inactive)
REMARK    1  A    between atoms: C_9  and  C_10 
REMARK       I    between atoms: C_10  and  N_11 
REMARK    2  A    between atoms: N_11  and  C_12 
REMARK    3  A    between atoms: C_12  and  C_13 
REMARK    4  A    between atoms: C_13  and  O_14 
REMARK    5  A    between atoms: C_13  and  C_15 
REMARK    6  A    between atoms: C_18  and  O_19 
ROOT
HETATM    1  C   UNL     1     -43.280  56.935 -54.134  1.00  0.00     0.258 C 
HETATM    2  N   UNL     1     -42.540  56.675 -53.006  1.00  0.00    -0.350 N 
HETATM    3  O   UNL     1     -44.288  56.301 -54.427  1.00  0.00    -0.267 OA
HETATM    4  H   UNL     1     -41.781  57.316 -52.777  1.00  0.00     0.163 HD
ENDROOT
BRANCH   2   5
HETATM    5  C   UNL     1     -42.978  55.749 -51.967  1.00  0.00     0.114 C 
HETATM    6  C   UNL     1     -43.935  56.482 -51.021  1.00  0.00     0.035 C 
BRANCH   5   7
HETATM    7  C   UNL     1     -41.783  55.149 -51.180  1.00  0.00     0.173 C 
BRANCH   7   8
HETATM    8  O   UNL     1     -40.826  56.168 -50.857  1.00  0.00    -0.389 OA
HETATM    9  H   UNL     1     -40.550  56.565 -51.701  1.00  0.00     0.210 HD
ENDBRANCH   7   8
BRANCH   7  10
HETATM   10  C   UNL     1     -41.111  53.993 -51.898  1.00  0.00    -0.028 A 
HETATM   11  C   UNL     1     -40.230  53.157 -51.201  1.00  0.00     0.012 A 
HETATM   12  C   UNL     1     -39.608  52.085 -51.846  1.00  0.00     0.037 A 
HETATM   13  C   UNL     1     -39.855  51.824 -53.196  1.00  0.00     0.068 A 
HETATM   14  C   UNL     1     -40.742  52.642 -53.895  1.00  0.00     0.037 A 
HETATM   15  C   UNL     1     -41.368  53.714 -53.249  1.00  0.00     0.012 A 
BRANCH  13  16
HETATM   16  O   UNL     1     -39.177  50.750 -53.702  1.00  0.00    -0.356 OA
HETATM   17  C   UNL     1     -39.916  49.850 -54.518  1.00  0.00     0.210 C 
ENDBRANCH  13  16
ENDBRANCH   7  10
ENDBRANCH   5   7
ENDBRANCH   2   5
BRANCH   1  18
HETATM   18  C   UNL     1     -42.795  58.037 -54.950  1.00  0.00     0.105 A 
HETATM   19  C   UNL     1     -42.619  58.065 -56.323  1.00  0.00     0.169 A 
HETATM   20  N   UNL     1     -42.852  57.118 -57.290  1.00  0.00    -0.233 NA
HETATM   21  N   UNL     1     -42.084  59.322 -56.629  1.00  0.00    -0.219 N 
HETATM   22  C   UNL     1     -42.521  57.437 -58.508  1.00  0.00     0.035 A 
HETATM   23  C   UNL     1     -42.769  56.426 -59.599  1.00  0.00     0.070 C 
HETATM   24  C   UNL     1     -41.936  58.750 -58.922  1.00  0.00     0.053 A 
HETATM   25  C   UNL     1     -41.742  59.656 -57.947  1.00  0.00     0.036 A 
HETATM   26  C   UNL     1     -41.161  61.012 -58.201  1.00  0.00     0.070 C 
HETATM   27  N   UNL     1     -41.959  60.092 -55.522  1.00  0.00    -0.170 NA
HETATM   28  C   UNL     1     -42.377  59.320 -54.513  1.00  0.00     0.071 A 
HETATM   29  C   UNL     1     -42.359  59.847 -53.123  1.00  0.00     0.073 C 
ENDBRANCH   1  18
TORSDOF 6
ENDMDL
MODEL 5
REMARK VINA RESULT:      -7.6      2.293      3.152
REMARK  6 active torsions:
REMARK  status: ('A' for Active; 'I' for Inactive)
REMARK    1  A    between atoms: C_9  and  C_10 
REMARK       I    between atoms: C_10  and  N_11 
REMARK    2  A    between atoms: N_11  and  C_12 
REMARK    3  A    between atoms: C_12  and  C_13 
REMARK    4  A    between atoms: C_13  and  O_14 
REMARK    5  A    between atoms: C_13  and  C_15 
REMARK    6  A    between atoms: C_18  and  O_19 
ROOT
HETATM    1  C   UNL     1     -41.709  57.258 -53.532  1.00  0.00     0.258 C 
HETATM    2  N   UNL     1     -42.688  56.614 -54.249  1.00  0.00    -0.350 N 
HETATM    3  O   UNL     1     -41.157  58.280 -53.931  1.00  0.00    -0.267 OA
HETATM    4  H   UNL     1     -43.171  55.836 -53.801  1.00  0.00     0.163 HD
ENDROOT
BRANCH   2   5
HETATM    5  C   UNL     1     -43.287  57.177 -55.455  1.00  0.00     0.114 C 
HETATM    6  C   UNL     1     -44.792  57.346 -55.228  1.00  0.00     0.035 C 
BRANCH   5   7
HETATM    7  C   UNL     1     -43.016  56.297 -56.704  1.00  0.00     0.173 C 
BRANCH   7   8
HETATM    8  O   UNL     1     -41.983  55.339 -56.434  1.00  0.00    -0.389 OA
HETATM    9  H   UNL     1     -41.777  54.909 -57.282  1.00  0.00     0.210 HD
ENDBRANCH   7   8
BRANCH   7  10
HETATM   10  C   UNL     1     -42.688  57.103 -57.947  1.00  0.00    -0.028 A 
HETATM   11  C   UNL     1     -42.256  58.430 -57.824  1.00  0.00     0.012 A 
HETATM   12  C   UNL     1     -41.945  59.184 -58.958  1.00  0.00     0.037 A 
HETATM   13  C   UNL     1     -42.052  58.629 -60.235  1.00  0.00     0.068 A 
HETATM   14  C   UNL     1     -42.467  57.304 -60.368  1.00  0.00     0.037 A 
HETATM   15  C   UNL     1     -42.777  56.547 -59.232  1.00  0.00     0.012 A 
BRANCH  13  16
HETATM   16  O   UNL     1     -41.723  59.477 -61.255  1.00  0.00    -0.356 OA
HETATM   17  C   UNL     1     -42.275  60.787 -61.206  1.00  0.00     0.210 C 
ENDBRANCH  13  16
ENDBRANCH   7  10
ENDBRANCH   5   7
ENDBRANCH   2   5
BRANCH   1  18
HETATM   18  C   UNL     1     -41.383  56.654 -52.250  1.00  0.00     0.105 A 
HETATM   19  C   UNL     1     -40.962  55.359 -52.002  1.00  0.00     0.169 A 
HETATM   20  N   UNL     1     -40.717  54.305 -52.846  1.00  0.00    -0.233 NA
HETATM   21  N   UNL     1     -40.831  55.244 -50.613  1.00  0.00    -0.219 N 
HETATM   22  C   UNL     1     -40.384  53.178 -52.287  1.00  0.00     0.035 A 
HETATM   23  C   UNL     1     -40.099  51.997 -53.182  1.00  0.00     0.070 C 
HETATM   24  C   UNL     1     -40.230  52.962 -50.814  1.00  0.00     0.053 A 
HETATM   25  C   UNL     1     -40.460  54.026 -50.025  1.00  0.00     0.036 A 
HETATM   26  C   UNL     1     -40.352  53.970 -48.533  1.00  0.00     0.070 C 
HETATM   27  N   UNL     1     -41.106  56.414 -49.988  1.00  0.00    -0.170 NA
HETATM   28  C   UNL     1     -41.446  57.258 -50.968  1.00  0.00     0.071 A 
HETATM   29  C   UNL     1     -41.835  58.655 -50.638  1.00  0.00     0.073 C 
ENDBRANCH   1  18
TORSDOF 6
ENDMDL
MODEL 6
REMARK VINA RESULT:      -7.6      2.992      7.776
REMARK  6 active torsions:
REMARK  status: ('A' for Active; 'I' for Inactive)
REMARK    1  A    between atoms: C_9  and  C_10 
REMARK       I    between atoms: C_10  and  N_11 
REMARK    2  A    between atoms: N_11  and  C_12 
REMARK    3  A    between atoms: C_12  and  C_13 
REMARK    4  A    between atoms: C_13  and  O_14 
REMARK    5  A    between atoms: C_13  and  C_15 
REMARK    6  A    between atoms: C_18  and  O_19 
ROOT
HETATM    1  C   UNL     1     -41.612  57.535 -53.617  1.00  0.00     0.258 C 
HETATM    2  N   UNL     1     -42.686  57.033 -54.312  1.00  0.00    -0.350 N 
HETATM    3  O   UNL     1     -40.470  57.109 -53.761  1.00  0.00    -0.267 OA
HETATM    4  H   UNL     1     -43.580  57.513 -54.216  1.00  0.00     0.163 HD
ENDROOT
BRANCH   2   5
HETATM    5  C   UNL     1     -42.544  56.079 -55.407  1.00  0.00     0.114 C 
HETATM    6  C   UNL     1     -43.329  56.594 -56.617  1.00  0.00     0.035 C 
BRANCH   5   7
HETATM    7  C   UNL     1     -43.024  54.659 -55.007  1.00  0.00     0.173 C 
BRANCH   7   8
HETATM    8  O   UNL     1     -44.331  54.713 -54.416  1.00  0.00    -0.389 OA
HETATM    9  H   UNL     1     -44.203  54.624 -53.456  1.00  0.00     0.210 HD
ENDBRANCH   7   8
BRANCH   7  10
HETATM   10  C   UNL     1     -42.054  53.933 -54.093  1.00  0.00    -0.028 A 
HETATM   11  C   UNL     1     -40.979  53.222 -54.641  1.00  0.00     0.012 A 
HETATM   12  C   UNL     1     -40.074  52.553 -53.814  1.00  0.00     0.037 A 
HETATM   13  C   UNL     1     -40.220  52.582 -52.425  1.00  0.00     0.068 A 
HETATM   14  C   UNL     1     -41.279  53.299 -51.869  1.00  0.00     0.037 A 
HETATM   15  C   UNL     1     -42.185  53.973 -52.696  1.00  0.00     0.012 A 
BRANCH  13  16
HETATM   16  O   UNL     1     -39.269  51.882 -51.736  1.00  0.00    -0.356 OA
HETATM   17  C   UNL     1     -39.510  50.494 -51.541  1.00  0.00     0.210 C 
ENDBRANCH  13  16
ENDBRANCH   7  10
ENDBRANCH   5   7
ENDBRANCH   2   5
BRANCH   1  18
HETATM   18  C   UNL     1     -41.920  58.629 -52.709  1.00  0.00     0.105 A 
HETATM   19  C   UNL     1     -42.447  59.870 -53.021  1.00  0.00     0.169 A 
HETATM   20  N   UNL     1     -42.838  60.419 -54.217  1.00  0.00    -0.233 NA
HETATM   21  N   UNL     1     -42.510  60.587 -51.820  1.00  0.00    -0.219 N 
HETATM   22  C   UNL     1     -43.244  61.655 -54.185  1.00  0.00     0.035 A 
HETATM   23  C   UNL     1     -43.689  62.290 -55.479  1.00  0.00     0.070 C 
HETATM   24  C   UNL     1     -43.335  62.497 -52.952  1.00  0.00     0.053 A 
HETATM   25  C   UNL     1     -42.960  61.915 -51.799  1.00  0.00     0.036 A 
HETATM   26  C   UNL     1     -42.989  62.627 -50.482  1.00  0.00     0.070 C 
HETATM   27  N   UNL     1     -42.091  59.840 -50.771  1.00  0.00    -0.170 NA
HETATM   28  C   UNL     1     -41.729  58.668 -51.304  1.00  0.00     0.071 A 
HETATM   29  C   UNL     1     -41.191  57.593 -50.429  1.00  0.00     0.073 C 
ENDBRANCH   1  18
TORSDOF 6
ENDMDL
MODEL 7
REMARK VINA RESULT:      -7.6      2.524      3.396
REMARK  6 active torsions:
REMARK  status: ('A' for Active; 'I' for Inactive)
REMARK    1  A    between atoms: C_9  and  C_10 
REMARK       I    between atoms: C_10  and  N_11 
REMARK    2  A    between atoms: N_11  and  C_12 
REMARK    3  A    between atoms: C_12  and  C_13 
REMARK    4  A    between atoms: C_13  and  O_14 
REMARK    5  A    between atoms: C_13  and  C_15 
REMARK    6  A    between atoms: C_18  and  O_19 
ROOT
HETATM    1  C   UNL     1     -41.422  58.551 -53.619  1.00  0.00     0.258 C 
HETATM    2  N   UNL     1     -42.400  58.225 -54.527  1.00  0.00    -0.350 N 
HETATM    3  O   UNL     1     -40.700  59.536 -53.744  1.00  0.00    -0.267 OA
HETATM    4  H   UNL     1     -43.027  57.455 -54.295  1.00  0.00     0.163 HD
ENDROOT
BRANCH   2   5
HETATM    5  C   UNL     1     -42.791  59.109 -55.620  1.00  0.00     0.114 C 
HETATM    6  C   UNL     1     -44.247  58.817 -55.997  1.00  0.00     0.035 C 
BRANCH   5   7
HETATM    7  C   UNL     1     -41.864  58.953 -56.854  1.00  0.00     0.173 C 
BRANCH   7   8
HETATM    8  O   UNL     1     -41.507  60.237 -57.386  1.00  0.00    -0.389 OA
HETATM    9  H   UNL     1     -40.674  60.493 -56.953  1.00  0.00     0.210 HD
ENDBRANCH   7   8
BRANCH   7  10
HETATM   10  C   UNL     1     -42.451  58.069 -57.939  1.00  0.00    -0.028 A 
HETATM   11  C   UNL     1     -42.758  58.614 -59.193  1.00  0.00     0.012 A 
HETATM   12  C   UNL     1     -43.294  57.813 -60.204  1.00  0.00     0.037 A 
HETATM   13  C   UNL     1     -43.530  56.454 -59.987  1.00  0.00     0.068 A 
HETATM   14  C   UNL     1     -43.215  55.899 -58.748  1.00  0.00     0.037 A 
HETATM   15  C   UNL     1     -42.675  56.699 -57.734  1.00  0.00     0.012 A 
BRANCH  13  16
HETATM   16  O   UNL     1     -44.062  55.790 -61.058  1.00  0.00    -0.356 OA
HETATM   17  C   UNL     1     -45.096  54.853 -60.784  1.00  0.00     0.210 C 
ENDBRANCH  13  16
ENDBRANCH   7  10
ENDBRANCH   5   7
ENDBRANCH   2   5
BRANCH   1  18
HETATM   18  C   UNL     1     -41.313  57.654 -52.479  1.00  0.00     0.105 A 
HETATM   19  C   UNL     1     -41.207  56.274 -52.490  1.00  0.00     0.169 A 
HETATM   20  N   UNL     1     -41.156  55.373 -53.525  1.00  0.00    -0.233 NA
HETATM   21  N   UNL     1     -41.185  55.867 -51.151  1.00  0.00    -0.219 N 
HETATM   22  C   UNL     1     -41.116  54.114 -53.198  1.00  0.00     0.035 A 
HETATM   23  C   UNL     1     -41.051  53.094 -54.307  1.00  0.00     0.070 C 
HETATM   24  C   UNL     1     -41.098  53.590 -51.797  1.00  0.00     0.053 A 
HETATM   25  C   UNL     1     -41.130  54.507 -50.813  1.00  0.00     0.036 A 
HETATM   26  C   UNL     1     -41.123  54.142 -49.361  1.00  0.00     0.070 C 
HETATM   27  N   UNL     1     -41.227  56.927 -50.308  1.00  0.00    -0.170 NA
HETATM   28  C   UNL     1     -41.313  57.998 -51.103  1.00  0.00     0.071 A 
HETATM   29  C   UNL     1     -41.398  59.357 -50.505  1.00  0.00     0.073 C 
ENDBRANCH   1  18
TORSDOF 6
ENDMDL
MODEL 8
REMARK VINA RESULT:      -7.2      4.532      8.998
REMARK  6 active torsions:
REMARK  status: ('A' for Active; 'I' for Inactive)
REMARK    1  A    between atoms: C_9  and  C_10 
REMARK       I    between atoms: C_10  and  N_11 
REMARK    2  A    between atoms: N_11  and  C_12 
REMARK    3  A    between atoms: C_12  and  C_13 
REMARK    4  A    between atoms: C_13  and  O_14 
REMARK    5  A    between atoms: C_13  and  C_15 
REMARK    6  A    between atoms: C_18  and  O_19 
ROOT
HETATM    1  C   UNL     1     -44.620  57.812 -51.329  1.00  0.00     0.258 C 
HETATM    2  N   UNL     1     -43.414  57.485 -51.901  1.00  0.00    -0.350 N 
HETATM    3  O   UNL     1     -45.211  57.066 -50.554  1.00  0.00    -0.267 OA
HETATM    4  H   UNL     1     -42.937  58.203 -52.447  1.00  0.00     0.163 HD
ENDROOT
BRANCH   2   5
HETATM    5  C   UNL     1     -42.643  56.311 -51.507  1.00  0.00     0.114 C 
HETATM    6  C   UNL     1     -41.175  56.532 -51.886  1.00  0.00     0.035 C 
BRANCH   5   7
HETATM    7  C   UNL     1     -43.187  55.012 -52.157  1.00  0.00     0.173 C 
BRANCH   7   8
HETATM    8  O   UNL     1     -44.169  54.395 -51.312  1.00  0.00    -0.389 OA
HETATM    9  H   UNL     1     -44.816  55.087 -51.089  1.00  0.00     0.210 HD
ENDBRANCH   7   8
BRANCH   7  10
HETATM   10  C   UNL     1     -42.098  54.021 -52.523  1.00  0.00    -0.028 A 
HETATM   11  C   UNL     1     -41.861  53.710 -53.869  1.00  0.00     0.012 A 
HETATM   12  C   UNL     1     -40.858  52.804 -54.222  1.00  0.00     0.037 A 
HETATM   13  C   UNL     1     -40.070  52.194 -53.244  1.00  0.00     0.068 A 
HETATM   14  C   UNL     1     -40.289  52.508 -51.903  1.00  0.00     0.037 A 
HETATM   15  C   UNL     1     -41.291  53.418 -51.547  1.00  0.00     0.012 A 
BRANCH  13  16
HETATM   16  O   UNL     1     -39.131  51.326 -53.728  1.00  0.00    -0.356 OA
HETATM   17  C   UNL     1     -39.550  49.985 -53.948  1.00  0.00     0.210 C 
ENDBRANCH  13  16
ENDBRANCH   7  10
ENDBRANCH   5   7
ENDBRANCH   2   5
BRANCH   1  18
HETATM   18  C   UNL     1     -45.140  59.121 -51.690  1.00  0.00     0.105 A 
HETATM   19  C   UNL     1     -45.516  60.150 -50.843  1.00  0.00     0.169 A 
HETATM   20  N   UNL     1     -45.499  60.255 -49.475  1.00  0.00    -0.233 NA
HETATM   21  N   UNL     1     -46.000  61.179 -51.660  1.00  0.00    -0.219 N 
HETATM   22  C   UNL     1     -45.984  61.352 -48.969  1.00  0.00     0.035 A 
HETATM   23  C   UNL     1     -45.975  61.507 -47.469  1.00  0.00     0.070 C 
HETATM   24  C   UNL     1     -46.528  62.496 -49.764  1.00  0.00     0.053 A 
HETATM   25  C   UNL     1     -46.509  62.360 -51.101  1.00  0.00     0.036 A 
HETATM   26  C   UNL     1     -47.023  63.414 -52.033  1.00  0.00     0.070 C 
HETATM   27  N   UNL     1     -45.902  60.860 -52.973  1.00  0.00    -0.170 NA
HETATM   28  C   UNL     1     -45.395  59.623 -52.992  1.00  0.00     0.071 A 
HETATM   29  C   UNL     1     -45.168  58.938 -54.292  1.00  0.00     0.073 C 
ENDBRANCH   1  18
TORSDOF 6
ENDMDL
MODEL 9
REMARK VINA RESULT:      -7.2     14.526     17.402
REMARK  6 active torsions:
REMARK  status: ('A' for Active; 'I' for Inactive)
REMARK    1  A    between atoms: C_9  and  C_10 
REMARK       I    between atoms: C_10  and  N_11 
REMARK    2  A    between atoms: N_11  and  C_12 
REMARK    3  A    between atoms: C_12  and  C_13 
REMARK    4  A    between atoms: C_13  and  O_14 
REMARK    5  A    between atoms: C_13  and  C_15 
REMARK    6  A    between atoms: C_18  and  O_19 
ROOT
HETATM    1  C   UNL     1     -35.335  38.299 -58.458  1.00  0.00     0.258 C 
HETATM    2  N   UNL     1     -35.703  39.609 -58.645  1.00  0.00    -0.350 N 
HETATM    3  O   UNL     1     -36.145  37.377 -58.447  1.00  0.00    -0.267 OA
HETATM    4  H   UNL     1     -34.961  40.301 -58.749  1.00  0.00     0.163 HD
ENDROOT
BRANCH   2   5
HETATM    5  C   UNL     1     -37.055  40.006 -59.024  1.00  0.00     0.114 C 
HETATM    6  C   UNL     1     -37.199  39.885 -60.544  1.00  0.00     0.035 C 
BRANCH   5   7
HETATM    7  C   UNL     1     -37.391  41.446 -58.555  1.00  0.00     0.173 C 
BRANCH   7   8
HETATM    8  O   UNL     1     -36.905  42.413 -59.497  1.00  0.00    -0.389 OA
HETATM    9  H   UNL     1     -36.017  42.118 -59.762  1.00  0.00     0.210 HD
ENDBRANCH   7   8
BRANCH   7  10
HETATM   10  C   UNL     1     -36.883  41.757 -57.159  1.00  0.00    -0.028 A 
HETATM   11  C   UNL     1     -37.681  41.467 -56.045  1.00  0.00     0.012 A 
HETATM   12  C   UNL     1     -37.225  41.742 -54.753  1.00  0.00     0.037 A 
HETATM   13  C   UNL     1     -35.965  42.308 -54.547  1.00  0.00     0.068 A 
HETATM   14  C   UNL     1     -35.158  42.588 -55.648  1.00  0.00     0.037 A 
HETATM   15  C   UNL     1     -35.611  42.310 -56.943  1.00  0.00     0.012 A 
BRANCH  13  16
HETATM   16  O   UNL     1     -35.648  42.530 -53.236  1.00  0.00    -0.356 OA
HETATM   17  C   UNL     1     -35.773  41.425 -52.348  1.00  0.00     0.210 C 
ENDBRANCH  13  16
ENDBRANCH   7  10
ENDBRANCH   5   7
ENDBRANCH   2   5
BRANCH   1  18
HETATM   18  C   UNL     1     -33.907  38.075 -58.295  1.00  0.00     0.105 A 
HETATM   19  C   UNL     1     -33.088  38.518 -57.270  1.00  0.00     0.169 A 
HETATM   20  N   UNL     1     -33.359  39.251 -56.141  1.00  0.00    -0.233 NA
HETATM   21  N   UNL     1     -31.792  38.095 -57.587  1.00  0.00    -0.219 N 
HETATM   22  C   UNL     1     -32.341  39.561 -55.391  1.00  0.00     0.035 A 
HETATM   23  C   UNL     1     -32.599  40.359 -54.138  1.00  0.00     0.070 C 
HETATM   24  C   UNL     1     -30.924  39.160 -55.658  1.00  0.00     0.053 A 
HETATM   25  C   UNL     1     -30.706  38.427 -56.764  1.00  0.00     0.036 A 
HETATM   26  C   UNL     1     -29.345  37.953 -57.170  1.00  0.00     0.070 C 
HETATM   27  N   UNL     1     -31.770  37.374 -58.734  1.00  0.00    -0.170 NA
HETATM   28  C   UNL     1     -33.036  37.369 -59.164  1.00  0.00     0.071 A 
HETATM   29  C   UNL     1     -33.383  36.672 -60.431  1.00  0.00     0.073 C 
ENDBRANCH   1  18
TORSDOF 6
ENDMDL
MODEL 10
REMARK VINA RESULT:      -7.2     14.167     15.786
REMARK  6 active torsions:
REMARK  status: ('A' for Active; 'I' for Inactive)
REMARK    1  A    between atoms: C_9  and  C_10 
REMARK       I    between atoms: C_10  and  N_11 
REMARK    2  A    between atoms: N_11  and  C_12 
REMARK    3  A    between atoms: C_12  and  C_13 
REMARK    4  A    between atoms: C_13  and  O_14 
REMARK    5  A    between atoms: C_13  and  C_15 
REMARK    6  A    between atoms: C_18  and  O_19 
ROOT
HETATM    1  C   UNL     1     -36.740  38.895 -51.648  1.00  0.00     0.258 C 
HETATM    2  N   UNL     1     -36.369  40.198 -51.877  1.00  0.00    -0.350 N 
HETATM    3  O   UNL     1     -36.501  37.988 -52.440  1.00  0.00    -0.267 OA
HETATM    4  H   UNL     1     -36.507  40.871 -51.123  1.00  0.00     0.163 HD
ENDROOT
BRANCH   2   5
HETATM    5  C   UNL     1     -35.506  40.593 -52.985  1.00  0.00     0.114 C 
HETATM    6  C   UNL     1     -34.053  40.602 -52.503  1.00  0.00     0.035 C 
BRANCH   5   7
HETATM    7  C   UNL     1     -35.900  41.978 -53.564  1.00  0.00     0.173 C 
BRANCH   7   8
HETATM    8  O   UNL     1     -37.071  42.486 -52.908  1.00  0.00    -0.389 OA
HETATM    9  H   UNL     1     -37.609  42.914 -53.596  1.00  0.00     0.210 HD
ENDBRANCH   7   8
BRANCH   7  10
HETATM   10  C   UNL     1     -36.092  41.968 -55.069  1.00  0.00    -0.028 A 
HETATM   11  C   UNL     1     -37.371  41.776 -55.608  1.00  0.00     0.012 A 
HETATM   12  C   UNL     1     -37.565  41.770 -56.992  1.00  0.00     0.037 A 
HETATM   13  C   UNL     1     -36.490  41.958 -57.864  1.00  0.00     0.068 A 
HETATM   14  C   UNL     1     -35.216  42.163 -57.337  1.00  0.00     0.037 A 
HETATM   15  C   UNL     1     -35.020  42.173 -55.951  1.00  0.00     0.012 A 
BRANCH  13  16
HETATM   16  O   UNL     1     -36.820  41.922 -59.190  1.00  0.00    -0.356 OA
HETATM   17  C   UNL     1     -37.258  40.674 -59.710  1.00  0.00     0.210 C 
ENDBRANCH  13  16
ENDBRANCH   7  10
ENDBRANCH   5   7
ENDBRANCH   2   5
BRANCH   1  18
HETATM   18  C   UNL     1     -37.421  38.659 -50.385  1.00  0.00     0.105 A 
HETATM   19  C   UNL     1     -38.778  38.501 -50.167  1.00  0.00     0.169 A 
HETATM   20  N   UNL     1     -39.845  38.501 -51.031  1.00  0.00    -0.233 NA
HETATM   21  N   UNL     1     -38.943  38.352 -48.785  1.00  0.00    -0.219 N 
HETATM   22  C   UNL     1     -41.026  38.385 -50.497  1.00  0.00     0.035 A 
HETATM   23  C   UNL     1     -42.223  38.374 -51.415  1.00  0.00     0.070 C 
HETATM   24  C   UNL     1     -41.295  38.232 -49.033  1.00  0.00     0.053 A 
HETATM   25  C   UNL     1     -40.222  38.218 -48.224  1.00  0.00     0.036 A 
HETATM   26  C   UNL     1     -40.326  38.076 -46.737  1.00  0.00     0.070 C 
HETATM   27  N   UNL     1     -37.754  38.365 -48.137  1.00  0.00    -0.170 NA
HETATM   28  C   UNL     1     -36.840  38.558 -49.094  1.00  0.00     0.071 A 
HETATM   29  C   UNL     1     -35.400  38.645 -48.735  1.00  0.00     0.073 C 
ENDBRANCH   1  18
TORSDOF 6
ENDMDL
