MODEL 1
REMARK VINA RESULT:      -8.4      0.000      0.000
REMARK  8 active torsions:
REMARK  status: ('A' for Active; 'I' for Inactive)
REMARK    1  A    between atoms: C_2  and  O_3 
REMARK    2  A    between atoms: O_3  and  C_4 
REMARK    3  A    between atoms: C_4  and  C_5 
REMARK    4  A    between atoms: C_6  and  C_7 
REMARK    5  A    between atoms: C_7  and  N_8 
REMARK    6  A    between atoms: C_12  and  N_13 
REMARK    7  A    between atoms: C_12  and  C_20 
REMARK       I    between atoms: C_20  and  N_21 
REMARK    8  A    between atoms: N_25  and  C_26 
ROOT
HETATM    1  N   UNL     1     -42.622  56.476 -55.180  1.00  0.00    -0.066 N 
HETATM    2  H   UNL     1     -43.510  55.997 -54.928  1.00  0.00     0.280 HD
HETATM    3  C   UNL     1     -42.907  57.906 -55.523  1.00  0.00     0.238 C 
HETATM    4  C   UNL     1     -43.892  57.963 -56.694  1.00  0.00     0.077 C 
HETATM    5  C   UNL     1     -43.380  57.203 -57.937  1.00  0.00     0.210 C 
HETATM    6  C   UNL     1     -43.024  55.754 -57.501  1.00  0.00     0.077 C 
HETATM    7  C   UNL     1     -42.039  55.712 -56.333  1.00  0.00     0.238 C 
ENDROOT
BRANCH   1   8
HETATM    8  C   UNL     1     -41.774  56.316 -53.918  1.00  0.00     0.294 C 
BRANCH   8   9
HETATM    9  C   UNL     1     -42.519  55.789 -52.742  1.00  0.00     0.080 C 
HETATM   10  C   UNL     1     -43.577  56.318 -51.996  1.00  0.00     0.085 C 
HETATM   11  C   UNL     1     -43.725  55.429 -50.918  1.00  0.00     0.159 C 
HETATM   12  N   UNL     1     -42.819  54.459 -50.945  1.00  0.00    -0.178 NA
HETATM   13  N   UNL     1     -42.228  54.555 -52.155  1.00  0.00    -0.235 N 
BRANCH  10  14
HETATM   14  C   UNL     1     -44.292  57.559 -52.224  1.00  0.00     0.296 C 
HETATM   15  O   UNL     1     -45.109  57.661 -53.138  1.00  0.00    -0.259 OA
BRANCH  14  16
HETATM   16  O   UNL     1     -43.902  58.560 -51.401  1.00  0.00    -0.318 OA
BRANCH  16  17
HETATM   17  C   UNL     1     -42.917  59.475 -51.910  1.00  0.00     0.174 C 
HETATM   18  C   UNL     1     -41.626  59.358 -51.119  1.00  0.00     0.034 C 
ENDBRANCH  16  17
ENDBRANCH  14  16
ENDBRANCH  10  14
BRANCH  13  19
HETATM   19  C   UNL     1     -41.310  53.550 -52.568  1.00  0.00     0.064 A 
HETATM   20  C   UNL     1     -40.266  53.069 -51.753  1.00  0.00    -0.033 A 
HETATM   21  C   UNL     1     -39.816  53.688 -50.459  1.00  0.00     0.050 C 
HETATM   22  C   UNL     1     -39.485  51.998 -52.234  1.00  0.00     0.009 A 
HETATM   23  C   UNL     1     -39.687  51.469 -53.509  1.00  0.00     0.001 A 
HETATM   24  C   UNL     1     -40.663  52.009 -54.338  1.00  0.00     0.002 A 
HETATM   25  C   UNL     1     -41.466  53.049 -53.874  1.00  0.00     0.032 A 
ENDBRANCH  13  19
ENDBRANCH   8   9
ENDBRANCH   1   8
BRANCH   5  26
HETATM   26  N   UNL     1     -44.555  57.091 -59.019  1.00  0.00    -0.053 N 
HETATM   27  H   UNL     1     -44.288  57.687 -59.815  1.00  0.00     0.281 HD
HETATM   28  C   UNL     1     -44.792  55.700 -59.597  1.00  0.00     0.236 C 
HETATM   29  C   UNL     1     -45.776  55.779 -60.757  1.00  0.00     0.028 C 
HETATM   30  C   UNL     1     -47.101  56.395 -60.333  1.00  0.00     0.003 C 
HETATM   31  C   UNL     1     -46.880  57.746 -59.670  1.00  0.00     0.028 C 
HETATM   32  C   UNL     1     -45.895  57.653 -58.511  1.00  0.00     0.236 C 
ENDBRANCH   5  26
BRANCH   5  33
HETATM   33  C   UNL     1     -42.117  57.881 -58.546  1.00  0.00     0.252 C 
HETATM   34  N   UNL     1     -41.475  57.281 -59.582  1.00  0.00    -0.368 N 
HETATM   35  H   UNL     1     -41.715  56.421 -60.060  1.00  0.00     0.159 HD
HETATM   36  H   UNL     1     -40.635  57.745 -59.931  1.00  0.00     0.159 HD
HETATM   37  O   UNL     1     -41.671  58.925 -58.078  1.00  0.00    -0.271 OA
ENDBRANCH   5  33
TORSDOF 8
ENDMDL
MODEL 2
REMARK VINA RESULT:      -8.3      1.902      4.651
REMARK  8 active torsions:
REMARK  status: ('A' for Active; 'I' for Inactive)
REMARK    1  A    between atoms: C_2  and  O_3 
REMARK    2  A    between atoms: O_3  and  C_4 
REMARK    3  A    between atoms: C_4  and  C_5 
REMARK    4  A    between atoms: C_6  and  C_7 
REMARK    5  A    between atoms: C_7  and  N_8 
REMARK    6  A    between atoms: C_12  and  N_13 
REMARK    7  A    between atoms: C_12  and  C_20 
REMARK       I    between atoms: C_20  and  N_21 
REMARK    8  A    between atoms: N_25  and  C_26 
ROOT
HETATM    1  N   UNL     1     -42.114  56.369 -54.992  1.00  0.00    -0.066 N 
HETATM    2  H   UNL     1     -42.926  55.901 -54.541  1.00  0.00     0.280 HD
HETATM    3  C   UNL     1     -42.455  57.801 -55.270  1.00  0.00     0.238 C 
HETATM    4  C   UNL     1     -43.680  57.865 -56.185  1.00  0.00     0.077 C 
HETATM    5  C   UNL     1     -43.474  57.094 -57.508  1.00  0.00     0.210 C 
HETATM    6  C   UNL     1     -43.043  55.643 -57.155  1.00  0.00     0.077 C 
HETATM    7  C   UNL     1     -41.818  55.594 -56.243  1.00  0.00     0.238 C 
ENDROOT
BRANCH   1   8
HETATM    8  C   UNL     1     -41.002  56.204 -53.956  1.00  0.00     0.294 C 
BRANCH   8   9
HETATM    9  C   UNL     1     -41.413  55.469 -52.729  1.00  0.00     0.080 C 
HETATM   10  C   UNL     1     -41.490  54.102 -52.443  1.00  0.00     0.085 C 
HETATM   11  C   UNL     1     -42.104  54.042 -51.181  1.00  0.00     0.159 C 
HETATM   12  N   UNL     1     -42.435  55.246 -50.730  1.00  0.00    -0.178 NA
HETATM   13  N   UNL     1     -41.831  56.118 -51.564  1.00  0.00    -0.235 N 
BRANCH  10  14
HETATM   14  C   UNL     1     -41.114  52.993 -53.299  1.00  0.00     0.296 C 
HETATM   15  O   UNL     1     -41.689  52.795 -54.368  1.00  0.00    -0.259 OA
BRANCH  14  16
HETATM   16  O   UNL     1     -40.162  52.199 -52.756  1.00  0.00    -0.318 OA
BRANCH  16  17
HETATM   17  C   UNL     1     -39.376  51.411 -53.666  1.00  0.00     0.174 C 
HETATM   18  C   UNL     1     -39.800  49.954 -53.608  1.00  0.00     0.034 C 
ENDBRANCH  16  17
ENDBRANCH  14  16
ENDBRANCH  10  14
BRANCH  13  19
HETATM   19  C   UNL     1     -41.854  57.508 -51.261  1.00  0.00     0.064 A 
HETATM   20  C   UNL     1     -42.986  58.326 -51.451  1.00  0.00    -0.033 A 
HETATM   21  C   UNL     1     -44.226  57.933 -52.204  1.00  0.00     0.050 C 
HETATM   22  C   UNL     1     -42.920  59.666 -51.017  1.00  0.00     0.009 A 
HETATM   23  C   UNL     1     -41.747  60.196 -50.478  1.00  0.00     0.001 A 
HETATM   24  C   UNL     1     -40.611  59.404 -50.376  1.00  0.00     0.002 A 
HETATM   25  C   UNL     1     -40.659  58.069 -50.772  1.00  0.00     0.032 A 
ENDBRANCH  13  19
ENDBRANCH   8   9
ENDBRANCH   1   8
BRANCH   5  26
HETATM   26  N   UNL     1     -44.866  56.992 -58.293  1.00  0.00    -0.053 N 
HETATM   27  H   UNL     1     -45.521  56.488 -57.678  1.00  0.00     0.281 HD
HETATM   28  C   UNL     1     -45.537  58.320 -58.624  1.00  0.00     0.236 C 
HETATM   29  C   UNL     1     -46.939  58.073 -59.168  1.00  0.00     0.028 C 
HETATM   30  C   UNL     1     -46.917  57.184 -60.402  1.00  0.00     0.003 C 
HETATM   31  C   UNL     1     -46.170  55.889 -60.121  1.00  0.00     0.028 C 
HETATM   32  C   UNL     1     -44.771  56.150 -59.577  1.00  0.00     0.236 C 
ENDBRANCH   5  26
BRANCH   5  33
HETATM   33  C   UNL     1     -42.376  57.755 -58.394  1.00  0.00     0.252 C 
HETATM   34  N   UNL     1     -41.712  56.998 -59.305  1.00  0.00    -0.368 N 
HETATM   35  H   UNL     1     -41.841  56.017 -59.524  1.00  0.00     0.159 HD
HETATM   36  H   UNL     1     -40.981  57.464 -59.843  1.00  0.00     0.159 HD
HETATM   37  O   UNL     1     -42.075  58.937 -58.251  1.00  0.00    -0.271 OA
ENDBRANCH   5  33
TORSDOF 8
ENDMDL
MODEL 3
REMARK VINA RESULT:      -8.1      1.954      2.582
REMARK  8 active torsions:
REMARK  status: ('A' for Active; 'I' for Inactive)
REMARK    1  A    between atoms: C_2  and  O_3 
REMARK    2  A    between atoms: O_3  and  C_4 
REMARK    3  A    between atoms: C_4  and  C_5 
REMARK    4  A    between atoms: C_6  and  C_7 
REMARK    5  A    between atoms: C_7  and  N_8 
REMARK    6  A    between atoms: C_12  and  N_13 
REMARK    7  A    between atoms: C_12  and  C_20 
REMARK       I    between atoms: C_20  and  N_21 
REMARK    8  A    between atoms: N_25  and  C_26 
ROOT
HETATM    1  N   UNL     1     -41.717  57.054 -54.387  1.00  0.00    -0.066 N 
HETATM    2  H   UNL     1     -40.887  56.866 -54.985  1.00  0.00     0.280 HD
HETATM    3  C   UNL     1     -42.879  56.248 -54.880  1.00  0.00     0.238 C 
HETATM    4  C   UNL     1     -43.177  56.620 -56.335  1.00  0.00     0.077 C 
HETATM    5  C   UNL     1     -43.453  58.129 -56.517  1.00  0.00     0.210 C 
HETATM    6  C   UNL     1     -42.253  58.912 -55.913  1.00  0.00     0.077 C 
HETATM    7  C   UNL     1     -41.967  58.531 -54.461  1.00  0.00     0.238 C 
ENDROOT
BRANCH   1   8
HETATM    8  C   UNL     1     -41.241  56.636 -52.995  1.00  0.00     0.294 C 
BRANCH   8   9
HETATM    9  C   UNL     1     -42.273  55.943 -52.177  1.00  0.00     0.080 C 
HETATM   10  C   UNL     1     -43.432  56.408 -51.549  1.00  0.00     0.085 C 
HETATM   11  C   UNL     1     -43.888  55.312 -50.797  1.00  0.00     0.159 C 
HETATM   12  N   UNL     1     -43.073  54.268 -50.894  1.00  0.00    -0.178 NA
HETATM   13  N   UNL     1     -42.214  54.576 -51.889  1.00  0.00    -0.235 N 
BRANCH  10  14
HETATM   14  C   UNL     1     -43.983  57.749 -51.583  1.00  0.00     0.296 C 
HETATM   15  O   UNL     1     -45.057  57.979 -52.136  1.00  0.00    -0.259 OA
BRANCH  14  16
HETATM   16  O   UNL     1     -43.166  58.677 -51.032  1.00  0.00    -0.318 OA
BRANCH  16  17
HETATM   17  C   UNL     1     -43.456  60.054 -51.321  1.00  0.00     0.174 C 
HETATM   18  C   UNL     1     -42.552  60.968 -50.513  1.00  0.00     0.034 C 
ENDBRANCH  16  17
ENDBRANCH  14  16
ENDBRANCH  10  14
BRANCH  13  19
HETATM   19  C   UNL     1     -41.302  53.590 -52.357  1.00  0.00     0.064 A 
HETATM   20  C   UNL     1     -40.233  53.092 -51.585  1.00  0.00    -0.033 A 
HETATM   21  C   UNL     1     -39.753  53.675 -50.286  1.00  0.00     0.050 C 
HETATM   22  C   UNL     1     -39.459  52.042 -52.120  1.00  0.00     0.009 A 
HETATM   23  C   UNL     1     -39.692  51.550 -53.404  1.00  0.00     0.001 A 
HETATM   24  C   UNL     1     -40.694  52.108 -54.189  1.00  0.00     0.002 A 
HETATM   25  C   UNL     1     -41.491  53.128 -53.673  1.00  0.00     0.032 A 
ENDBRANCH  13  19
ENDBRANCH   8   9
ENDBRANCH   1   8
BRANCH   5  26
HETATM   26  N   UNL     1     -43.504  58.482 -58.078  1.00  0.00    -0.053 N 
HETATM   27  H   UNL     1     -44.272  57.929 -58.485  1.00  0.00     0.281 HD
HETATM   28  C   UNL     1     -43.807  59.937 -58.418  1.00  0.00     0.236 C 
HETATM   29  C   UNL     1     -44.039  60.084 -59.916  1.00  0.00     0.028 C 
HETATM   30  C   UNL     1     -42.842  59.603 -60.723  1.00  0.00     0.003 C 
HETATM   31  C   UNL     1     -42.465  58.182 -60.334  1.00  0.00     0.028 C 
HETATM   32  C   UNL     1     -42.235  58.049 -58.834  1.00  0.00     0.236 C 
ENDBRANCH   5  26
BRANCH   5  33
HETATM   33  C   UNL     1     -44.764  58.566 -55.798  1.00  0.00     0.252 C 
HETATM   34  N   UNL     1     -45.881  57.805 -55.934  1.00  0.00    -0.368 N 
HETATM   35  H   UNL     1     -45.996  56.939 -56.446  1.00  0.00     0.159 HD
HETATM   36  H   UNL     1     -46.725  58.144 -55.471  1.00  0.00     0.159 HD
HETATM   37  O   UNL     1     -44.812  59.605 -55.145  1.00  0.00    -0.271 OA
ENDBRANCH   5  33
TORSDOF 8
ENDMDL
MODEL 4
REMARK VINA RESULT:      -7.9      1.973      7.333
REMARK  8 active torsions:
REMARK  status: ('A' for Active; 'I' for Inactive)
REMARK    1  A    between atoms: C_2  and  O_3 
REMARK    2  A    between atoms: O_3  and  C_4 
REMARK    3  A    between atoms: C_4  and  C_5 
REMARK    4  A    between atoms: C_6  and  C_7 
REMARK    5  A    between atoms: C_7  and  N_8 
REMARK    6  A    between atoms: C_12  and  N_13 
REMARK    7  A    between atoms: C_12  and  C_20 
REMARK       I    between atoms: C_20  and  N_21 
REMARK    8  A    between atoms: N_25  and  C_26 
ROOT
HETATM    1  N   UNL     1     -43.264  56.541 -54.826  1.00  0.00    -0.066 N 
HETATM    2  H   UNL     1     -42.757  56.233 -55.681  1.00  0.00     0.280 HD
HETATM    3  C   UNL     1     -42.276  56.841 -53.742  1.00  0.00     0.238 C 
HETATM    4  C   UNL     1     -41.447  55.588 -53.445  1.00  0.00     0.077 C 
HETATM    5  C   UNL     1     -42.322  54.377 -53.056  1.00  0.00     0.210 C 
HETATM    6  C   UNL     1     -43.378  54.168 -54.178  1.00  0.00     0.077 C 
HETATM    7  C   UNL     1     -44.198  55.425 -54.462  1.00  0.00     0.238 C 
ENDROOT
BRANCH   1   8
HETATM    8  C   UNL     1     -44.028  57.776 -55.305  1.00  0.00     0.294 C 
BRANCH   8   9
HETATM    9  C   UNL     1     -43.259  58.650 -56.232  1.00  0.00     0.080 C 
HETATM   10  C   UNL     1     -42.426  59.749 -56.002  1.00  0.00     0.085 C 
HETATM   11  C   UNL     1     -42.134  60.244 -57.284  1.00  0.00     0.159 C 
HETATM   12  N   UNL     1     -42.762  59.563 -58.235  1.00  0.00    -0.178 NA
HETATM   13  N   UNL     1     -43.270  58.474 -57.619  1.00  0.00    -0.235 N 
BRANCH  10  14
HETATM   14  C   UNL     1     -42.033  60.314 -54.724  1.00  0.00     0.296 C 
HETATM   15  O   UNL     1     -41.084  59.853 -54.093  1.00  0.00    -0.259 OA
BRANCH  14  16
HETATM   16  O   UNL     1     -42.856  61.302 -54.302  1.00  0.00    -0.318 OA
BRANCH  16  17
HETATM   17  C   UNL     1     -42.976  61.485 -52.882  1.00  0.00     0.174 C 
HETATM   18  C   UNL     1     -43.401  62.909 -52.565  1.00  0.00     0.034 C 
ENDBRANCH  16  17
ENDBRANCH  14  16
ENDBRANCH  10  14
BRANCH  13  19
HETATM   19  C   UNL     1     -43.872  57.447 -58.396  1.00  0.00     0.064 A 
HETATM   20  C   UNL     1     -45.202  57.499 -58.858  1.00  0.00    -0.033 A 
HETATM   21  C   UNL     1     -46.238  58.494 -58.415  1.00  0.00     0.050 C 
HETATM   22  C   UNL     1     -45.654  56.467 -59.706  1.00  0.00     0.009 A 
HETATM   23  C   UNL     1     -44.836  55.384 -60.030  1.00  0.00     0.001 A 
HETATM   24  C   UNL     1     -43.555  55.299 -59.499  1.00  0.00     0.002 A 
HETATM   25  C   UNL     1     -43.076  56.320 -58.680  1.00  0.00     0.032 A 
ENDBRANCH  13  19
ENDBRANCH   8   9
ENDBRANCH   1   8
BRANCH   5  26
HETATM   26  N   UNL     1     -41.420  53.055 -53.009  1.00  0.00    -0.053 N 
HETATM   27  H   UNL     1     -42.006  52.305 -52.616  1.00  0.00     0.281 HD
HETATM   28  C   UNL     1     -40.928  52.542 -54.358  1.00  0.00     0.236 C 
HETATM   29  C   UNL     1     -40.274  51.177 -54.188  1.00  0.00     0.028 C 
HETATM   30  C   UNL     1     -39.118  51.223 -53.200  1.00  0.00     0.003 C 
HETATM   31  C   UNL     1     -39.565  51.818 -51.874  1.00  0.00     0.028 C 
HETATM   32  C   UNL     1     -40.217  53.183 -52.057  1.00  0.00     0.236 C 
ENDBRANCH   5  26
BRANCH   5  33
HETATM   33  C   UNL     1     -43.053  54.608 -51.699  1.00  0.00     0.252 C 
HETATM   34  N   UNL     1     -44.140  53.853 -51.393  1.00  0.00    -0.368 N 
HETATM   35  H   UNL     1     -44.563  53.108 -51.933  1.00  0.00     0.159 HD
HETATM   36  H   UNL     1     -44.606  54.058 -50.509  1.00  0.00     0.159 HD
HETATM   37  O   UNL     1     -42.686  55.487 -50.925  1.00  0.00    -0.271 OA
ENDBRANCH   5  33
TORSDOF 8
ENDMDL
MODEL 5
REMARK VINA RESULT:      -7.8      2.041      3.121
REMARK  8 active torsions:
REMARK  status: ('A' for Active; 'I' for Inactive)
REMARK    1  A    between atoms: C_2  and  O_3 
REMARK    2  A    between atoms: O_3  and  C_4 
REMARK    3  A    between atoms: C_4  and  C_5 
REMARK    4  A    between atoms: C_6  and  C_7 
REMARK    5  A    between atoms: C_7  and  N_8 
REMARK    6  A    between atoms: C_12  and  N_13 
REMARK    7  A    between atoms: C_12  and  C_20 
REMARK       I    between atoms: C_20  and  N_21 
REMARK    8  A    between atoms: N_25  and  C_26 
ROOT
HETATM    1  N   UNL     1     -43.759  57.216 -55.208  1.00  0.00    -0.066 N 
HETATM    2  H   UNL     1     -43.022  57.878 -54.892  1.00  0.00     0.280 HD
HETATM    3  C   UNL     1     -43.243  56.411 -56.361  1.00  0.00     0.238 C 
HETATM    4  C   UNL     1     -42.847  57.351 -57.503  1.00  0.00     0.077 C 
HETATM    5  C   UNL     1     -44.014  58.256 -57.957  1.00  0.00     0.210 C 
HETATM    6  C   UNL     1     -44.558  59.000 -56.706  1.00  0.00     0.077 C 
HETATM    7  C   UNL     1     -44.950  58.050 -55.575  1.00  0.00     0.238 C 
ENDROOT
BRANCH   1   8
HETATM    8  C   UNL     1     -44.027  56.376 -53.959  1.00  0.00     0.294 C 
BRANCH   8   9
HETATM    9  C   UNL     1     -43.208  56.758 -52.777  1.00  0.00     0.080 C 
HETATM   10  C   UNL     1     -43.420  57.691 -51.758  1.00  0.00     0.085 C 
HETATM   11  C   UNL     1     -42.214  57.704 -51.037  1.00  0.00     0.159 C 
HETATM   12  N   UNL     1     -41.304  56.899 -51.573  1.00  0.00    -0.178 NA
HETATM   13  N   UNL     1     -41.970  56.172 -52.495  1.00  0.00    -0.235 N 
BRANCH  10  14
HETATM   14  C   UNL     1     -44.584  58.532 -51.551  1.00  0.00     0.296 C 
HETATM   15  O   UNL     1     -45.370  58.312 -50.632  1.00  0.00    -0.259 OA
BRANCH  14  16
HETATM   16  O   UNL     1     -44.729  59.485 -52.502  1.00  0.00    -0.318 OA
BRANCH  16  17
HETATM   17  C   UNL     1     -43.709  60.495 -52.573  1.00  0.00     0.174 C 
HETATM   18  C   UNL     1     -43.781  61.406 -51.360  1.00  0.00     0.034 C 
ENDBRANCH  16  17
ENDBRANCH  14  16
ENDBRANCH  10  14
BRANCH  13  19
HETATM   19  C   UNL     1     -41.311  55.093 -53.145  1.00  0.00     0.064 A 
HETATM   20  C   UNL     1     -41.268  53.783 -52.627  1.00  0.00    -0.033 A 
HETATM   21  C   UNL     1     -41.685  53.382 -51.239  1.00  0.00     0.050 C 
HETATM   22  C   UNL     1     -40.672  52.775 -53.413  1.00  0.00     0.009 A 
HETATM   23  C   UNL     1     -40.075  53.069 -54.639  1.00  0.00     0.001 A 
HETATM   24  C   UNL     1     -40.047  54.379 -55.100  1.00  0.00     0.002 A 
HETATM   25  C   UNL     1     -40.653  55.389 -54.355  1.00  0.00     0.032 A 
ENDBRANCH  13  19
ENDBRANCH   8   9
ENDBRANCH   1   8
BRANCH   5  26
HETATM   26  N   UNL     1     -43.466  59.373 -58.965  1.00  0.00    -0.053 N 
HETATM   27  H   UNL     1     -44.147  60.144 -58.959  1.00  0.00     0.281 HD
HETATM   28  C   UNL     1     -42.124  59.995 -58.597  1.00  0.00     0.236 C 
HETATM   29  C   UNL     1     -41.830  61.179 -59.509  1.00  0.00     0.028 C 
HETATM   30  C   UNL     1     -41.827  60.775 -60.976  1.00  0.00     0.003 C 
HETATM   31  C   UNL     1     -43.123  60.068 -61.344  1.00  0.00     0.028 C 
HETATM   32  C   UNL     1     -43.404  58.887 -60.425  1.00  0.00     0.236 C 
ENDBRANCH   5  26
BRANCH   5  33
HETATM   33  C   UNL     1     -45.165  57.430 -58.605  1.00  0.00     0.252 C 
HETATM   34  N   UNL     1     -44.912  56.169 -59.045  1.00  0.00    -0.368 N 
HETATM   35  H   UNL     1     -44.046  55.647 -58.998  1.00  0.00     0.159 HD
HETATM   36  H   UNL     1     -45.687  55.675 -59.489  1.00  0.00     0.159 HD
HETATM   37  O   UNL     1     -46.282  57.915 -58.759  1.00  0.00    -0.271 OA
ENDBRANCH   5  33
TORSDOF 8
ENDMDL
MODEL 6
REMARK VINA RESULT:      -7.6      2.150      7.023
REMARK  8 active torsions:
REMARK  status: ('A' for Active; 'I' for Inactive)
REMARK    1  A    between atoms: C_2  and  O_3 
REMARK    2  A    between atoms: O_3  and  C_4 
REMARK    3  A    between atoms: C_4  and  C_5 
REMARK    4  A    between atoms: C_6  and  C_7 
REMARK    5  A    between atoms: C_7  and  N_8 
REMARK    6  A    between atoms: C_12  and  N_13 
REMARK    7  A    between atoms: C_12  and  C_20 
REMARK       I    between atoms: C_20  and  N_21 
REMARK    8  A    between atoms: N_25  and  C_26 
ROOT
HETATM    1  N   UNL     1     -42.029  57.085 -54.893  1.00  0.00    -0.066 N 
HETATM    2  H   UNL     1     -41.425  56.735 -55.664  1.00  0.00     0.280 HD
HETATM    3  C   UNL     1     -41.243  57.121 -53.619  1.00  0.00     0.238 C 
HETATM    4  C   UNL     1     -40.732  55.714 -53.296  1.00  0.00     0.077 C 
HETATM    5  C   UNL     1     -41.872  54.677 -53.196  1.00  0.00     0.210 C 
HETATM    6  C   UNL     1     -42.699  54.746 -54.511  1.00  0.00     0.077 C 
HETATM    7  C   UNL     1     -43.204  56.155 -54.820  1.00  0.00     0.238 C 
ENDROOT
BRANCH   1   8
HETATM    8  C   UNL     1     -42.445  58.473 -55.385  1.00  0.00     0.294 C 
BRANCH   8   9
HETATM    9  C   UNL     1     -43.857  58.562 -55.844  1.00  0.00     0.080 C 
HETATM   10  C   UNL     1     -45.025  58.971 -55.194  1.00  0.00     0.085 C 
HETATM   11  C   UNL     1     -46.056  58.669 -56.100  1.00  0.00     0.159 C 
HETATM   12  N   UNL     1     -45.598  58.077 -57.196  1.00  0.00    -0.178 NA
HETATM   13  N   UNL     1     -44.255  58.202 -57.135  1.00  0.00    -0.235 N 
BRANCH  10  14
HETATM   14  C   UNL     1     -45.155  59.495 -53.847  1.00  0.00     0.296 C 
HETATM   15  O   UNL     1     -45.260  60.703 -53.645  1.00  0.00    -0.259 OA
BRANCH  14  16
HETATM   16  O   UNL     1     -45.064  58.541 -52.892  1.00  0.00    -0.318 OA
BRANCH  16  17
HETATM   17  C   UNL     1     -44.419  58.911 -51.662  1.00  0.00     0.174 C 
HETATM   18  C   UNL     1     -45.443  59.066 -50.552  1.00  0.00     0.034 C 
ENDBRANCH  16  17
ENDBRANCH  14  16
ENDBRANCH  10  14
BRANCH  13  19
HETATM   19  C   UNL     1     -43.464  57.809 -58.250  1.00  0.00     0.064 A 
HETATM   20  C   UNL     1     -42.745  58.719 -59.052  1.00  0.00    -0.033 A 
HETATM   21  C   UNL     1     -42.889  60.215 -59.013  1.00  0.00     0.050 C 
HETATM   22  C   UNL     1     -41.915  58.200 -60.066  1.00  0.00     0.009 A 
HETATM   23  C   UNL     1     -41.853  56.830 -60.323  1.00  0.00     0.001 A 
HETATM   24  C   UNL     1     -42.632  55.950 -59.583  1.00  0.00     0.002 A 
HETATM   25  C   UNL     1     -43.440  56.436 -58.556  1.00  0.00     0.032 A 
ENDBRANCH  13  19
ENDBRANCH   8   9
ENDBRANCH   1   8
BRANCH   5  26
HETATM   26  N   UNL     1     -41.251  53.204 -53.110  1.00  0.00    -0.053 N 
HETATM   27  H   UNL     1     -42.012  52.574 -52.817  1.00  0.00     0.281 HD
HETATM   28  C   UNL     1     -40.715  52.634 -54.418  1.00  0.00     0.236 C 
HETATM   29  C   UNL     1     -40.359  51.164 -54.239  1.00  0.00     0.028 C 
HETATM   30  C   UNL     1     -39.337  50.961 -53.130  1.00  0.00     0.003 C 
HETATM   31  C   UNL     1     -39.812  51.602 -51.835  1.00  0.00     0.028 C 
HETATM   32  C   UNL     1     -40.164  53.072 -52.028  1.00  0.00     0.236 C 
ENDBRANCH   5  26
BRANCH   5  33
HETATM   33  C   UNL     1     -42.807  54.966 -51.984  1.00  0.00     0.252 C 
HETATM   34  N   UNL     1     -43.959  54.257 -51.850  1.00  0.00    -0.368 N 
HETATM   35  H   UNL     1     -44.315  53.516 -52.441  1.00  0.00     0.159 HD
HETATM   36  H   UNL     1     -44.556  54.500 -51.059  1.00  0.00     0.159 HD
HETATM   37  O   UNL     1     -42.539  55.849 -51.175  1.00  0.00    -0.271 OA
ENDBRANCH   5  33
TORSDOF 8
ENDMDL
MODEL 7
REMARK VINA RESULT:      -7.6      2.365      6.252
REMARK  8 active torsions:
REMARK  status: ('A' for Active; 'I' for Inactive)
REMARK    1  A    between atoms: C_2  and  O_3 
REMARK    2  A    between atoms: O_3  and  C_4 
REMARK    3  A    between atoms: C_4  and  C_5 
REMARK    4  A    between atoms: C_6  and  C_7 
REMARK    5  A    between atoms: C_7  and  N_8 
REMARK    6  A    between atoms: C_12  and  N_13 
REMARK    7  A    between atoms: C_12  and  C_20 
REMARK       I    between atoms: C_20  and  N_21 
REMARK    8  A    between atoms: N_25  and  C_26 
ROOT
HETATM    1  N   UNL     1     -41.605  57.605 -53.234  1.00  0.00    -0.066 N 
HETATM    2  H   UNL     1     -41.197  57.547 -52.279  1.00  0.00     0.280 HD
HETATM    3  C   UNL     1     -41.361  58.971 -53.797  1.00  0.00     0.238 C 
HETATM    4  C   UNL     1     -41.997  60.021 -52.883  1.00  0.00     0.077 C 
HETATM    5  C   UNL     1     -43.509  59.788 -52.674  1.00  0.00     0.210 C 
HETATM    6  C   UNL     1     -43.704  58.331 -52.169  1.00  0.00     0.077 C 
HETATM    7  C   UNL     1     -43.066  57.294 -53.092  1.00  0.00     0.238 C 
ENDROOT
BRANCH   1   8
HETATM    8  C   UNL     1     -40.869  56.499 -53.991  1.00  0.00     0.294 C 
BRANCH   8   9
HETATM    9  C   UNL     1     -41.762  55.485 -54.614  1.00  0.00     0.080 C 
HETATM   10  C   UNL     1     -42.538  55.515 -55.776  1.00  0.00     0.085 C 
HETATM   11  C   UNL     1     -43.281  54.322 -55.733  1.00  0.00     0.159 C 
HETATM   12  N   UNL     1     -43.042  53.627 -54.628  1.00  0.00    -0.178 NA
HETATM   13  N   UNL     1     -41.973  54.221 -54.056  1.00  0.00    -0.235 N 
BRANCH  10  14
HETATM   14  C   UNL     1     -42.633  56.582 -56.755  1.00  0.00     0.296 C 
HETATM   15  O   UNL     1     -42.819  57.746 -56.406  1.00  0.00    -0.259 OA
BRANCH  14  16
HETATM   16  O   UNL     1     -42.580  56.140 -58.033  1.00  0.00    -0.318 OA
BRANCH  16  17
HETATM   17  C   UNL     1     -43.759  56.323 -58.834  1.00  0.00     0.174 C 
HETATM   18  C   UNL     1     -44.129  55.029 -59.537  1.00  0.00     0.034 C 
ENDBRANCH  16  17
ENDBRANCH  14  16
ENDBRANCH  10  14
BRANCH  13  19
HETATM   19  C   UNL     1     -41.358  53.616 -52.925  1.00  0.00     0.064 A 
HETATM   20  C   UNL     1     -40.362  52.623 -53.021  1.00  0.00    -0.033 A 
HETATM   21  C   UNL     1     -39.979  51.894 -54.278  1.00  0.00     0.050 C 
HETATM   22  C   UNL     1     -39.754  52.173 -51.831  1.00  0.00     0.009 A 
HETATM   23  C   UNL     1     -40.168  52.640 -50.583  1.00  0.00     0.001 A 
HETATM   24  C   UNL     1     -41.210  53.555 -50.496  1.00  0.00     0.002 A 
HETATM   25  C   UNL     1     -41.809  54.036 -51.659  1.00  0.00     0.032 A 
ENDBRANCH  13  19
ENDBRANCH   8   9
ENDBRANCH   1   8
BRANCH   5  26
HETATM   26  N   UNL     1     -44.048  60.760 -51.521  1.00  0.00    -0.053 N 
HETATM   27  H   UNL     1     -44.642  61.466 -51.977  1.00  0.00     0.281 HD
HETATM   28  C   UNL     1     -44.918  60.103 -50.455  1.00  0.00     0.236 C 
HETATM   29  C   UNL     1     -45.532  61.167 -49.556  1.00  0.00     0.028 C 
HETATM   30  C   UNL     1     -44.469  62.031 -48.894  1.00  0.00     0.003 C 
HETATM   31  C   UNL     1     -43.532  62.625 -49.935  1.00  0.00     0.028 C 
HETATM   32  C   UNL     1     -42.924  61.550 -50.827  1.00  0.00     0.236 C 
ENDBRANCH   5  26
BRANCH   5  33
HETATM   33  C   UNL     1     -44.310  59.985 -53.996  1.00  0.00     0.252 C 
HETATM   34  N   UNL     1     -43.707  60.586 -55.054  1.00  0.00    -0.368 N 
HETATM   35  H   UNL     1     -42.757  60.929 -55.128  1.00  0.00     0.159 HD
HETATM   36  H   UNL     1     -44.277  60.722 -55.890  1.00  0.00     0.159 HD
HETATM   37  O   UNL     1     -45.486  59.643 -54.080  1.00  0.00    -0.271 OA
ENDBRANCH   5  33
TORSDOF 8
ENDMDL
MODEL 8
REMARK VINA RESULT:      -7.4      1.201      1.522
REMARK  8 active torsions:
REMARK  status: ('A' for Active; 'I' for Inactive)
REMARK    1  A    between atoms: C_2  and  O_3 
REMARK    2  A    between atoms: O_3  and  C_4 
REMARK    3  A    between atoms: C_4  and  C_5 
REMARK    4  A    between atoms: C_6  and  C_7 
REMARK    5  A    between atoms: C_7  and  N_8 
REMARK    6  A    between atoms: C_12  and  N_13 
REMARK    7  A    between atoms: C_12  and  C_20 
REMARK       I    between atoms: C_20  and  N_21 
REMARK    8  A    between atoms: N_25  and  C_26 
ROOT
HETATM    1  N   UNL     1     -42.667  57.002 -54.568  1.00  0.00    -0.066 N 
HETATM    2  H   UNL     1     -43.589  56.613 -54.284  1.00  0.00     0.280 HD
HETATM    3  C   UNL     1     -42.780  58.486 -54.729  1.00  0.00     0.238 C 
HETATM    4  C   UNL     1     -43.840  58.805 -55.786  1.00  0.00     0.077 C 
HETATM    5  C   UNL     1     -43.539  58.139 -57.147  1.00  0.00     0.210 C 
HETATM    6  C   UNL     1     -43.350  56.615 -56.903  1.00  0.00     0.077 C 
HETATM    7  C   UNL     1     -42.289  56.311 -55.846  1.00  0.00     0.238 C 
ENDROOT
BRANCH   1   8
HETATM    8  C   UNL     1     -41.749  56.587 -53.417  1.00  0.00     0.294 C 
BRANCH   8   9
HETATM    9  C   UNL     1     -42.454  55.952 -52.271  1.00  0.00     0.080 C 
HETATM   10  C   UNL     1     -43.416  56.439 -51.382  1.00  0.00     0.085 C 
HETATM   11  C   UNL     1     -43.561  55.419 -50.427  1.00  0.00     0.159 C 
HETATM   12  N   UNL     1     -42.735  54.404 -50.653  1.00  0.00    -0.178 NA
HETATM   13  N   UNL     1     -42.219  54.630 -51.880  1.00  0.00    -0.235 N 
BRANCH  10  14
HETATM   14  C   UNL     1     -44.048  57.745 -51.385  1.00  0.00     0.296 C 
HETATM   15  O   UNL     1     -45.246  57.869 -51.634  1.00  0.00    -0.259 OA
BRANCH  14  16
HETATM   16  O   UNL     1     -43.178  58.760 -51.175  1.00  0.00    -0.318 OA
BRANCH  16  17
HETATM   17  C   UNL     1     -43.665  60.093 -51.405  1.00  0.00     0.174 C 
HETATM   18  C   UNL     1     -43.650  60.892 -50.114  1.00  0.00     0.034 C 
ENDBRANCH  16  17
ENDBRANCH  14  16
ENDBRANCH  10  14
BRANCH  13  19
HETATM   19  C   UNL     1     -41.410  53.634 -52.493  1.00  0.00     0.064 A 
HETATM   20  C   UNL     1     -40.293  53.047 -51.868  1.00  0.00    -0.033 A 
HETATM   21  C   UNL     1     -39.651  53.533 -50.598  1.00  0.00     0.050 C 
HETATM   22  C   UNL     1     -39.631  51.997 -52.536  1.00  0.00     0.009 A 
HETATM   23  C   UNL     1     -40.021  51.590 -53.813  1.00  0.00     0.001 A 
HETATM   24  C   UNL     1     -41.070  52.235 -54.456  1.00  0.00     0.002 A 
HETATM   25  C   UNL     1     -41.757  53.257 -53.805  1.00  0.00     0.032 A 
ENDBRANCH  13  19
ENDBRANCH   8   9
ENDBRANCH   1   8
BRANCH   5  26
HETATM   26  N   UNL     1     -44.802  58.305 -58.117  1.00  0.00    -0.053 N 
HETATM   27  H   UNL     1     -45.637  58.362 -57.517  1.00  0.00     0.281 HD
HETATM   28  C   UNL     1     -44.815  59.565 -58.976  1.00  0.00     0.236 C 
HETATM   29  C   UNL     1     -46.159  59.701 -59.679  1.00  0.00     0.028 C 
HETATM   30  C   UNL     1     -46.473  58.486 -60.540  1.00  0.00     0.003 C 
HETATM   31  C   UNL     1     -46.376  57.207 -59.722  1.00  0.00     0.028 C 
HETATM   32  C   UNL     1     -45.027  57.082 -59.025  1.00  0.00     0.236 C 
ENDBRANCH   5  26
BRANCH   5  33
HETATM   33  C   UNL     1     -42.248  58.718 -57.799  1.00  0.00     0.252 C 
HETATM   34  N   UNL     1     -41.809  59.947 -57.424  1.00  0.00    -0.368 N 
HETATM   35  H   UNL     1     -42.203  60.575 -56.733  1.00  0.00     0.159 HD
HETATM   36  H   UNL     1     -40.977  60.301 -57.898  1.00  0.00     0.159 HD
HETATM   37  O   UNL     1     -41.648  58.098 -58.673  1.00  0.00    -0.271 OA
ENDBRANCH   5  33
TORSDOF 8
ENDMDL
MODEL 9
REMARK VINA RESULT:      -7.4      1.918      3.234
REMARK  8 active torsions:
REMARK  status: ('A' for Active; 'I' for Inactive)
REMARK    1  A    between atoms: C_2  and  O_3 
REMARK    2  A    between atoms: O_3  and  C_4 
REMARK    3  A    between atoms: C_4  and  C_5 
REMARK    4  A    between atoms: C_6  and  C_7 
REMARK    5  A    between atoms: C_7  and  N_8 
REMARK    6  A    between atoms: C_12  and  N_13 
REMARK    7  A    between atoms: C_12  and  C_20 
REMARK       I    between atoms: C_20  and  N_21 
REMARK    8  A    between atoms: N_25  and  C_26 
ROOT
HETATM    1  N   UNL     1     -43.863  56.626 -53.178  1.00  0.00    -0.066 N 
HETATM    2  H   UNL     1     -44.235  55.662 -53.293  1.00  0.00     0.280 HD
HETATM    3  C   UNL     1     -44.888  57.614 -53.642  1.00  0.00     0.238 C 
HETATM    4  C   UNL     1     -45.226  57.347 -55.111  1.00  0.00     0.077 C 
HETATM    5  C   UNL     1     -43.982  57.394 -56.025  1.00  0.00     0.210 C 
HETATM    6  C   UNL     1     -42.925  56.411 -55.446  1.00  0.00     0.077 C 
HETATM    7  C   UNL     1     -42.596  56.691 -53.980  1.00  0.00     0.238 C 
ENDROOT
BRANCH   1   8
HETATM    8  C   UNL     1     -43.580  56.709 -51.678  1.00  0.00     0.294 C 
BRANCH   8   9
HETATM    9  C   UNL     1     -42.357  57.481 -51.327  1.00  0.00     0.080 C 
HETATM   10  C   UNL     1     -42.058  58.844 -51.414  1.00  0.00     0.085 C 
HETATM   11  C   UNL     1     -40.692  58.925 -51.092  1.00  0.00     0.159 C 
HETATM   12  N   UNL     1     -40.160  57.729 -50.874  1.00  0.00    -0.178 NA
HETATM   13  N   UNL     1     -41.207  56.879 -50.809  1.00  0.00    -0.235 N 
BRANCH  10  14
HETATM   14  C   UNL     1     -42.932  59.920 -51.840  1.00  0.00     0.296 C 
HETATM   15  O   UNL     1     -42.857  60.386 -52.976  1.00  0.00    -0.259 OA
BRANCH  14  16
HETATM   16  O   UNL     1     -43.738  60.377 -50.853  1.00  0.00    -0.318 OA
BRANCH  16  17
HETATM   17  C   UNL     1     -45.066  60.775 -51.229  1.00  0.00     0.174 C 
HETATM   18  C   UNL     1     -46.059  59.669 -50.921  1.00  0.00     0.034 C 
ENDBRANCH  16  17
ENDBRANCH  14  16
ENDBRANCH  10  14
BRANCH  13  19
HETATM   19  C   UNL     1     -40.989  55.528 -50.422  1.00  0.00     0.064 A 
HETATM   20  C   UNL     1     -40.657  54.503 -51.330  1.00  0.00    -0.033 A 
HETATM   21  C   UNL     1     -40.718  54.615 -52.828  1.00  0.00     0.050 C 
HETATM   22  C   UNL     1     -40.364  53.224 -50.814  1.00  0.00     0.009 A 
HETATM   23  C   UNL     1     -40.466  52.952 -49.450  1.00  0.00     0.001 A 
HETATM   24  C   UNL     1     -40.878  53.948 -48.573  1.00  0.00     0.002 A 
HETATM   25  C   UNL     1     -41.147  55.227 -49.055  1.00  0.00     0.032 A 
ENDBRANCH  13  19
ENDBRANCH   8   9
ENDBRANCH   1   8
BRANCH   5  26
HETATM   26  N   UNL     1     -44.366  56.862 -57.485  1.00  0.00    -0.053 N 
HETATM   27  H   UNL     1     -45.132  56.185 -57.365  1.00  0.00     0.281 HD
HETATM   28  C   UNL     1     -44.885  57.916 -58.457  1.00  0.00     0.236 C 
HETATM   29  C   UNL     1     -45.412  57.245 -59.719  1.00  0.00     0.028 C 
HETATM   30  C   UNL     1     -44.345  56.397 -60.396  1.00  0.00     0.003 C 
HETATM   31  C   UNL     1     -43.748  55.398 -59.417  1.00  0.00     0.028 C 
HETATM   32  C   UNL     1     -43.224  56.082 -58.160  1.00  0.00     0.236 C 
ENDBRANCH   5  26
BRANCH   5  33
HETATM   33  C   UNL     1     -43.370  58.826 -56.090  1.00  0.00     0.252 C 
HETATM   34  N   UNL     1     -44.136  59.892 -55.742  1.00  0.00    -0.368 N 
HETATM   35  H   UNL     1     -45.092  59.900 -55.410  1.00  0.00     0.159 HD
HETATM   36  H   UNL     1     -43.705  60.813 -55.829  1.00  0.00     0.159 HD
HETATM   37  O   UNL     1     -42.223  59.005 -56.489  1.00  0.00    -0.271 OA
ENDBRANCH   5  33
TORSDOF 8
ENDMDL
MODEL 10
REMARK VINA RESULT:      -7.4      2.091      7.297
REMARK  8 active torsions:
REMARK  status: ('A' for Active; 'I' for Inactive)
REMARK    1  A    between atoms: C_2  and  O_3 
REMARK    2  A    between atoms: O_3  and  C_4 
REMARK    3  A    between atoms: C_4  and  C_5 
REMARK    4  A    between atoms: C_6  and  C_7 
REMARK    5  A    between atoms: C_7  and  N_8 
REMARK    6  A    between atoms: C_12  and  N_13 
REMARK    7  A    between atoms: C_12  and  C_20 
REMARK       I    between atoms: C_20  and  N_21 
REMARK    8  A    between atoms: N_25  and  C_26 
ROOT
HETATM    1  N   UNL     1     -43.937  57.016 -54.467  1.00  0.00    -0.066 N 
HETATM    2  H   UNL     1     -44.024  57.573 -53.593  1.00  0.00     0.280 HD
HETATM    3  C   UNL     1     -44.283  55.587 -54.183  1.00  0.00     0.238 C 
HETATM    4  C   UNL     1     -43.341  55.038 -53.108  1.00  0.00     0.077 C 
HETATM    5  C   UNL     1     -41.853  55.164 -53.502  1.00  0.00     0.210 C 
HETATM    6  C   UNL     1     -41.577  56.650 -53.864  1.00  0.00     0.077 C 
HETATM    7  C   UNL     1     -42.523  57.184 -54.939  1.00  0.00     0.238 C 
ENDROOT
BRANCH   1   8
HETATM    8  C   UNL     1     -44.927  57.701 -55.411  1.00  0.00     0.294 C 
BRANCH   8   9
HETATM    9  C   UNL     1     -44.356  58.847 -56.169  1.00  0.00     0.080 C 
HETATM   10  C   UNL     1     -44.012  60.144 -55.778  1.00  0.00     0.085 C 
HETATM   11  C   UNL     1     -43.686  60.798 -56.979  1.00  0.00     0.159 C 
HETATM   12  N   UNL     1     -43.857  60.013 -58.036  1.00  0.00    -0.178 NA
HETATM   13  N   UNL     1     -44.058  58.776 -57.533  1.00  0.00    -0.235 N 
BRANCH  10  14
HETATM   14  C   UNL     1     -44.074  60.717 -54.447  1.00  0.00     0.296 C 
HETATM   15  O   UNL     1     -44.584  61.820 -54.255  1.00  0.00    -0.259 OA
BRANCH  14  16
HETATM   16  O   UNL     1     -43.456  59.961 -53.511  1.00  0.00    -0.318 OA
BRANCH  16  17
HETATM   17  C   UNL     1     -42.149  60.386 -53.091  1.00  0.00     0.174 C 
HETATM   18  C   UNL     1     -41.787  59.752 -51.759  1.00  0.00     0.034 C 
ENDBRANCH  16  17
ENDBRANCH  14  16
ENDBRANCH  10  14
BRANCH  13  19
HETATM   19  C   UNL     1     -44.116  57.662 -58.416  1.00  0.00     0.064 A 
HETATM   20  C   UNL     1     -45.297  57.244 -59.062  1.00  0.00    -0.033 A 
HETATM   21  C   UNL     1     -46.682  57.734 -58.746  1.00  0.00     0.050 C 
HETATM   22  C   UNL     1     -45.208  56.189 -59.994  1.00  0.00     0.009 A 
HETATM   23  C   UNL     1     -44.003  55.525 -60.225  1.00  0.00     0.001 A 
HETATM   24  C   UNL     1     -42.864  55.889 -59.518  1.00  0.00     0.002 A 
HETATM   25  C   UNL     1     -42.920  56.947 -58.612  1.00  0.00     0.032 A 
ENDBRANCH  13  19
ENDBRANCH   8   9
ENDBRANCH   1   8
BRANCH   5  26
HETATM   26  N   UNL     1     -40.932  54.809 -52.242  1.00  0.00    -0.053 N 
HETATM   27  H   UNL     1     -39.987  55.160 -52.452  1.00  0.00     0.281 HD
HETATM   28  C   UNL     1     -41.337  55.458 -50.923  1.00  0.00     0.236 C 
HETATM   29  C   UNL     1     -40.263  55.212 -49.871  1.00  0.00     0.028 C 
HETATM   30  C   UNL     1     -40.008  53.728 -49.659  1.00  0.00     0.003 C 
HETATM   31  C   UNL     1     -39.690  53.042 -50.979  1.00  0.00     0.028 C 
HETATM   32  C   UNL     1     -40.772  53.294 -52.022  1.00  0.00     0.236 C 
ENDBRANCH   5  26
BRANCH   5  33
HETATM   33  C   UNL     1     -41.504  54.264 -54.725  1.00  0.00     0.252 C 
HETATM   34  N   UNL     1     -40.365  54.505 -55.424  1.00  0.00    -0.368 N 
HETATM   35  H   UNL     1     -39.657  55.209 -55.252  1.00  0.00     0.159 HD
HETATM   36  H   UNL     1     -40.190  53.911 -56.235  1.00  0.00     0.159 HD
HETATM   37  O   UNL     1     -42.263  53.370 -55.089  1.00  0.00    -0.271 OA
ENDBRANCH   5  33
TORSDOF 8
ENDMDL
