MODEL 1
REMARK VINA RESULT:      -7.9      0.000      0.000
REMARK  8 active torsions:
REMARK  status: ('A' for Active; 'I' for Inactive)
REMARK    1  A    between atoms: O_2  and  C_3 
REMARK    2  A    between atoms: C_5  and  N_6 
REMARK       I    between atoms: N_6  and  C_7 
REMARK    3  A    between atoms: C_7  and  C_8 
REMARK    4  A    between atoms: C_8  and  N_9 
REMARK    5  A    between atoms: C_8  and  C_25 
REMARK    6  A    between atoms: N_9  and  C_12 
REMARK    7  A    between atoms: C_12  and  C_13 
REMARK    8  A    between atoms: C_16  and  N_17 
ROOT
HETATM    1  C   UNL     1     -42.149  57.812 -53.238  1.00  0.00     0.310 C 
ENDROOT
BRANCH   1   2
HETATM    2  C   UNL     1     -41.712  59.100 -53.964  1.00  0.00     0.257 C 
HETATM    3  N   UNL     1     -42.096  59.459 -55.215  1.00  0.00    -0.325 N 
HETATM    4  H   UNL     1     -41.751  60.389 -55.444  1.00  0.00     0.169 HD
HETATM    5  O   UNL     1     -41.016  59.903 -53.320  1.00  0.00    -0.270 OA
BRANCH   3   6
HETATM    6  C   UNL     1     -42.844  58.844 -56.235  1.00  0.00     0.037 A 
HETATM    7  C   UNL     1     -42.326  58.129 -57.311  1.00  0.00     0.066 A 
HETATM    8  C   UNL     1     -43.164  57.562 -58.283  1.00  0.00     0.070 A 
HETATM    9  C   UNL     1     -44.544  57.706 -58.177  1.00  0.00     0.037 A 
HETATM   10  C   UNL     1     -45.079  58.429 -57.114  1.00  0.00     0.005 A 
HETATM   11  C   UNL     1     -44.236  58.997 -56.156  1.00  0.00     0.029 A 
BRANCH   8  12
HETATM   12  O   UNL     1     -42.500  56.894 -59.276  1.00  0.00    -0.356 OA
HETATM   13  C   UNL     1     -41.948  57.685 -60.323  1.00  0.00     0.210 C 
ENDBRANCH   8  12
ENDBRANCH   3   6
ENDBRANCH   1   2
BRANCH   1  14
HETATM   14  N   UNL     1     -41.368  57.705 -51.939  1.00  0.00    -0.054 N 
HETATM   15  H   UNL     1     -40.462  57.254 -52.109  1.00  0.00     0.278 HD
HETATM   16  H   UNL     1     -41.147  58.677 -51.668  1.00  0.00     0.278 HD
BRANCH  14  17
HETATM   17  C   UNL     1     -42.047  57.067 -50.787  1.00  0.00     0.272 C 
BRANCH  17  18
HETATM   18  C   UNL     1     -41.621  55.628 -50.720  1.00  0.00    -0.033 A 
HETATM   19  C   UNL     1     -40.346  55.290 -50.258  1.00  0.00     0.011 A 
HETATM   20  C   UNL     1     -39.878  53.975 -50.368  1.00  0.00     0.030 A 
HETATM   21  C   UNL     1     -40.655  52.966 -50.949  1.00  0.00     0.037 A 
HETATM   22  C   UNL     1     -41.952  53.306 -51.360  1.00  0.00     0.030 A 
HETATM   23  C   UNL     1     -42.429  54.619 -51.254  1.00  0.00     0.011 A 
BRANCH  21  24
HETATM   24  N   UNL     1     -40.151  51.651 -51.146  1.00  0.00    -0.318 N 
HETATM   25  C   UNL     1     -39.651  51.131 -52.353  1.00  0.00     0.224 C 
HETATM   26  O   UNL     1     -39.493  51.693 -53.426  1.00  0.00    -0.273 OA
HETATM   27  C   UNL     1     -39.403  49.654 -52.155  1.00  0.00     0.105 C 
HETATM   28  C   UNL     1     -39.368  49.504 -50.647  1.00  0.00     0.029 C 
HETATM   29  C   UNL     1     -40.291  50.601 -50.162  1.00  0.00     0.133 C 
ENDBRANCH  21  24
ENDBRANCH  17  18
ENDBRANCH  14  17
ENDBRANCH   1  14
BRANCH   1  30
HETATM   30  C   UNL     1     -41.868  56.535 -54.012  1.00  0.00    -0.019 A 
HETATM   31  C   UNL     1     -42.947  55.769 -54.492  1.00  0.00     0.010 A 
HETATM   32  C   UNL     1     -42.727  54.547 -55.127  1.00  0.00     0.001 A 
HETATM   33  C   UNL     1     -41.431  54.063 -55.276  1.00  0.00     0.000 A 
HETATM   34  C   UNL     1     -40.353  54.801 -54.793  1.00  0.00     0.001 A 
HETATM   35  C   UNL     1     -40.566  56.025 -54.159  1.00  0.00     0.010 A 
ENDBRANCH   1  30
TORSDOF 8
ENDMDL
MODEL 2
REMARK VINA RESULT:      -7.8      2.107      3.699
REMARK  8 active torsions:
REMARK  status: ('A' for Active; 'I' for Inactive)
REMARK    1  A    between atoms: O_2  and  C_3 
REMARK    2  A    between atoms: C_5  and  N_6 
REMARK       I    between atoms: N_6  and  C_7 
REMARK    3  A    between atoms: C_7  and  C_8 
REMARK    4  A    between atoms: C_8  and  N_9 
REMARK    5  A    between atoms: C_8  and  C_25 
REMARK    6  A    between atoms: N_9  and  C_12 
REMARK    7  A    between atoms: C_12  and  C_13 
REMARK    8  A    between atoms: C_16  and  N_17 
ROOT
HETATM    1  C   UNL     1     -41.597  58.850 -50.732  1.00  0.00     0.310 C 
ENDROOT
BRANCH   1   2
HETATM    2  C   UNL     1     -40.313  59.071 -51.556  1.00  0.00     0.257 C 
HETATM    3  N   UNL     1     -40.172  58.785 -52.874  1.00  0.00    -0.325 N 
HETATM    4  H   UNL     1     -39.265  59.097 -53.216  1.00  0.00     0.169 HD
HETATM    5  O   UNL     1     -39.361  59.625 -50.980  1.00  0.00    -0.270 OA
BRANCH   3   6
HETATM    6  C   UNL     1     -40.982  58.167 -53.844  1.00  0.00     0.037 A 
HETATM    7  C   UNL     1     -41.038  56.802 -54.114  1.00  0.00     0.066 A 
HETATM    8  C   UNL     1     -41.876  56.288 -55.115  1.00  0.00     0.070 A 
HETATM    9  C   UNL     1     -42.678  57.150 -55.856  1.00  0.00     0.037 A 
HETATM   10  C   UNL     1     -42.626  58.519 -55.608  1.00  0.00     0.005 A 
HETATM   11  C   UNL     1     -41.782  59.022 -54.616  1.00  0.00     0.029 A 
BRANCH   8  12
HETATM   12  O   UNL     1     -41.812  54.928 -55.256  1.00  0.00    -0.356 OA
HETATM   13  C   UNL     1     -43.041  54.250 -55.496  1.00  0.00     0.210 C 
ENDBRANCH   8  12
ENDBRANCH   3   6
ENDBRANCH   1   2
BRANCH   1  14
HETATM   14  N   UNL     1     -41.884  57.360 -50.680  1.00  0.00    -0.054 N 
HETATM   15  H   UNL     1     -42.880  57.199 -50.488  1.00  0.00     0.278 HD
HETATM   16  H   UNL     1     -41.728  57.014 -51.641  1.00  0.00     0.278 HD
BRANCH  14  17
HETATM   17  C   UNL     1     -41.051  56.538 -49.771  1.00  0.00     0.272 C 
BRANCH  17  18
HETATM   18  C   UNL     1     -40.892  55.172 -50.375  1.00  0.00    -0.033 A 
HETATM   19  C   UNL     1     -39.778  54.387 -50.062  1.00  0.00     0.011 A 
HETATM   20  C   UNL     1     -39.530  53.199 -50.760  1.00  0.00     0.030 A 
HETATM   21  C   UNL     1     -40.371  52.765 -51.791  1.00  0.00     0.037 A 
HETATM   22  C   UNL     1     -41.514  53.533 -52.059  1.00  0.00     0.030 A 
HETATM   23  C   UNL     1     -41.771  54.723 -51.366  1.00  0.00     0.011 A 
BRANCH  21  24
HETATM   24  N   UNL     1     -40.075  51.608 -52.564  1.00  0.00    -0.318 N 
HETATM   25  C   UNL     1     -39.666  50.361 -52.059  1.00  0.00     0.224 C 
HETATM   26  O   UNL     1     -39.544  50.003 -50.898  1.00  0.00    -0.273 OA
HETATM   27  C   UNL     1     -39.285  49.488 -53.232  1.00  0.00     0.105 C 
HETATM   28  C   UNL     1     -39.940  50.179 -54.411  1.00  0.00     0.029 C 
HETATM   29  C   UNL     1     -39.951  51.637 -54.004  1.00  0.00     0.133 C 
ENDBRANCH  21  24
ENDBRANCH  17  18
ENDBRANCH  14  17
ENDBRANCH   1  14
BRANCH   1  30
HETATM   30  C   UNL     1     -42.835  59.504 -51.322  1.00  0.00    -0.019 A 
HETATM   31  C   UNL     1     -43.926  58.698 -51.700  1.00  0.00     0.010 A 
HETATM   32  C   UNL     1     -45.040  59.255 -52.328  1.00  0.00     0.001 A 
HETATM   33  C   UNL     1     -45.074  60.619 -52.604  1.00  0.00     0.000 A 
HETATM   34  C   UNL     1     -43.996  61.427 -52.253  1.00  0.00     0.001 A 
HETATM   35  C   UNL     1     -42.880  60.877 -51.621  1.00  0.00     0.010 A 
ENDBRANCH   1  30
TORSDOF 8
ENDMDL
MODEL 3
REMARK VINA RESULT:      -7.7      2.106      5.187
REMARK  8 active torsions:
REMARK  status: ('A' for Active; 'I' for Inactive)
REMARK    1  A    between atoms: O_2  and  C_3 
REMARK    2  A    between atoms: C_5  and  N_6 
REMARK       I    between atoms: N_6  and  C_7 
REMARK    3  A    between atoms: C_7  and  C_8 
REMARK    4  A    between atoms: C_8  and  N_9 
REMARK    5  A    between atoms: C_8  and  C_25 
REMARK    6  A    between atoms: N_9  and  C_12 
REMARK    7  A    between atoms: C_12  and  C_13 
REMARK    8  A    between atoms: C_16  and  N_17 
ROOT
HETATM    1  C   UNL     1     -43.363  57.530 -56.554  1.00  0.00     0.310 C 
ENDROOT
BRANCH   1   2
HETATM    2  C   UNL     1     -42.478  58.789 -56.463  1.00  0.00     0.257 C 
HETATM    3  N   UNL     1     -41.878  59.242 -55.334  1.00  0.00    -0.325 N 
HETATM    4  H   UNL     1     -41.277  60.038 -55.540  1.00  0.00     0.169 HD
HETATM    5  O   UNL     1     -42.237  59.388 -57.526  1.00  0.00    -0.270 OA
BRANCH   3   6
HETATM    6  C   UNL     1     -41.906  58.864 -53.979  1.00  0.00     0.037 A 
HETATM    7  C   UNL     1     -43.023  58.418 -53.278  1.00  0.00     0.066 A 
HETATM    8  C   UNL     1     -42.944  58.075 -51.920  1.00  0.00     0.070 A 
HETATM    9  C   UNL     1     -41.729  58.173 -51.250  1.00  0.00     0.037 A 
HETATM   10  C   UNL     1     -40.604  58.629 -51.933  1.00  0.00     0.005 A 
HETATM   11  C   UNL     1     -40.694  58.977 -53.283  1.00  0.00     0.029 A 
BRANCH   8  12
HETATM   12  O   UNL     1     -44.130  57.658 -51.377  1.00  0.00    -0.356 OA
HETATM   13  C   UNL     1     -45.054  58.673 -50.999  1.00  0.00     0.210 C 
ENDBRANCH   8  12
ENDBRANCH   3   6
ENDBRANCH   1   2
BRANCH   1  14
HETATM   14  N   UNL     1     -42.519  56.388 -57.096  1.00  0.00    -0.054 N 
HETATM   15  H   UNL     1     -42.567  56.371 -58.121  1.00  0.00     0.278 HD
HETATM   16  H   UNL     1     -41.542  56.634 -56.868  1.00  0.00     0.278 HD
BRANCH  14  17
HETATM   17  C   UNL     1     -42.776  55.034 -56.550  1.00  0.00     0.272 C 
BRANCH  17  18
HETATM   18  C   UNL     1     -42.422  55.034 -55.090  1.00  0.00    -0.033 A 
HETATM   19  C   UNL     1     -41.114  55.306 -54.681  1.00  0.00     0.011 A 
HETATM   20  C   UNL     1     -40.737  55.124 -53.345  1.00  0.00     0.030 A 
HETATM   21  C   UNL     1     -41.643  54.660 -52.384  1.00  0.00     0.037 A 
HETATM   22  C   UNL     1     -42.966  54.442 -52.796  1.00  0.00     0.030 A 
HETATM   23  C   UNL     1     -43.352  54.620 -54.131  1.00  0.00     0.011 A 
BRANCH  21  24
HETATM   24  N   UNL     1     -41.244  54.387 -51.047  1.00  0.00    -0.318 N 
HETATM   25  C   UNL     1     -40.292  53.432 -50.647  1.00  0.00     0.224 C 
HETATM   26  O   UNL     1     -39.592  52.709 -51.338  1.00  0.00    -0.273 OA
HETATM   27  C   UNL     1     -40.320  53.352 -49.139  1.00  0.00     0.105 C 
HETATM   28  C   UNL     1     -41.014  54.637 -48.732  1.00  0.00     0.029 C 
HETATM   29  C   UNL     1     -41.938  54.922 -49.896  1.00  0.00     0.133 C 
ENDBRANCH  21  24
ENDBRANCH  17  18
ENDBRANCH  14  17
ENDBRANCH   1  14
BRANCH   1  30
HETATM   30  C   UNL     1     -44.548  57.669 -57.494  1.00  0.00    -0.019 A 
HETATM   31  C   UNL     1     -45.749  58.221 -57.010  1.00  0.00     0.010 A 
HETATM   32  C   UNL     1     -46.884  58.280 -57.819  1.00  0.00     0.001 A 
HETATM   33  C   UNL     1     -46.842  57.775 -59.115  1.00  0.00     0.000 A 
HETATM   34  C   UNL     1     -45.666  57.211 -59.604  1.00  0.00     0.001 A 
HETATM   35  C   UNL     1     -44.527  57.151 -58.800  1.00  0.00     0.010 A 
ENDBRANCH   1  30
TORSDOF 8
ENDMDL
MODEL 4
REMARK VINA RESULT:      -7.7      2.374      7.659
REMARK  8 active torsions:
REMARK  status: ('A' for Active; 'I' for Inactive)
REMARK    1  A    between atoms: O_2  and  C_3 
REMARK    2  A    between atoms: C_5  and  N_6 
REMARK       I    between atoms: N_6  and  C_7 
REMARK    3  A    between atoms: C_7  and  C_8 
REMARK    4  A    between atoms: C_8  and  N_9 
REMARK    5  A    between atoms: C_8  and  C_25 
REMARK    6  A    between atoms: N_9  and  C_12 
REMARK    7  A    between atoms: C_12  and  C_13 
REMARK    8  A    between atoms: C_16  and  N_17 
ROOT
HETATM    1  C   UNL     1     -41.832  54.534 -53.217  1.00  0.00     0.310 C 
ENDROOT
BRANCH   1   2
HETATM    2  C   UNL     1     -42.663  54.724 -51.932  1.00  0.00     0.257 C 
HETATM    3  N   UNL     1     -42.911  55.915 -51.332  1.00  0.00    -0.325 N 
HETATM    4  H   UNL     1     -43.553  55.799 -50.550  1.00  0.00     0.169 HD
HETATM    5  O   UNL     1     -43.208  53.713 -51.456  1.00  0.00    -0.270 OA
BRANCH   3   6
HETATM    6  C   UNL     1     -42.487  57.239 -51.548  1.00  0.00     0.037 A 
HETATM    7  C   UNL     1     -41.166  57.672 -51.621  1.00  0.00     0.066 A 
HETATM    8  C   UNL     1     -40.850  59.024 -51.830  1.00  0.00     0.070 A 
HETATM    9  C   UNL     1     -41.869  59.959 -51.975  1.00  0.00     0.037 A 
HETATM   10  C   UNL     1     -43.197  59.545 -51.892  1.00  0.00     0.005 A 
HETATM   11  C   UNL     1     -43.501  58.199 -51.675  1.00  0.00     0.029 A 
BRANCH   8  12
HETATM   12  O   UNL     1     -39.507  59.285 -51.874  1.00  0.00    -0.356 OA
HETATM   13  C   UNL     1     -38.859  59.525 -50.629  1.00  0.00     0.210 C 
ENDBRANCH   8  12
ENDBRANCH   3   6
ENDBRANCH   1   2
BRANCH   1  14
HETATM   14  N   UNL     1     -42.788  54.379 -54.387  1.00  0.00    -0.054 N 
HETATM   15  H   UNL     1     -42.263  54.179 -55.246  1.00  0.00     0.278 HD
HETATM   16  H   UNL     1     -43.332  53.524 -54.189  1.00  0.00     0.278 HD
BRANCH  14  17
HETATM   17  C   UNL     1     -43.755  55.477 -54.625  1.00  0.00     0.272 C 
BRANCH  17  18
HETATM   18  C   UNL     1     -43.173  56.411 -55.647  1.00  0.00    -0.033 A 
HETATM   19  C   UNL     1     -42.894  57.739 -55.310  1.00  0.00     0.011 A 
HETATM   20  C   UNL     1     -42.529  58.659 -56.301  1.00  0.00     0.030 A 
HETATM   21  C   UNL     1     -42.443  58.290 -57.648  1.00  0.00     0.037 A 
HETATM   22  C   UNL     1     -42.674  56.944 -57.965  1.00  0.00     0.030 A 
HETATM   23  C   UNL     1     -43.040  56.016 -56.982  1.00  0.00     0.011 A 
BRANCH  21  24
HETATM   24  N   UNL     1     -42.163  59.240 -58.669  1.00  0.00    -0.318 N 
HETATM   25  C   UNL     1     -41.506  60.471 -58.494  1.00  0.00     0.224 C 
HETATM   26  O   UNL     1     -41.006  60.939 -57.483  1.00  0.00    -0.273 OA
HETATM   27  C   UNL     1     -41.591  61.232 -59.796  1.00  0.00     0.105 C 
HETATM   28  C   UNL     1     -41.930  60.157 -60.809  1.00  0.00     0.029 C 
HETATM   29  C   UNL     1     -42.718  59.148 -60.001  1.00  0.00     0.133 C 
ENDBRANCH  21  24
ENDBRANCH  17  18
ENDBRANCH  14  17
ENDBRANCH   1  14
BRANCH   1  30
HETATM   30  C   UNL     1     -40.956  53.292 -53.212  1.00  0.00    -0.019 A 
HETATM   31  C   UNL     1     -41.034  52.391 -54.291  1.00  0.00     0.010 A 
HETATM   32  C   UNL     1     -40.312  51.198 -54.276  1.00  0.00     0.001 A 
HETATM   33  C   UNL     1     -39.518  50.878 -53.179  1.00  0.00     0.000 A 
HETATM   34  C   UNL     1     -39.442  51.751 -52.096  1.00  0.00     0.001 A 
HETATM   35  C   UNL     1     -40.160  52.948 -52.106  1.00  0.00     0.010 A 
ENDBRANCH   1  30
TORSDOF 8
ENDMDL
MODEL 5
REMARK VINA RESULT:      -7.5     14.953     18.424
REMARK  8 active torsions:
REMARK  status: ('A' for Active; 'I' for Inactive)
REMARK    1  A    between atoms: O_2  and  C_3 
REMARK    2  A    between atoms: C_5  and  N_6 
REMARK       I    between atoms: N_6  and  C_7 
REMARK    3  A    between atoms: C_7  and  C_8 
REMARK    4  A    between atoms: C_8  and  N_9 
REMARK    5  A    between atoms: C_8  and  C_25 
REMARK    6  A    between atoms: N_9  and  C_12 
REMARK    7  A    between atoms: C_12  and  C_13 
REMARK    8  A    between atoms: C_16  and  N_17 
ROOT
HETATM    1  C   UNL     1     -35.380  40.601 -51.958  1.00  0.00     0.310 C 
ENDROOT
BRANCH   1   2
HETATM    2  C   UNL     1     -35.910  39.443 -52.828  1.00  0.00     0.257 C 
HETATM    3  N   UNL     1     -35.137  38.579 -53.532  1.00  0.00    -0.325 N 
HETATM    4  H   UNL     1     -35.707  37.849 -53.956  1.00  0.00     0.169 HD
HETATM    5  O   UNL     1     -37.137  39.246 -52.818  1.00  0.00    -0.270 OA
BRANCH   3   6
HETATM    6  C   UNL     1     -33.759  38.473 -53.796  1.00  0.00     0.037 A 
HETATM    7  C   UNL     1     -33.028  39.285 -54.659  1.00  0.00     0.066 A 
HETATM    8  C   UNL     1     -31.654  39.087 -54.860  1.00  0.00     0.070 A 
HETATM    9  C   UNL     1     -30.995  38.065 -54.185  1.00  0.00     0.037 A 
HETATM   10  C   UNL     1     -31.714  37.235 -53.327  1.00  0.00     0.005 A 
HETATM   11  C   UNL     1     -33.084  37.434 -53.140  1.00  0.00     0.029 A 
BRANCH   8  12
HETATM   12  O   UNL     1     -31.083  39.967 -55.740  1.00  0.00    -0.356 OA
HETATM   13  C   UNL     1     -30.137  39.432 -56.659  1.00  0.00     0.210 C 
ENDBRANCH   8  12
ENDBRANCH   3   6
ENDBRANCH   1   2
BRANCH   1  14
HETATM   14  N   UNL     1     -34.783  41.655 -52.874  1.00  0.00    -0.054 N 
HETATM   15  H   UNL     1     -34.010  42.136 -52.400  1.00  0.00     0.278 HD
HETATM   16  H   UNL     1     -34.349  41.132 -53.652  1.00  0.00     0.278 HD
BRANCH  14  17
HETATM   17  C   UNL     1     -35.712  42.645 -53.468  1.00  0.00     0.272 C 
BRANCH  17  18
HETATM   18  C   UNL     1     -35.979  42.253 -54.894  1.00  0.00    -0.033 A 
HETATM   19  C   UNL     1     -37.239  41.782 -55.271  1.00  0.00     0.011 A 
HETATM   20  C   UNL     1     -37.440  41.242 -56.548  1.00  0.00     0.030 A 
HETATM   21  C   UNL     1     -36.397  41.145 -57.476  1.00  0.00     0.037 A 
HETATM   22  C   UNL     1     -35.151  41.670 -57.103  1.00  0.00     0.030 A 
HETATM   23  C   UNL     1     -34.940  42.212 -55.829  1.00  0.00     0.011 A 
BRANCH  21  24
HETATM   24  N   UNL     1     -36.572  40.516 -58.738  1.00  0.00    -0.318 N 
HETATM   25  C   UNL     1     -37.134  41.106 -59.885  1.00  0.00     0.224 C 
HETATM   26  O   UNL     1     -37.518  42.254 -60.049  1.00  0.00    -0.273 OA
HETATM   27  C   UNL     1     -37.295  40.028 -60.931  1.00  0.00     0.105 C 
HETATM   28  C   UNL     1     -36.373  38.928 -60.445  1.00  0.00     0.029 C 
HETATM   29  C   UNL     1     -36.385  39.097 -58.941  1.00  0.00     0.133 C 
ENDBRANCH  21  24
ENDBRANCH  17  18
ENDBRANCH  14  17
ENDBRANCH   1  14
BRANCH   1  30
HETATM   30  C   UNL     1     -34.278  40.199 -50.992  1.00  0.00    -0.019 A 
HETATM   31  C   UNL     1     -32.958  40.622 -51.239  1.00  0.00     0.010 A 
HETATM   32  C   UNL     1     -31.909  40.196 -50.424  1.00  0.00     0.001 A 
HETATM   33  C   UNL     1     -32.158  39.330 -49.364  1.00  0.00     0.000 A 
HETATM   34  C   UNL     1     -33.456  38.890 -49.115  1.00  0.00     0.001 A 
HETATM   35  C   UNL     1     -34.510  39.314 -49.925  1.00  0.00     0.010 A 
ENDBRANCH   1  30
TORSDOF 8
ENDMDL
MODEL 6
REMARK VINA RESULT:      -7.5      2.104      7.705
REMARK  8 active torsions:
REMARK  status: ('A' for Active; 'I' for Inactive)
REMARK    1  A    between atoms: O_2  and  C_3 
REMARK    2  A    between atoms: C_5  and  N_6 
REMARK       I    between atoms: N_6  and  C_7 
REMARK    3  A    between atoms: C_7  and  C_8 
REMARK    4  A    between atoms: C_8  and  N_9 
REMARK    5  A    between atoms: C_8  and  C_25 
REMARK    6  A    between atoms: N_9  and  C_12 
REMARK    7  A    between atoms: C_12  and  C_13 
REMARK    8  A    between atoms: C_16  and  N_17 
ROOT
HETATM    1  C   UNL     1     -43.278  57.116 -51.914  1.00  0.00     0.310 C 
ENDROOT
BRANCH   1   2
HETATM    2  C   UNL     1     -43.910  56.179 -50.864  1.00  0.00     0.257 C 
HETATM    3  N   UNL     1     -43.273  55.151 -50.251  1.00  0.00    -0.325 N 
HETATM    4  H   UNL     1     -43.866  54.734 -49.536  1.00  0.00     0.169 HD
HETATM    5  O   UNL     1     -45.070  56.440 -50.500  1.00  0.00    -0.270 OA
BRANCH   3   6
HETATM    6  C   UNL     1     -42.008  54.550 -50.385  1.00  0.00     0.037 A 
HETATM    7  C   UNL     1     -41.671  53.546 -51.289  1.00  0.00     0.066 A 
HETATM    8  C   UNL     1     -40.377  53.006 -51.333  1.00  0.00     0.070 A 
HETATM    9  C   UNL     1     -39.399  53.480 -50.465  1.00  0.00     0.037 A 
HETATM   10  C   UNL     1     -39.721  54.476 -49.546  1.00  0.00     0.005 A 
HETATM   11  C   UNL     1     -41.015  55.001 -49.503  1.00  0.00     0.029 A 
BRANCH   8  12
HETATM   12  O   UNL     1     -40.210  52.026 -52.274  1.00  0.00    -0.356 OA
HETATM   13  C   UNL     1     -40.433  52.397 -53.631  1.00  0.00     0.210 C 
ENDBRANCH   8  12
ENDBRANCH   3   6
ENDBRANCH   1   2
BRANCH   1  14
HETATM   14  N   UNL     1     -44.353  58.061 -52.422  1.00  0.00    -0.054 N 
HETATM   15  H   UNL     1     -44.873  57.623 -53.190  1.00  0.00     0.278 HD
HETATM   16  H   UNL     1     -45.029  58.154 -51.647  1.00  0.00     0.278 HD
BRANCH  14  17
HETATM   17  C   UNL     1     -43.929  59.428 -52.808  1.00  0.00     0.272 C 
BRANCH  17  18
HETATM   18  C   UNL     1     -43.639  59.438 -54.282  1.00  0.00    -0.033 A 
HETATM   19  C   UNL     1     -44.596  58.985 -55.193  1.00  0.00     0.011 A 
HETATM   20  C   UNL     1     -44.266  58.817 -56.543  1.00  0.00     0.030 A 
HETATM   21  C   UNL     1     -42.977  59.083 -57.022  1.00  0.00     0.037 A 
HETATM   22  C   UNL     1     -42.041  59.589 -56.108  1.00  0.00     0.030 A 
HETATM   23  C   UNL     1     -42.362  59.760 -54.755  1.00  0.00     0.011 A 
BRANCH  21  24
HETATM   24  N   UNL     1     -42.611  58.829 -58.372  1.00  0.00    -0.318 N 
HETATM   25  C   UNL     1     -42.534  57.564 -58.982  1.00  0.00     0.224 C 
HETATM   26  O   UNL     1     -42.813  56.469 -58.520  1.00  0.00    -0.273 OA
HETATM   27  C   UNL     1     -41.931  57.747 -60.355  1.00  0.00     0.105 C 
HETATM   28  C   UNL     1     -42.108  59.229 -60.622  1.00  0.00     0.029 C 
HETATM   29  C   UNL     1     -42.057  59.844 -59.239  1.00  0.00     0.133 C 
ENDBRANCH  21  24
ENDBRANCH  17  18
ENDBRANCH  14  17
ENDBRANCH   1  14
BRANCH   1  30
HETATM   30  C   UNL     1     -42.727  56.399 -53.135  1.00  0.00    -0.019 A 
HETATM   31  C   UNL     1     -41.362  56.532 -53.453  1.00  0.00     0.010 A 
HETATM   32  C   UNL     1     -40.843  55.963 -54.616  1.00  0.00     0.001 A 
HETATM   33  C   UNL     1     -41.679  55.269 -55.485  1.00  0.00     0.000 A 
HETATM   34  C   UNL     1     -43.034  55.141 -55.193  1.00  0.00     0.001 A 
HETATM   35  C   UNL     1     -43.560  55.707 -54.030  1.00  0.00     0.010 A 
ENDBRANCH   1  30
TORSDOF 8
ENDMDL
MODEL 7
REMARK VINA RESULT:      -7.5      1.922      5.069
REMARK  8 active torsions:
REMARK  status: ('A' for Active; 'I' for Inactive)
REMARK    1  A    between atoms: O_2  and  C_3 
REMARK    2  A    between atoms: C_5  and  N_6 
REMARK       I    between atoms: N_6  and  C_7 
REMARK    3  A    between atoms: C_7  and  C_8 
REMARK    4  A    between atoms: C_8  and  N_9 
REMARK    5  A    between atoms: C_8  and  C_25 
REMARK    6  A    between atoms: N_9  and  C_12 
REMARK    7  A    between atoms: C_12  and  C_13 
REMARK    8  A    between atoms: C_16  and  N_17 
ROOT
HETATM    1  C   UNL     1     -42.797  58.293 -56.656  1.00  0.00     0.310 C 
ENDROOT
BRANCH   1   2
HETATM    2  C   UNL     1     -42.032  59.334 -55.814  1.00  0.00     0.257 C 
HETATM    3  N   UNL     1     -41.746  59.213 -54.494  1.00  0.00    -0.325 N 
HETATM    4  H   UNL     1     -41.158  59.982 -54.180  1.00  0.00     0.169 HD
HETATM    5  O   UNL     1     -41.578  60.323 -56.415  1.00  0.00    -0.270 OA
BRANCH   3   6
HETATM    6  C   UNL     1     -42.076  58.282 -53.492  1.00  0.00     0.037 A 
HETATM    7  C   UNL     1     -43.309  58.168 -52.856  1.00  0.00     0.066 A 
HETATM    8  C   UNL     1     -43.531  57.208 -51.857  1.00  0.00     0.070 A 
HETATM    9  C   UNL     1     -42.507  56.341 -51.490  1.00  0.00     0.037 A 
HETATM   10  C   UNL     1     -41.263  56.449 -52.108  1.00  0.00     0.005 A 
HETATM   11  C   UNL     1     -41.049  57.414 -53.094  1.00  0.00     0.029 A 
BRANCH   8  12
HETATM   12  O   UNL     1     -44.794  57.228 -51.330  1.00  0.00    -0.356 OA
HETATM   13  C   UNL     1     -45.366  58.508 -51.086  1.00  0.00     0.210 C 
ENDBRANCH   8  12
ENDBRANCH   3   6
ENDBRANCH   1   2
BRANCH   1  14
HETATM   14  N   UNL     1     -42.006  56.997 -56.651  1.00  0.00    -0.054 N 
HETATM   15  H   UNL     1     -41.392  56.956 -57.473  1.00  0.00     0.278 HD
HETATM   16  H   UNL     1     -41.375  57.060 -55.837  1.00  0.00     0.278 HD
BRANCH  14  17
HETATM   17  C   UNL     1     -42.771  55.733 -56.524  1.00  0.00     0.272 C 
BRANCH  17  18
HETATM   18  C   UNL     1     -42.081  54.859 -55.516  1.00  0.00    -0.033 A 
HETATM   19  C   UNL     1     -40.718  54.577 -55.642  1.00  0.00     0.011 A 
HETATM   20  C   UNL     1     -40.114  53.619 -54.819  1.00  0.00     0.030 A 
HETATM   21  C   UNL     1     -40.846  52.909 -53.859  1.00  0.00     0.037 A 
HETATM   22  C   UNL     1     -42.200  53.240 -53.706  1.00  0.00     0.030 A 
HETATM   23  C   UNL     1     -42.814  54.197 -54.525  1.00  0.00     0.011 A 
BRANCH  21  24
HETATM   24  N   UNL     1     -40.259  51.872 -53.084  1.00  0.00    -0.318 N 
HETATM   25  C   UNL     1     -39.999  50.561 -53.520  1.00  0.00     0.224 C 
HETATM   26  O   UNL     1     -40.159  50.073 -54.628  1.00  0.00    -0.273 OA
HETATM   27  C   UNL     1     -39.549  49.754 -52.325  1.00  0.00     0.105 C 
HETATM   28  C   UNL     1     -39.147  50.814 -51.318  1.00  0.00     0.029 C 
HETATM   29  C   UNL     1     -40.049  51.982 -51.658  1.00  0.00     0.133 C 
ENDBRANCH  21  24
ENDBRANCH  17  18
ENDBRANCH  14  17
ENDBRANCH   1  14
BRANCH   1  30
HETATM   30  C   UNL     1     -42.974  58.682 -58.114  1.00  0.00    -0.019 A 
HETATM   31  C   UNL     1     -42.004  58.286 -59.055  1.00  0.00     0.010 A 
HETATM   32  C   UNL     1     -42.088  58.702 -60.383  1.00  0.00     0.001 A 
HETATM   33  C   UNL     1     -43.129  59.532 -60.788  1.00  0.00     0.000 A 
HETATM   34  C   UNL     1     -44.088  59.946 -59.868  1.00  0.00     0.001 A 
HETATM   35  C   UNL     1     -44.011  59.531 -58.537  1.00  0.00     0.010 A 
ENDBRANCH   1  30
TORSDOF 8
ENDMDL
MODEL 8
REMARK VINA RESULT:      -7.3      2.494      7.827
REMARK  8 active torsions:
REMARK  status: ('A' for Active; 'I' for Inactive)
REMARK    1  A    between atoms: O_2  and  C_3 
REMARK    2  A    between atoms: C_5  and  N_6 
REMARK       I    between atoms: N_6  and  C_7 
REMARK    3  A    between atoms: C_7  and  C_8 
REMARK    4  A    between atoms: C_8  and  N_9 
REMARK    5  A    between atoms: C_8  and  C_25 
REMARK    6  A    between atoms: N_9  and  C_12 
REMARK    7  A    between atoms: C_12  and  C_13 
REMARK    8  A    between atoms: C_16  and  N_17 
ROOT
HETATM    1  C   UNL     1     -41.828  54.612 -53.219  1.00  0.00     0.310 C 
ENDROOT
BRANCH   1   2
HETATM    2  C   UNL     1     -43.027  54.704 -52.254  1.00  0.00     0.257 C 
HETATM    3  N   UNL     1     -43.721  55.836 -51.976  1.00  0.00    -0.325 N 
HETATM    4  H   UNL     1     -44.520  55.632 -51.380  1.00  0.00     0.169 HD
HETATM    5  O   UNL     1     -43.431  53.640 -51.753  1.00  0.00    -0.270 OA
BRANCH   3   6
HETATM    6  C   UNL     1     -43.580  57.192 -52.322  1.00  0.00     0.037 A 
HETATM    7  C   UNL     1     -42.381  57.896 -52.398  1.00  0.00     0.066 A 
HETATM    8  C   UNL     1     -42.353  59.256 -52.743  1.00  0.00     0.070 A 
HETATM    9  C   UNL     1     -43.540  59.924 -53.024  1.00  0.00     0.037 A 
HETATM   10  C   UNL     1     -44.750  59.239 -52.940  1.00  0.00     0.005 A 
HETATM   11  C   UNL     1     -44.769  57.888 -52.586  1.00  0.00     0.029 A 
BRANCH   8  12
HETATM   12  O   UNL     1     -41.098  59.801 -52.772  1.00  0.00    -0.356 OA
HETATM   13  C   UNL     1     -40.070  59.080 -52.100  1.00  0.00     0.210 C 
ENDBRANCH   8  12
ENDBRANCH   3   6
ENDBRANCH   1   2
BRANCH   1  14
HETATM   14  N   UNL     1     -42.344  54.762 -54.640  1.00  0.00    -0.054 N 
HETATM   15  H   UNL     1     -42.242  53.875 -55.147  1.00  0.00     0.278 HD
HETATM   16  H   UNL     1     -43.362  54.915 -54.551  1.00  0.00     0.278 HD
BRANCH  14  17
HETATM   17  C   UNL     1     -41.796  55.877 -55.448  1.00  0.00     0.272 C 
BRANCH  17  18
HETATM   18  C   UNL     1     -42.864  56.351 -56.393  1.00  0.00    -0.033 A 
HETATM   19  C   UNL     1     -42.999  55.767 -57.655  1.00  0.00     0.011 A 
HETATM   20  C   UNL     1     -43.864  56.325 -58.605  1.00  0.00     0.030 A 
HETATM   21  C   UNL     1     -44.607  57.479 -58.332  1.00  0.00     0.037 A 
HETATM   22  C   UNL     1     -44.503  58.024 -57.044  1.00  0.00     0.030 A 
HETATM   23  C   UNL     1     -43.641  57.474 -56.087  1.00  0.00     0.011 A 
BRANCH  21  24
HETATM   24  N   UNL     1     -45.416  58.101 -59.321  1.00  0.00    -0.318 N 
HETATM   25  C   UNL     1     -45.017  59.138 -60.183  1.00  0.00     0.224 C 
HETATM   26  O   UNL     1     -43.919  59.659 -60.301  1.00  0.00    -0.273 OA
HETATM   27  C   UNL     1     -46.238  59.617 -60.932  1.00  0.00     0.105 C 
HETATM   28  C   UNL     1     -47.224  58.479 -60.757  1.00  0.00     0.029 C 
HETATM   29  C   UNL     1     -46.843  57.884 -59.419  1.00  0.00     0.133 C 
ENDBRANCH  21  24
ENDBRANCH  17  18
ENDBRANCH  14  17
ENDBRANCH   1  14
BRANCH   1  30
HETATM   30  C   UNL     1     -41.091  53.285 -53.170  1.00  0.00    -0.019 A 
HETATM   31  C   UNL     1     -40.261  52.999 -52.068  1.00  0.00     0.010 A 
HETATM   32  C   UNL     1     -39.500  51.831 -52.034  1.00  0.00     0.001 A 
HETATM   33  C   UNL     1     -39.541  50.941 -53.104  1.00  0.00     0.000 A 
HETATM   34  C   UNL     1     -40.343  51.216 -54.208  1.00  0.00     0.001 A 
HETATM   35  C   UNL     1     -41.110  52.382 -54.247  1.00  0.00     0.010 A 
ENDBRANCH   1  30
TORSDOF 8
ENDMDL
MODEL 9
REMARK VINA RESULT:      -7.3      2.238      5.165
REMARK  8 active torsions:
REMARK  status: ('A' for Active; 'I' for Inactive)
REMARK    1  A    between atoms: O_2  and  C_3 
REMARK    2  A    between atoms: C_5  and  N_6 
REMARK       I    between atoms: N_6  and  C_7 
REMARK    3  A    between atoms: C_7  and  C_8 
REMARK    4  A    between atoms: C_8  and  N_9 
REMARK    5  A    between atoms: C_8  and  C_25 
REMARK    6  A    between atoms: N_9  and  C_12 
REMARK    7  A    between atoms: C_12  and  C_13 
REMARK    8  A    between atoms: C_16  and  N_17 
ROOT
HETATM    1  C   UNL     1     -42.842  56.789 -58.748  1.00  0.00     0.310 C 
ENDROOT
BRANCH   1   2
HETATM    2  C   UNL     1     -44.361  56.550 -58.859  1.00  0.00     0.257 C 
HETATM    3  N   UNL     1     -45.313  57.260 -58.203  1.00  0.00    -0.325 N 
HETATM    4  H   UNL     1     -46.244  56.977 -58.502  1.00  0.00     0.169 HD
HETATM    5  O   UNL     1     -44.740  55.689 -59.672  1.00  0.00    -0.270 OA
BRANCH   3   6
HETATM    6  C   UNL     1     -45.295  58.272 -57.226  1.00  0.00     0.037 A 
HETATM    7  C   UNL     1     -45.165  58.081 -55.854  1.00  0.00     0.066 A 
HETATM    8  C   UNL     1     -45.170  59.164 -54.961  1.00  0.00     0.070 A 
HETATM    9  C   UNL     1     -45.301  60.461 -55.447  1.00  0.00     0.037 A 
HETATM   10  C   UNL     1     -45.444  60.669 -56.817  1.00  0.00     0.005 A 
HETATM   11  C   UNL     1     -45.448  59.585 -57.696  1.00  0.00     0.029 A 
BRANCH   8  12
HETATM   12  O   UNL     1     -45.035  58.808 -53.647  1.00  0.00    -0.356 OA
HETATM   13  C   UNL     1     -43.852  58.101 -53.293  1.00  0.00     0.210 C 
ENDBRANCH   8  12
ENDBRANCH   3   6
ENDBRANCH   1   2
BRANCH   1  14
HETATM   14  N   UNL     1     -42.410  56.477 -57.326  1.00  0.00    -0.054 N 
HETATM   15  H   UNL     1     -41.393  56.588 -57.235  1.00  0.00     0.278 HD
HETATM   16  H   UNL     1     -42.822  57.222 -56.741  1.00  0.00     0.278 HD
BRANCH  14  17
HETATM   17  C   UNL     1     -42.834  55.177 -56.756  1.00  0.00     0.272 C 
BRANCH  17  18
HETATM   18  C   UNL     1     -42.521  55.176 -55.287  1.00  0.00    -0.033 A 
HETATM   19  C   UNL     1     -41.309  55.693 -54.823  1.00  0.00     0.011 A 
HETATM   20  C   UNL     1     -40.933  55.527 -53.485  1.00  0.00     0.030 A 
HETATM   21  C   UNL     1     -41.742  54.836 -52.576  1.00  0.00     0.037 A 
HETATM   22  C   UNL     1     -42.980  54.368 -53.040  1.00  0.00     0.030 A 
HETATM   23  C   UNL     1     -43.365  54.529 -54.377  1.00  0.00     0.011 A 
BRANCH  21  24
HETATM   24  N   UNL     1     -41.325  54.585 -51.240  1.00  0.00    -0.318 N 
HETATM   25  C   UNL     1     -40.377  53.628 -50.836  1.00  0.00     0.224 C 
HETATM   26  O   UNL     1     -39.696  52.883 -51.524  1.00  0.00    -0.273 OA
HETATM   27  C   UNL     1     -40.383  53.577 -49.327  1.00  0.00     0.105 C 
HETATM   28  C   UNL     1     -41.056  54.877 -48.934  1.00  0.00     0.029 C 
HETATM   29  C   UNL     1     -41.995  55.150 -50.090  1.00  0.00     0.133 C 
ENDBRANCH  21  24
ENDBRANCH  17  18
ENDBRANCH  14  17
ENDBRANCH   1  14
BRANCH   1  30
HETATM   30  C   UNL     1     -42.417  58.222 -59.021  1.00  0.00    -0.019 A 
HETATM   31  C   UNL     1     -41.884  58.994 -57.970  1.00  0.00     0.010 A 
HETATM   32  C   UNL     1     -41.568  60.339 -58.163  1.00  0.00     0.001 A 
HETATM   33  C   UNL     1     -41.796  60.937 -59.398  1.00  0.00     0.000 A 
HETATM   34  C   UNL     1     -42.338  60.193 -60.443  1.00  0.00     0.001 A 
HETATM   35  C   UNL     1     -42.654  58.846 -60.258  1.00  0.00     0.010 A 
ENDBRANCH   1  30
TORSDOF 8
ENDMDL
MODEL 10
REMARK VINA RESULT:      -7.2      3.311      7.696
REMARK  8 active torsions:
REMARK  status: ('A' for Active; 'I' for Inactive)
REMARK    1  A    between atoms: O_2  and  C_3 
REMARK    2  A    between atoms: C_5  and  N_6 
REMARK       I    between atoms: N_6  and  C_7 
REMARK    3  A    between atoms: C_7  and  C_8 
REMARK    4  A    between atoms: C_8  and  N_9 
REMARK    5  A    between atoms: C_8  and  C_25 
REMARK    6  A    between atoms: N_9  and  C_12 
REMARK    7  A    between atoms: C_12  and  C_13 
REMARK    8  A    between atoms: C_16  and  N_17 
ROOT
HETATM    1  C   UNL     1     -42.016  56.671 -54.920  1.00  0.00     0.310 C 
ENDROOT
BRANCH   1   2
HETATM    2  C   UNL     1     -43.082  56.129 -53.946  1.00  0.00     0.257 C 
HETATM    3  N   UNL     1     -42.920  55.060 -53.128  1.00  0.00    -0.325 N 
HETATM    4  H   UNL     1     -43.726  54.948 -52.516  1.00  0.00     0.169 HD
HETATM    5  O   UNL     1     -44.141  56.773 -53.853  1.00  0.00    -0.270 OA
BRANCH   3   6
HETATM    6  C   UNL     1     -41.909  54.098 -52.945  1.00  0.00     0.037 A 
HETATM    7  C   UNL     1     -41.496  53.158 -53.884  1.00  0.00     0.066 A 
HETATM    8  C   UNL     1     -40.482  52.232 -53.595  1.00  0.00     0.070 A 
HETATM    9  C   UNL     1     -39.864  52.248 -52.349  1.00  0.00     0.037 A 
HETATM   10  C   UNL     1     -40.274  53.174 -51.393  1.00  0.00     0.005 A 
HETATM   11  C   UNL     1     -41.291  54.086 -51.686  1.00  0.00     0.029 A 
BRANCH   8  12
HETATM   12  O   UNL     1     -40.195  51.375 -54.623  1.00  0.00    -0.356 OA
HETATM   13  C   UNL     1     -39.794  50.056 -54.266  1.00  0.00     0.210 C 
ENDBRANCH   8  12
ENDBRANCH   3   6
ENDBRANCH   1   2
BRANCH   1  14
HETATM   14  N   UNL     1     -41.718  58.114 -54.552  1.00  0.00    -0.054 N 
HETATM   15  H   UNL     1     -41.299  58.602 -55.352  1.00  0.00     0.278 HD
HETATM   16  H   UNL     1     -42.639  58.559 -54.408  1.00  0.00     0.278 HD
BRANCH  14  17
HETATM   17  C   UNL     1     -40.914  58.352 -53.330  1.00  0.00     0.272 C 
BRANCH  17  18
HETATM   18  C   UNL     1     -41.652  59.325 -52.456  1.00  0.00    -0.033 A 
HETATM   19  C   UNL     1     -41.236  59.549 -51.141  1.00  0.00     0.011 A 
HETATM   20  C   UNL     1     -42.024  60.308 -50.267  1.00  0.00     0.030 A 
HETATM   21  C   UNL     1     -43.248  60.854 -50.671  1.00  0.00     0.037 A 
HETATM   22  C   UNL     1     -43.628  60.668 -52.008  1.00  0.00     0.030 A 
HETATM   23  C   UNL     1     -42.847  59.910 -52.889  1.00  0.00     0.011 A 
BRANCH  21  24
HETATM   24  N   UNL     1     -44.095  61.548 -49.764  1.00  0.00    -0.318 N 
HETATM   25  C   UNL     1     -45.287  61.055 -49.205  1.00  0.00     0.224 C 
HETATM   26  O   UNL     1     -45.794  59.951 -49.327  1.00  0.00    -0.273 OA
HETATM   27  C   UNL     1     -45.951  62.185 -48.454  1.00  0.00     0.105 C 
HETATM   28  C   UNL     1     -44.828  63.185 -48.261  1.00  0.00     0.029 C 
HETATM   29  C   UNL     1     -43.941  62.955 -49.466  1.00  0.00     0.133 C 
ENDBRANCH  21  24
ENDBRANCH  17  18
ENDBRANCH  14  17
ENDBRANCH   1  14
BRANCH   1  30
HETATM   30  C   UNL     1     -42.453  56.681 -56.376  1.00  0.00    -0.019 A 
HETATM   31  C   UNL     1     -42.898  55.485 -56.970  1.00  0.00     0.010 A 
HETATM   32  C   UNL     1     -43.219  55.440 -58.326  1.00  0.00     0.001 A 
HETATM   33  C   UNL     1     -43.085  56.580 -59.112  1.00  0.00     0.000 A 
HETATM   34  C   UNL     1     -42.631  57.767 -58.544  1.00  0.00     0.001 A 
HETATM   35  C   UNL     1     -42.310  57.820 -57.187  1.00  0.00     0.010 A 
ENDBRANCH   1  30
TORSDOF 8
ENDMDL
