MODEL 1
REMARK VINA RESULT:      -9.4      0.000      0.000
REMARK  3 active torsions:
REMARK  status: ('A' for Active; 'I' for Inactive)
REMARK    1  A    between atoms: C_7  and  C_8 
REMARK    2  A    between atoms: N_9  and  N_10 
REMARK       I    between atoms: N_10  and  C_11 
REMARK    3  A    between atoms: C_11  and  C_12 
ROOT
HETATM    1  N   UNL     1     -41.385  55.391 -55.584  1.00  0.00    -0.242 N 
HETATM    2  C   UNL     1     -42.600  56.049 -55.645  1.00  0.00     0.292 C 
HETATM    3  O   UNL     1     -43.599  55.887 -54.963  1.00  0.00    -0.264 OA
HETATM    4  H   UNL     1     -40.612  55.795 -56.110  1.00  0.00     0.192 HD
ENDROOT
BRANCH   1   5
HETATM    5  N   UNL     1     -41.022  54.366 -54.747  1.00  0.00    -0.183 NA
HETATM    6  C   UNL     1     -40.828  54.595 -53.489  1.00  0.00     0.153 C 
BRANCH   6   7
HETATM    7  C   UNL     1     -40.442  53.508 -52.602  1.00  0.00     0.018 A 
HETATM    8  C   UNL     1     -40.308  53.651 -51.226  1.00  0.00     0.018 A 
HETATM    9  C   UNL     1     -40.489  54.837 -50.346  1.00  0.00     0.069 C 
HETATM   10  N   UNL     1     -39.942  52.433 -50.712  1.00  0.00    -0.358 N 
HETATM   11  H   UNL     1     -39.770  52.240 -49.736  1.00  0.00     0.166 HD
HETATM   12  C   UNL     1     -39.839  51.496 -51.711  1.00  0.00     0.043 A 
HETATM   13  C   UNL     1     -40.142  52.140 -52.912  1.00  0.00     0.004 A 
HETATM   14  C   UNL     1     -39.500  50.140 -51.636  1.00  0.00     0.030 A 
HETATM   15  C   UNL     1     -40.104  51.376 -54.099  1.00  0.00     0.014 A 
HETATM   16  C   UNL     1     -39.768  50.017 -54.043  1.00  0.00     0.001 A 
HETATM   17  C   UNL     1     -39.472  49.410 -52.828  1.00  0.00     0.002 A 
ENDBRANCH   6   7
ENDBRANCH   1   5
BRANCH   2  18
HETATM   18  C   UNL     1     -42.627  57.089 -56.753  1.00  0.00     0.157 A 
HETATM   19  N   UNL     1     -42.149  58.265 -56.457  1.00  0.00    -0.166 NA
HETATM   20  N   UNL     1     -42.166  59.220 -57.430  1.00  0.00    -0.242 N 
HETATM   21  C   UNL     1     -42.645  59.065 -58.710  1.00  0.00     0.272 A 
HETATM   22  H   UNL     1     -41.824  60.142 -57.173  1.00  0.00     0.192 HD
HETATM   23  O   UNL     1     -42.646  59.979 -59.526  1.00  0.00    -0.266 OA
HETATM   24  C   UNL     1     -43.148  57.724 -59.057  1.00  0.00     0.046 A 
HETATM   25  C   UNL     1     -43.142  56.725 -58.086  1.00  0.00     0.016 A 
HETATM   26  C   UNL     1     -43.611  57.455 -60.350  1.00  0.00     0.018 A 
HETATM   27  C   UNL     1     -43.591  55.440 -58.414  1.00  0.00     0.015 A 
HETATM   28  C   UNL     1     -44.052  55.170 -59.706  1.00  0.00     0.001 A 
HETATM   29  C   UNL     1     -44.064  56.176 -60.671  1.00  0.00     0.001 A 
ENDBRANCH   2  18
TORSDOF 3
ENDMDL
MODEL 2
REMARK VINA RESULT:      -9.2      2.076      8.710
REMARK  3 active torsions:
REMARK  status: ('A' for Active; 'I' for Inactive)
REMARK    1  A    between atoms: C_7  and  C_8 
REMARK    2  A    between atoms: N_9  and  N_10 
REMARK       I    between atoms: N_10  and  C_11 
REMARK    3  A    between atoms: C_11  and  C_12 
ROOT
HETATM    1  N   UNL     1     -42.101  55.873 -55.125  1.00  0.00    -0.242 N 
HETATM    2  C   UNL     1     -42.819  55.033 -54.295  1.00  0.00     0.292 C 
HETATM    3  O   UNL     1     -43.972  54.647 -54.400  1.00  0.00    -0.264 OA
HETATM    4  H   UNL     1     -41.095  55.928 -54.972  1.00  0.00     0.192 HD
ENDROOT
BRANCH   1   5
HETATM    5  N   UNL     1     -42.531  56.505 -56.265  1.00  0.00    -0.183 NA
HETATM    6  C   UNL     1     -42.599  55.853 -57.380  1.00  0.00     0.153 C 
BRANCH   6   7
HETATM    7  C   UNL     1     -43.055  56.523 -58.588  1.00  0.00     0.018 A 
HETATM    8  C   UNL     1     -43.857  55.914 -59.548  1.00  0.00     0.018 A 
HETATM    9  C   UNL     1     -44.415  54.537 -59.621  1.00  0.00     0.069 C 
HETATM   10  N   UNL     1     -44.096  56.832 -60.537  1.00  0.00    -0.358 N 
HETATM   11  H   UNL     1     -44.647  56.665 -61.367  1.00  0.00     0.166 HD
HETATM   12  C   UNL     1     -43.481  58.026 -60.250  1.00  0.00     0.043 A 
HETATM   13  C   UNL     1     -42.815  57.865 -59.034  1.00  0.00     0.004 A 
HETATM   14  C   UNL     1     -43.467  59.224 -60.975  1.00  0.00     0.030 A 
HETATM   15  C   UNL     1     -42.099  58.968 -58.521  1.00  0.00     0.014 A 
HETATM   16  C   UNL     1     -42.074  60.175 -59.232  1.00  0.00     0.001 A 
HETATM   17  C   UNL     1     -42.750  60.299 -60.441  1.00  0.00     0.002 A 
ENDBRANCH   6   7
ENDBRANCH   1   5
BRANCH   2  18
HETATM   18  C   UNL     1     -42.000  54.583 -53.097  1.00  0.00     0.157 A 
HETATM   19  N   UNL     1     -42.104  55.306 -52.017  1.00  0.00    -0.166 NA
HETATM   20  N   UNL     1     -41.376  54.929 -50.928  1.00  0.00    -0.242 N 
HETATM   21  C   UNL     1     -40.529  53.848 -50.854  1.00  0.00     0.272 A 
HETATM   22  H   UNL     1     -41.440  55.524 -50.106  1.00  0.00     0.192 HD
HETATM   23  O   UNL     1     -39.889  53.584 -49.843  1.00  0.00    -0.266 OA
HETATM   24  C   UNL     1     -40.441  53.008 -52.061  1.00  0.00     0.046 A 
HETATM   25  C   UNL     1     -41.174  53.364 -53.190  1.00  0.00     0.016 A 
HETATM   26  C   UNL     1     -39.642  51.858 -52.066  1.00  0.00     0.018 A 
HETATM   27  C   UNL     1     -41.121  52.556 -54.333  1.00  0.00     0.015 A 
HETATM   28  C   UNL     1     -40.325  51.407 -54.338  1.00  0.00     0.001 A 
HETATM   29  C   UNL     1     -39.586  51.059 -53.208  1.00  0.00     0.001 A 
ENDBRANCH   2  18
TORSDOF 3
ENDMDL
MODEL 3
REMARK VINA RESULT:      -9.1      2.105      8.568
REMARK  3 active torsions:
REMARK  status: ('A' for Active; 'I' for Inactive)
REMARK    1  A    between atoms: C_7  and  C_8 
REMARK    2  A    between atoms: N_9  and  N_10 
REMARK       I    between atoms: N_10  and  C_11 
REMARK    3  A    between atoms: C_11  and  C_12 
ROOT
HETATM    1  N   UNL     1     -41.900  54.412 -54.910  1.00  0.00    -0.242 N 
HETATM    2  C   UNL     1     -40.590  54.215 -54.512  1.00  0.00     0.292 C 
HETATM    3  O   UNL     1     -39.557  54.431 -55.126  1.00  0.00    -0.264 OA
HETATM    4  H   UNL     1     -42.618  54.350 -54.190  1.00  0.00     0.192 HD
ENDROOT
BRANCH   1   5
HETATM    5  N   UNL     1     -42.354  54.875 -56.119  1.00  0.00    -0.183 NA
HETATM    6  C   UNL     1     -42.562  56.141 -56.290  1.00  0.00     0.153 C 
BRANCH   6   7
HETATM    7  C   UNL     1     -43.045  56.632 -57.571  1.00  0.00     0.018 A 
HETATM    8  C   UNL     1     -42.903  57.950 -57.991  1.00  0.00     0.018 A 
HETATM    9  C   UNL     1     -42.290  59.127 -57.318  1.00  0.00     0.069 C 
HETATM   10  N   UNL     1     -43.462  58.055 -59.239  1.00  0.00    -0.358 N 
HETATM   11  H   UNL     1     -43.507  58.901 -59.789  1.00  0.00     0.166 HD
HETATM   12  C   UNL     1     -43.960  56.843 -59.651  1.00  0.00     0.043 A 
HETATM   13  C   UNL     1     -43.718  55.928 -58.624  1.00  0.00     0.004 A 
HETATM   14  C   UNL     1     -44.601  56.497 -60.846  1.00  0.00     0.030 A 
HETATM   15  C   UNL     1     -44.143  54.595 -58.814  1.00  0.00     0.014 A 
HETATM   16  C   UNL     1     -44.786  54.231 -60.003  1.00  0.00     0.001 A 
HETATM   17  C   UNL     1     -45.010  55.170 -61.004  1.00  0.00     0.002 A 
ENDBRANCH   6   7
ENDBRANCH   1   5
BRANCH   2  18
HETATM   18  C   UNL     1     -40.504  53.629 -53.113  1.00  0.00     0.157 A 
HETATM   19  N   UNL     1     -40.779  54.435 -52.126  1.00  0.00    -0.166 NA
HETATM   20  N   UNL     1     -40.704  53.937 -50.860  1.00  0.00    -0.242 N 
HETATM   21  C   UNL     1     -40.361  52.651 -50.513  1.00  0.00     0.272 A 
HETATM   22  H   UNL     1     -40.885  54.587 -50.100  1.00  0.00     0.192 HD
HETATM   23  O   UNL     1     -40.293  52.280 -49.347  1.00  0.00    -0.266 OA
HETATM   24  C   UNL     1     -40.088  51.728 -51.630  1.00  0.00     0.046 A 
HETATM   25  C   UNL     1     -40.159  52.205 -52.936  1.00  0.00     0.016 A 
HETATM   26  C   UNL     1     -39.778  50.386 -51.379  1.00  0.00     0.018 A 
HETATM   27  C   UNL     1     -39.931  51.329 -54.005  1.00  0.00     0.015 A 
HETATM   28  C   UNL     1     -39.623  49.989 -53.756  1.00  0.00     0.001 A 
HETATM   29  C   UNL     1     -39.545  49.519 -52.445  1.00  0.00     0.001 A 
ENDBRANCH   2  18
TORSDOF 3
ENDMDL
MODEL 4
REMARK VINA RESULT:      -9.0      4.019      5.041
REMARK  3 active torsions:
REMARK  status: ('A' for Active; 'I' for Inactive)
REMARK    1  A    between atoms: C_7  and  C_8 
REMARK    2  A    between atoms: N_9  and  N_10 
REMARK       I    between atoms: N_10  and  C_11 
REMARK    3  A    between atoms: C_11  and  C_12 
ROOT
HETATM    1  N   UNL     1     -41.307  57.478 -53.304  1.00  0.00    -0.242 N 
HETATM    2  C   UNL     1     -40.679  58.709 -53.355  1.00  0.00     0.292 C 
HETATM    3  O   UNL     1     -39.526  58.998 -53.077  1.00  0.00    -0.264 OA
HETATM    4  H   UNL     1     -42.218  57.403 -53.753  1.00  0.00     0.192 HD
ENDROOT
BRANCH   1   5
HETATM    5  N   UNL     1     -40.781  56.278 -52.895  1.00  0.00    -0.183 NA
HETATM    6  C   UNL     1     -41.474  55.494 -52.135  1.00  0.00     0.153 C 
BRANCH   6   7
HETATM    7  C   UNL     1     -40.917  54.222 -51.702  1.00  0.00     0.018 A 
HETATM    8  C   UNL     1     -40.664  53.908 -50.371  1.00  0.00     0.018 A 
HETATM    9  C   UNL     1     -40.857  54.702 -49.128  1.00  0.00     0.069 C 
HETATM   10  N   UNL     1     -40.152  52.636 -50.331  1.00  0.00    -0.358 N 
HETATM   11  H   UNL     1     -39.872  52.147 -49.492  1.00  0.00     0.166 HD
HETATM   12  C   UNL     1     -40.068  52.107 -51.595  1.00  0.00     0.043 A 
HETATM   13  C   UNL     1     -40.537  53.078 -52.481  1.00  0.00     0.004 A 
HETATM   14  C   UNL     1     -39.614  50.850 -52.011  1.00  0.00     0.030 A 
HETATM   15  C   UNL     1     -40.550  52.766 -53.858  1.00  0.00     0.014 A 
HETATM   16  C   UNL     1     -40.100  51.514 -54.293  1.00  0.00     0.001 A 
HETATM   17  C   UNL     1     -39.640  50.570 -53.380  1.00  0.00     0.002 A 
ENDBRANCH   6   7
ENDBRANCH   1   5
BRANCH   2  18
HETATM   18  C   UNL     1     -41.624  59.810 -53.809  1.00  0.00     0.157 A 
HETATM   19  N   UNL     1     -41.732  59.989 -55.095  1.00  0.00    -0.166 NA
HETATM   20  N   UNL     1     -42.568  60.973 -55.531  1.00  0.00    -0.242 N 
HETATM   21  C   UNL     1     -43.318  61.810 -54.737  1.00  0.00     0.272 A 
HETATM   22  H   UNL     1     -42.614  61.125 -56.535  1.00  0.00     0.192 HD
HETATM   23  O   UNL     1     -44.033  62.689 -55.202  1.00  0.00    -0.266 OA
HETATM   24  C   UNL     1     -43.226  61.581 -53.284  1.00  0.00     0.046 A 
HETATM   25  C   UNL     1     -42.383  60.581 -52.807  1.00  0.00     0.016 A 
HETATM   26  C   UNL     1     -43.990  62.351 -52.398  1.00  0.00     0.018 A 
HETATM   27  C   UNL     1     -42.311  60.337 -51.430  1.00  0.00     0.015 A 
HETATM   28  C   UNL     1     -43.074  61.103 -50.544  1.00  0.00     0.001 A 
HETATM   29  C   UNL     1     -43.911  62.109 -51.027  1.00  0.00     0.001 A 
ENDBRANCH   2  18
TORSDOF 3
ENDMDL
MODEL 5
REMARK VINA RESULT:      -9.0      2.394      8.364
REMARK  3 active torsions:
REMARK  status: ('A' for Active; 'I' for Inactive)
REMARK    1  A    between atoms: C_7  and  C_8 
REMARK    2  A    between atoms: N_9  and  N_10 
REMARK       I    between atoms: N_10  and  C_11 
REMARK    3  A    between atoms: C_11  and  C_12 
ROOT
HETATM    1  N   UNL     1     -42.629  56.366 -53.724  1.00  0.00    -0.242 N 
HETATM    2  C   UNL     1     -41.468  56.733 -53.067  1.00  0.00     0.292 C 
HETATM    3  O   UNL     1     -40.591  57.502 -53.426  1.00  0.00    -0.264 OA
HETATM    4  H   UNL     1     -43.327  55.858 -53.183  1.00  0.00     0.192 HD
ENDROOT
BRANCH   1   5
HETATM    5  N   UNL     1     -43.060  56.765 -54.964  1.00  0.00    -0.183 NA
HETATM    6  C   UNL     1     -42.339  56.520 -56.009  1.00  0.00     0.153 C 
BRANCH   6   7
HETATM    7  C   UNL     1     -42.795  56.943 -57.324  1.00  0.00     0.018 A 
HETATM    8  C   UNL     1     -42.656  58.240 -57.805  1.00  0.00     0.018 A 
HETATM    9  C   UNL     1     -42.071  59.455 -57.177  1.00  0.00     0.069 C 
HETATM   10  N   UNL     1     -43.186  58.277 -59.069  1.00  0.00    -0.358 N 
HETATM   11  H   UNL     1     -43.226  59.095 -59.661  1.00  0.00     0.166 HD
HETATM   12  C   UNL     1     -43.662  57.041 -59.432  1.00  0.00     0.043 A 
HETATM   13  C   UNL     1     -43.436  56.180 -58.357  1.00  0.00     0.004 A 
HETATM   14  C   UNL     1     -44.271  56.631 -60.624  1.00  0.00     0.030 A 
HETATM   15  C   UNL     1     -43.843  54.835 -58.490  1.00  0.00     0.014 A 
HETATM   16  C   UNL     1     -44.454  54.406 -59.675  1.00  0.00     0.001 A 
HETATM   17  C   UNL     1     -44.663  55.293 -60.726  1.00  0.00     0.002 A 
ENDBRANCH   6   7
ENDBRANCH   1   5
BRANCH   2  18
HETATM   18  C   UNL     1     -41.324  56.024 -51.731  1.00  0.00     0.157 A 
HETATM   19  N   UNL     1     -41.663  56.704 -50.672  1.00  0.00    -0.166 NA
HETATM   20  N   UNL     1     -41.538  56.095 -49.459  1.00  0.00    -0.242 N 
HETATM   21  C   UNL     1     -41.081  54.817 -49.237  1.00  0.00     0.272 A 
HETATM   22  H   UNL     1     -41.771  56.651 -48.641  1.00  0.00     0.192 HD
HETATM   23  O   UNL     1     -40.976  54.343 -48.112  1.00  0.00    -0.266 OA
HETATM   24  C   UNL     1     -40.735  54.033 -50.437  1.00  0.00     0.046 A 
HETATM   25  C   UNL     1     -40.854  54.626 -51.692  1.00  0.00     0.016 A 
HETATM   26  C   UNL     1     -40.307  52.706 -50.315  1.00  0.00     0.018 A 
HETATM   27  C   UNL     1     -40.556  53.880 -52.839  1.00  0.00     0.015 A 
HETATM   28  C   UNL     1     -40.130  52.554 -52.719  1.00  0.00     0.001 A 
HETATM   29  C   UNL     1     -40.005  51.969 -51.460  1.00  0.00     0.001 A 
ENDBRANCH   2  18
TORSDOF 3
ENDMDL
MODEL 6
REMARK VINA RESULT:      -8.9      1.910      1.974
REMARK  3 active torsions:
REMARK  status: ('A' for Active; 'I' for Inactive)
REMARK    1  A    between atoms: C_7  and  C_8 
REMARK    2  A    between atoms: N_9  and  N_10 
REMARK       I    between atoms: N_10  and  C_11 
REMARK    3  A    between atoms: C_11  and  C_12 
ROOT
HETATM    1  N   UNL     1     -43.663  55.456 -54.938  1.00  0.00    -0.242 N 
HETATM    2  C   UNL     1     -43.403  56.789 -55.200  1.00  0.00     0.292 C 
HETATM    3  O   UNL     1     -42.541  57.513 -54.727  1.00  0.00    -0.264 OA
HETATM    4  H   UNL     1     -44.303  54.976 -55.568  1.00  0.00     0.192 HD
ENDROOT
BRANCH   1   5
HETATM    5  N   UNL     1     -43.022  54.629 -54.050  1.00  0.00    -0.183 NA
HETATM    6  C   UNL     1     -41.730  54.569 -54.039  1.00  0.00     0.153 C 
BRANCH   6   7
HETATM    7  C   UNL     1     -41.050  53.691 -53.098  1.00  0.00     0.018 A 
HETATM    8  C   UNL     1     -40.756  54.052 -51.788  1.00  0.00     0.018 A 
HETATM    9  C   UNL     1     -41.011  55.313 -51.043  1.00  0.00     0.069 C 
HETATM   10  N   UNL     1     -40.124  52.989 -51.194  1.00  0.00    -0.358 N 
HETATM   11  H   UNL     1     -39.791  52.968 -50.240  1.00  0.00     0.166 HD
HETATM   12  C   UNL     1     -40.003  51.942 -52.074  1.00  0.00     0.043 A 
HETATM   13  C   UNL     1     -40.572  52.352 -53.282  1.00  0.00     0.004 A 
HETATM   14  C   UNL     1     -39.436  50.676 -51.888  1.00  0.00     0.030 A 
HETATM   15  C   UNL     1     -40.569  51.437 -54.357  1.00  0.00     0.014 A 
HETATM   16  C   UNL     1     -40.006  50.165 -54.189  1.00  0.00     0.001 A 
HETATM   17  C   UNL     1     -39.449  49.792 -52.971  1.00  0.00     0.002 A 
ENDBRANCH   6   7
ENDBRANCH   1   5
BRANCH   2  18
HETATM   18  C   UNL     1     -44.378  57.370 -56.210  1.00  0.00     0.157 A 
HETATM   19  N   UNL     1     -45.388  58.037 -55.726  1.00  0.00    -0.166 NA
HETATM   20  N   UNL     1     -46.282  58.565 -56.609  1.00  0.00    -0.242 N 
HETATM   21  C   UNL     1     -46.226  58.460 -57.980  1.00  0.00     0.272 A 
HETATM   22  H   UNL     1     -47.083  59.051 -56.216  1.00  0.00     0.192 HD
HETATM   23  O   UNL     1     -47.081  58.944 -58.711  1.00  0.00    -0.266 OA
HETATM   24  C   UNL     1     -45.063  57.739 -58.529  1.00  0.00     0.046 A 
HETATM   25  C   UNL     1     -44.130  57.191 -57.653  1.00  0.00     0.016 A 
HETATM   26  C   UNL     1     -44.893  57.622 -59.914  1.00  0.00     0.018 A 
HETATM   27  C   UNL     1     -43.006  56.529 -58.165  1.00  0.00     0.015 A 
HETATM   28  C   UNL     1     -42.835  56.413 -59.548  1.00  0.00     0.001 A 
HETATM   29  C   UNL     1     -43.777  56.957 -60.420  1.00  0.00     0.001 A 
ENDBRANCH   2  18
TORSDOF 3
ENDMDL
MODEL 7
REMARK VINA RESULT:      -8.9      1.415      2.393
REMARK  3 active torsions:
REMARK  status: ('A' for Active; 'I' for Inactive)
REMARK    1  A    between atoms: C_7  and  C_8 
REMARK    2  A    between atoms: N_9  and  N_10 
REMARK       I    between atoms: N_10  and  C_11 
REMARK    3  A    between atoms: C_11  and  C_12 
ROOT
HETATM    1  N   UNL     1     -41.742  55.068 -55.762  1.00  0.00    -0.242 N 
HETATM    2  C   UNL     1     -42.828  55.899 -55.963  1.00  0.00     0.292 C 
HETATM    3  O   UNL     1     -43.825  56.044 -55.273  1.00  0.00    -0.264 OA
HETATM    4  H   UNL     1     -40.923  55.225 -56.348  1.00  0.00     0.192 HD
ENDROOT
BRANCH   1   5
HETATM    5  N   UNL     1     -41.539  54.174 -54.740  1.00  0.00    -0.183 NA
HETATM    6  C   UNL     1     -40.588  54.373 -53.887  1.00  0.00     0.153 C 
BRANCH   6   7
HETATM    7  C   UNL     1     -40.372  53.426 -52.803  1.00  0.00     0.018 A 
HETATM    8  C   UNL     1     -40.467  53.763 -51.458  1.00  0.00     0.018 A 
HETATM    9  C   UNL     1     -40.771  55.061 -50.798  1.00  0.00     0.069 C 
HETATM   10  N   UNL     1     -40.211  52.633 -50.724  1.00  0.00    -0.358 N 
HETATM   11  H   UNL     1     -40.207  52.582 -49.715  1.00  0.00     0.166 HD
HETATM   12  C   UNL     1     -39.959  51.565 -51.549  1.00  0.00     0.043 A 
HETATM   13  C   UNL     1     -40.049  52.029 -52.863  1.00  0.00     0.004 A 
HETATM   14  C   UNL     1     -39.661  50.236 -51.228  1.00  0.00     0.030 A 
HETATM   15  C   UNL     1     -39.827  51.105 -53.907  1.00  0.00     0.014 A 
HETATM   16  C   UNL     1     -39.528  49.770 -53.604  1.00  0.00     0.001 A 
HETATM   17  C   UNL     1     -39.447  49.344 -52.283  1.00  0.00     0.002 A 
ENDBRANCH   6   7
ENDBRANCH   1   5
BRANCH   2  18
HETATM   18  C   UNL     1     -42.702  56.697 -57.250  1.00  0.00     0.157 A 
HETATM   19  N   UNL     1     -42.872  56.039 -58.361  1.00  0.00    -0.166 NA
HETATM   20  N   UNL     1     -42.759  56.728 -59.532  1.00  0.00    -0.242 N 
HETATM   21  C   UNL     1     -42.477  58.069 -59.659  1.00  0.00     0.272 A 
HETATM   22  H   UNL     1     -42.858  56.194 -60.391  1.00  0.00     0.192 HD
HETATM   23  O   UNL     1     -42.369  58.616 -60.749  1.00  0.00    -0.266 OA
HETATM   24  C   UNL     1     -42.323  58.822 -58.401  1.00  0.00     0.046 A 
HETATM   25  C   UNL     1     -42.436  58.147 -57.188  1.00  0.00     0.016 A 
HETATM   26  C   UNL     1     -42.083  60.201 -58.428  1.00  0.00     0.018 A 
HETATM   27  C   UNL     1     -42.321  58.859 -55.988  1.00  0.00     0.015 A 
HETATM   28  C   UNL     1     -42.083  60.237 -56.013  1.00  0.00     0.001 A 
HETATM   29  C   UNL     1     -41.963  60.906 -57.231  1.00  0.00     0.001 A 
ENDBRANCH   2  18
TORSDOF 3
ENDMDL
MODEL 8
REMARK VINA RESULT:      -8.7      1.172      2.728
REMARK  3 active torsions:
REMARK  status: ('A' for Active; 'I' for Inactive)
REMARK    1  A    between atoms: C_7  and  C_8 
REMARK    2  A    between atoms: N_9  and  N_10 
REMARK       I    between atoms: N_10  and  C_11 
REMARK    3  A    between atoms: C_11  and  C_12 
ROOT
HETATM    1  N   UNL     1     -41.356  56.221 -55.583  1.00  0.00    -0.242 N 
HETATM    2  C   UNL     1     -42.611  56.742 -55.839  1.00  0.00     0.292 C 
HETATM    3  O   UNL     1     -43.593  56.776 -55.114  1.00  0.00    -0.264 OA
HETATM    4  H   UNL     1     -40.614  56.454 -56.242  1.00  0.00     0.192 HD
ENDROOT
BRANCH   1   5
HETATM    5  N   UNL     1     -40.920  55.585 -54.448  1.00  0.00    -0.183 NA
HETATM    6  C   UNL     1     -41.339  54.392 -54.174  1.00  0.00     0.153 C 
BRANCH   6   7
HETATM    7  C   UNL     1     -40.878  53.717 -52.971  1.00  0.00     0.018 A 
HETATM    8  C   UNL     1     -40.276  52.463 -52.976  1.00  0.00     0.018 A 
HETATM    9  C   UNL     1     -39.969  51.534 -54.096  1.00  0.00     0.069 C 
HETATM   10  N   UNL     1     -39.966  52.142 -51.679  1.00  0.00    -0.358 N 
HETATM   11  H   UNL     1     -39.523  51.285 -51.381  1.00  0.00     0.166 HD
HETATM   12  C   UNL     1     -40.342  53.151 -50.827  1.00  0.00     0.043 A 
HETATM   13  C   UNL     1     -40.922  54.154 -51.605  1.00  0.00     0.004 A 
HETATM   14  C   UNL     1     -40.212  53.243 -49.436  1.00  0.00     0.030 A 
HETATM   15  C   UNL     1     -41.394  55.311 -50.948  1.00  0.00     0.014 A 
HETATM   16  C   UNL     1     -41.271  55.422 -49.557  1.00  0.00     0.001 A 
HETATM   17  C   UNL     1     -40.687  54.401 -48.814  1.00  0.00     0.002 A 
ENDBRANCH   6   7
ENDBRANCH   1   5
BRANCH   2  18
HETATM   18  C   UNL     1     -42.712  57.315 -57.242  1.00  0.00     0.157 A 
HETATM   19  N   UNL     1     -42.233  58.515 -57.417  1.00  0.00    -0.166 NA
HETATM   20  N   UNL     1     -42.316  59.056 -58.665  1.00  0.00    -0.242 N 
HETATM   21  C   UNL     1     -42.865  58.457 -59.774  1.00  0.00     0.272 A 
HETATM   22  H   UNL     1     -41.971  60.006 -58.776  1.00  0.00     0.192 HD
HETATM   23  O   UNL     1     -42.924  59.017 -60.862  1.00  0.00    -0.266 OA
HETATM   24  C   UNL     1     -43.371  57.085 -59.587  1.00  0.00     0.046 A 
HETATM   25  C   UNL     1     -43.299  56.502 -58.324  1.00  0.00     0.016 A 
HETATM   26  C   UNL     1     -43.904  56.374 -60.669  1.00  0.00     0.018 A 
HETATM   27  C   UNL     1     -43.750  55.188 -58.142  1.00  0.00     0.015 A 
HETATM   28  C   UNL     1     -44.281  54.477 -59.223  1.00  0.00     0.001 A 
HETATM   29  C   UNL     1     -44.359  55.069 -60.483  1.00  0.00     0.001 A 
ENDBRANCH   2  18
TORSDOF 3
ENDMDL
MODEL 9
REMARK VINA RESULT:      -8.6      2.727      4.081
REMARK  3 active torsions:
REMARK  status: ('A' for Active; 'I' for Inactive)
REMARK    1  A    between atoms: C_7  and  C_8 
REMARK    2  A    between atoms: N_9  and  N_10 
REMARK       I    between atoms: N_10  and  C_11 
REMARK    3  A    between atoms: C_11  and  C_12 
ROOT
HETATM    1  N   UNL     1     -43.094  55.286 -56.525  1.00  0.00    -0.242 N 
HETATM    2  C   UNL     1     -42.944  56.283 -57.472  1.00  0.00     0.292 C 
HETATM    3  O   UNL     1     -42.135  57.196 -57.507  1.00  0.00    -0.264 OA
HETATM    4  H   UNL     1     -43.704  54.506 -56.766  1.00  0.00     0.192 HD
ENDROOT
BRANCH   1   5
HETATM    5  N   UNL     1     -42.377  55.104 -55.369  1.00  0.00    -0.183 NA
HETATM    6  C   UNL     1     -42.380  53.952 -54.781  1.00  0.00     0.153 C 
BRANCH   6   7
HETATM    7  C   UNL     1     -41.620  53.759 -53.556  1.00  0.00     0.018 A 
HETATM    8  C   UNL     1     -40.681  52.747 -53.386  1.00  0.00     0.018 A 
HETATM    9  C   UNL     1     -40.233  51.669 -54.306  1.00  0.00     0.069 C 
HETATM   10  N   UNL     1     -40.160  52.868 -52.123  1.00  0.00    -0.358 N 
HETATM   11  H   UNL     1     -39.457  52.264 -51.722  1.00  0.00     0.166 HD
HETATM   12  C   UNL     1     -40.725  53.933 -51.464  1.00  0.00     0.043 A 
HETATM   13  C   UNL     1     -41.650  54.512 -52.335  1.00  0.00     0.004 A 
HETATM   14  C   UNL     1     -40.485  54.417 -50.173  1.00  0.00     0.030 A 
HETATM   15  C   UNL     1     -42.369  55.639 -51.881  1.00  0.00     0.014 A 
HETATM   16  C   UNL     1     -42.142  56.138 -50.592  1.00  0.00     0.001 A 
HETATM   17  C   UNL     1     -41.212  55.534 -49.752  1.00  0.00     0.002 A 
ENDBRANCH   6   7
ENDBRANCH   1   5
BRANCH   2  18
HETATM   18  C   UNL     1     -43.976  56.172 -58.581  1.00  0.00     0.157 A 
HETATM   19  N   UNL     1     -43.842  55.169 -59.403  1.00  0.00    -0.166 NA
HETATM   20  N   UNL     1     -44.751  55.048 -60.412  1.00  0.00    -0.242 N 
HETATM   21  C   UNL     1     -45.809  55.892 -60.654  1.00  0.00     0.272 A 
HETATM   22  H   UNL     1     -44.611  54.283 -61.066  1.00  0.00     0.192 HD
HETATM   23  O   UNL     1     -46.575  55.731 -61.597  1.00  0.00    -0.266 OA
HETATM   24  C   UNL     1     -45.985  57.004 -59.702  1.00  0.00     0.046 A 
HETATM   25  C   UNL     1     -45.075  57.153 -58.659  1.00  0.00     0.016 A 
HETATM   26  C   UNL     1     -47.063  57.887 -59.838  1.00  0.00     0.018 A 
HETATM   27  C   UNL     1     -45.250  58.189 -57.732  1.00  0.00     0.015 A 
HETATM   28  C   UNL     1     -46.327  59.070 -57.865  1.00  0.00     0.001 A 
HETATM   29  C   UNL     1     -47.230  58.921 -58.917  1.00  0.00     0.001 A 
ENDBRANCH   2  18
TORSDOF 3
ENDMDL
MODEL 10
REMARK VINA RESULT:      -8.4      1.641      3.511
REMARK  3 active torsions:
REMARK  status: ('A' for Active; 'I' for Inactive)
REMARK    1  A    between atoms: C_7  and  C_8 
REMARK    2  A    between atoms: N_9  and  N_10 
REMARK       I    between atoms: N_10  and  C_11 
REMARK    3  A    between atoms: C_11  and  C_12 
ROOT
HETATM    1  N   UNL     1     -41.877  55.191 -55.644  1.00  0.00    -0.242 N 
HETATM    2  C   UNL     1     -42.911  56.050 -55.970  1.00  0.00     0.292 C 
HETATM    3  O   UNL     1     -43.893  56.357 -55.313  1.00  0.00    -0.264 OA
HETATM    4  H   UNL     1     -41.054  55.208 -56.244  1.00  0.00     0.192 HD
ENDROOT
BRANCH   1   5
HETATM    5  N   UNL     1     -41.725  54.449 -54.500  1.00  0.00    -0.183 NA
HETATM    6  C   UNL     1     -40.603  54.476 -53.856  1.00  0.00     0.153 C 
BRANCH   6   7
HETATM    7  C   UNL     1     -40.441  53.689 -52.644  1.00  0.00     0.018 A 
HETATM    8  C   UNL     1     -40.038  52.358 -52.640  1.00  0.00     0.018 A 
HETATM    9  C   UNL     1     -39.703  51.438 -53.760  1.00  0.00     0.069 C 
HETATM   10  N   UNL     1     -39.986  51.940 -51.335  1.00  0.00    -0.358 N 
HETATM   11  H   UNL     1     -39.727  51.012 -51.030  1.00  0.00     0.166 HD
HETATM   12  C   UNL     1     -40.336  52.959 -50.484  1.00  0.00     0.043 A 
HETATM   13  C   UNL     1     -40.632  54.072 -51.274  1.00  0.00     0.004 A 
HETATM   14  C   UNL     1     -40.412  52.974 -49.086  1.00  0.00     0.030 A 
HETATM   15  C   UNL     1     -41.022  55.261 -50.621  1.00  0.00     0.014 A 
HETATM   16  C   UNL     1     -41.103  55.294 -49.223  1.00  0.00     0.001 A 
HETATM   17  C   UNL     1     -40.800  54.166 -48.469  1.00  0.00     0.002 A 
ENDBRANCH   6   7
ENDBRANCH   1   5
BRANCH   2  18
HETATM   18  C   UNL     1     -42.743  56.638 -57.361  1.00  0.00     0.157 A 
HETATM   19  N   UNL     1     -42.937  55.827 -58.363  1.00  0.00    -0.166 NA
HETATM   20  N   UNL     1     -42.788  56.327 -59.622  1.00  0.00    -0.242 N 
HETATM   21  C   UNL     1     -42.446  57.619 -59.946  1.00  0.00     0.272 A 
HETATM   22  H   UNL     1     -42.906  55.674 -60.392  1.00  0.00     0.192 HD
HETATM   23  O   UNL     1     -42.308  57.991 -61.105  1.00  0.00    -0.266 OA
HETATM   24  C   UNL     1     -42.265  58.546 -58.815  1.00  0.00     0.046 A 
HETATM   25  C   UNL     1     -42.413  58.068 -57.515  1.00  0.00     0.016 A 
HETATM   26  C   UNL     1     -41.963  59.894 -59.046  1.00  0.00     0.018 A 
HETATM   27  C   UNL     1     -42.272  58.947 -56.434  1.00  0.00     0.015 A 
HETATM   28  C   UNL     1     -41.973  60.293 -56.664  1.00  0.00     0.001 A 
HETATM   29  C   UNL     1     -41.817  60.765 -57.967  1.00  0.00     0.001 A 
ENDBRANCH   2  18
TORSDOF 3
ENDMDL
