MODEL 1
REMARK VINA RESULT:     -10.9      0.000      0.000
REMARK  7 active torsions:
REMARK  status: ('A' for Active; 'I' for Inactive)
REMARK    1  A    between atoms: C_4  and  N_5 
REMARK       I    between atoms: N_5  and  C_6 
REMARK    2  A    between atoms: C_6  and  C_7 
REMARK    3  A    between atoms: C_7  and  N_8 
REMARK    4  A    between atoms: N_11  and  C_12 
REMARK    5  A    between atoms: C_12  and  C_13 
REMARK    6  A    between atoms: C_28  and  C_29 
REMARK       I    between atoms: C_29  and  N_30 
REMARK    7  A    between atoms: N_30  and  C_31 
ROOT
HETATM    1  N   UNL     1     -42.846  57.342 -53.806  1.00  0.00    -0.290 N 
HETATM    2  C   UNL     1     -42.548  57.079 -55.141  1.00  0.00     0.332 C 
HETATM    3  O   UNL     1     -41.781  56.155 -55.429  1.00  0.00    -0.246 OA
HETATM    4  N   UNL     1     -43.100  57.918 -56.096  1.00  0.00    -0.261 N 
HETATM    5  C   UNL     1     -43.820  59.060 -55.772  1.00  0.00     0.264 C 
HETATM    6  O   UNL     1     -43.990  60.016 -56.523  1.00  0.00    -0.267 OA
HETATM    7  C   UNL     1     -44.338  59.150 -54.400  1.00  0.00     0.059 A 
HETATM    8  C   UNL     1     -43.814  58.307 -53.422  1.00  0.00     0.056 A 
HETATM    9  C   UNL     1     -45.263  60.147 -54.077  1.00  0.00     0.020 A 
HETATM   10  C   UNL     1     -45.644  60.333 -52.752  1.00  0.00     0.018 A 
HETATM   11  C   UNL     1     -45.114  59.522 -51.739  1.00  0.00     0.034 A 
HETATM   12  C   UNL     1     -44.232  58.483 -52.088  1.00  0.00     0.048 A 
ENDROOT
BRANCH   1  13
HETATM   13  C   UNL     1     -41.991  56.701 -52.802  1.00  0.00     0.237 C 
BRANCH  13  14
HETATM   14  C   UNL     1     -42.007  55.172 -52.824  1.00  0.00     0.240 C 
HETATM   15  N   UNL     1     -40.759  54.629 -53.077  1.00  0.00    -0.325 N 
HETATM   16  H   UNL     1     -40.066  55.276 -53.457  1.00  0.00     0.169 HD
HETATM   17  O   UNL     1     -43.050  54.560 -52.608  1.00  0.00    -0.271 OA
BRANCH  15  18
HETATM   18  C   UNL     1     -40.325  53.304 -52.851  1.00  0.00     0.041 A 
HETATM   19  C   UNL     1     -40.277  52.356 -53.883  1.00  0.00     0.037 A 
HETATM   20  C   UNL     1     -39.945  51.017 -53.626  1.00  0.00    -0.060 A 
HETATM   21  C   UNL     1     -39.969  49.993 -54.724  1.00  0.00     0.048 C 
HETATM   22  C   UNL     1     -39.653  50.627 -52.318  1.00  0.00     0.007 A 
HETATM   23  C   UNL     1     -39.679  51.563 -51.285  1.00  0.00     0.009 A 
HETATM   24  C   UNL     1     -40.012  52.905 -51.535  1.00  0.00    -0.035 A 
HETATM   25  C   UNL     1     -40.030  53.864 -50.375  1.00  0.00     0.050 C 
ENDBRANCH  15  18
ENDBRANCH  13  14
ENDBRANCH   1  13
BRANCH   4  26
HETATM   26  C   UNL     1     -42.555  57.840 -57.449  1.00  0.00     0.175 C 
BRANCH  26  27
HETATM   27  C   UNL     1     -43.441  57.137 -58.456  1.00  0.00    -0.037 A 
HETATM   28  C   UNL     1     -44.617  57.743 -58.925  1.00  0.00     0.048 A 
HETATM   29  C   UNL     1     -45.409  57.026 -59.800  1.00  0.00     0.105 A 
HETATM   30  C   UNL     1     -45.069  55.762 -60.222  1.00  0.00     0.105 A 
HETATM   31  O   UNL     1     -46.588  57.447 -60.333  1.00  0.00    -0.323 OA
HETATM   32  O   UNL     1     -45.988  55.230 -61.073  1.00  0.00    -0.323 OA
HETATM   33  C   UNL     1     -43.920  55.140 -59.798  1.00  0.00     0.040 A 
HETATM   34  C   UNL     1     -46.957  56.297 -61.123  1.00  0.00     0.352 A 
HETATM   35  C   UNL     1     -43.103  55.836 -58.904  1.00  0.00     0.012 A 
ENDBRANCH  26  27
ENDBRANCH   4  26
BRANCH  11  36
HETATM   36  C   UNL     1     -45.445  59.903 -50.329  1.00  0.00     0.252 C 
HETATM   37  N   UNL     1     -45.107  61.170 -49.893  1.00  0.00    -0.352 N 
HETATM   38  H   UNL     1     -44.622  61.808 -50.503  1.00  0.00     0.163 HD
HETATM   39  O   UNL     1     -46.071  59.113 -49.626  1.00  0.00    -0.268 OA
BRANCH  37  40
HETATM   40  C   UNL     1     -45.793  61.766 -48.747  1.00  0.00     0.084 C 
HETATM   41  C   UNL     1     -44.813  62.504 -47.830  1.00  0.00     0.025 C 
HETATM   42  C   UNL     1     -44.283  63.801 -48.439  1.00  0.00     0.002 C 
HETATM   43  C   UNL     1     -45.413  64.710 -48.916  1.00  0.00     0.000 C 
HETATM   44  C   UNL     1     -46.362  63.983 -49.864  1.00  0.00     0.002 C 
HETATM   45  C   UNL     1     -46.910  62.701 -49.235  1.00  0.00     0.025 C 
ENDBRANCH  37  40
ENDBRANCH  11  36
TORSDOF 7
ENDMDL
MODEL 2
REMARK VINA RESULT:     -10.4      2.049      8.071
REMARK  7 active torsions:
REMARK  status: ('A' for Active; 'I' for Inactive)
REMARK    1  A    between atoms: C_4  and  N_5 
REMARK       I    between atoms: N_5  and  C_6 
REMARK    2  A    between atoms: C_6  and  C_7 
REMARK    3  A    between atoms: C_7  and  N_8 
REMARK    4  A    between atoms: N_11  and  C_12 
REMARK    5  A    between atoms: C_12  and  C_13 
REMARK    6  A    between atoms: C_28  and  C_29 
REMARK       I    between atoms: C_29  and  N_30 
REMARK    7  A    between atoms: N_30  and  C_31 
ROOT
HETATM    1  N   UNL     1     -42.701  57.135 -53.690  1.00  0.00    -0.290 N 
HETATM    2  C   UNL     1     -42.448  57.624 -52.411  1.00  0.00     0.332 C 
HETATM    3  O   UNL     1     -42.608  56.891 -51.429  1.00  0.00    -0.246 OA
HETATM    4  N   UNL     1     -42.070  58.952 -52.297  1.00  0.00    -0.261 N 
HETATM    5  C   UNL     1     -42.055  59.828 -53.375  1.00  0.00     0.264 C 
HETATM    6  O   UNL     1     -42.113  61.051 -53.283  1.00  0.00    -0.267 OA
HETATM    7  C   UNL     1     -42.056  59.228 -54.716  1.00  0.00     0.059 A 
HETATM    8  C   UNL     1     -42.415  57.890 -54.859  1.00  0.00     0.056 A 
HETATM    9  C   UNL     1     -41.804  60.034 -55.830  1.00  0.00     0.020 A 
HETATM   10  C   UNL     1     -41.949  59.508 -57.110  1.00  0.00     0.018 A 
HETATM   11  C   UNL     1     -42.338  58.172 -57.290  1.00  0.00     0.034 A 
HETATM   12  C   UNL     1     -42.528  57.359 -56.158  1.00  0.00     0.048 A 
ENDROOT
BRANCH   1  13
HETATM   13  C   UNL     1     -43.437  55.871 -53.778  1.00  0.00     0.237 C 
BRANCH  13  14
HETATM   14  C   UNL     1     -42.575  54.642 -54.069  1.00  0.00     0.240 C 
HETATM   15  N   UNL     1     -41.569  54.463 -53.136  1.00  0.00    -0.325 N 
HETATM   16  H   UNL     1     -41.367  55.270 -52.545  1.00  0.00     0.169 HD
HETATM   17  O   UNL     1     -42.825  53.925 -55.035  1.00  0.00    -0.271 OA
BRANCH  15  18
HETATM   18  C   UNL     1     -40.810  53.297 -52.889  1.00  0.00     0.041 A 
HETATM   19  C   UNL     1     -40.588  52.334 -53.883  1.00  0.00     0.037 A 
HETATM   20  C   UNL     1     -39.922  51.133 -53.597  1.00  0.00    -0.060 A 
HETATM   21  C   UNL     1     -39.756  50.076 -54.650  1.00  0.00     0.048 C 
HETATM   22  C   UNL     1     -39.470  50.897 -52.298  1.00  0.00     0.007 A 
HETATM   23  C   UNL     1     -39.667  51.854 -51.304  1.00  0.00     0.009 A 
HETATM   24  C   UNL     1     -40.334  53.059 -51.582  1.00  0.00    -0.035 A 
HETATM   25  C   UNL     1     -40.522  54.047 -50.462  1.00  0.00     0.050 C 
ENDBRANCH  15  18
ENDBRANCH  13  14
ENDBRANCH   1  13
BRANCH   4  26
HETATM   26  C   UNL     1     -42.103  59.545 -50.962  1.00  0.00     0.175 C 
BRANCH  26  27
HETATM   27  C   UNL     1     -43.396  60.250 -50.608  1.00  0.00    -0.037 A 
HETATM   28  C   UNL     1     -43.382  61.499 -49.969  1.00  0.00     0.048 A 
HETATM   29  C   UNL     1     -44.594  62.063 -49.624  1.00  0.00     0.105 A 
HETATM   30  C   UNL     1     -45.791  61.444 -49.900  1.00  0.00     0.105 A 
HETATM   31  O   UNL     1     -44.765  63.250 -48.982  1.00  0.00    -0.323 OA
HETATM   32  O   UNL     1     -46.863  62.161 -49.469  1.00  0.00    -0.323 OA
HETATM   33  C   UNL     1     -45.848  60.227 -50.538  1.00  0.00     0.040 A 
HETATM   34  C   UNL     1     -46.204  63.296 -48.871  1.00  0.00     0.352 A 
HETATM   35  C   UNL     1     -44.638  59.627 -50.890  1.00  0.00     0.012 A 
ENDBRANCH  26  27
ENDBRANCH   4  26
BRANCH  11  36
HETATM   36  C   UNL     1     -42.636  57.742 -58.693  1.00  0.00     0.252 C 
HETATM   37  N   UNL     1     -43.916  57.316 -58.992  1.00  0.00    -0.352 N 
HETATM   38  H   UNL     1     -44.621  57.269 -58.274  1.00  0.00     0.163 HD
HETATM   39  O   UNL     1     -41.763  57.850 -59.551  1.00  0.00    -0.268 OA
BRANCH  37  40
HETATM   40  C   UNL     1     -44.400  57.340 -60.373  1.00  0.00     0.084 C 
HETATM   41  C   UNL     1     -44.728  55.931 -60.875  1.00  0.00     0.025 C 
HETATM   42  C   UNL     1     -45.986  55.344 -60.236  1.00  0.00     0.002 C 
HETATM   43  C   UNL     1     -47.180  56.286 -60.357  1.00  0.00     0.000 C 
HETATM   44  C   UNL     1     -46.863  57.676 -59.815  1.00  0.00     0.002 C 
HETATM   45  C   UNL     1     -45.621  58.268 -60.482  1.00  0.00     0.025 C 
ENDBRANCH  37  40
ENDBRANCH  11  36
TORSDOF 7
ENDMDL
MODEL 3
REMARK VINA RESULT:     -10.2      1.870      2.458
REMARK  7 active torsions:
REMARK  status: ('A' for Active; 'I' for Inactive)
REMARK    1  A    between atoms: C_4  and  N_5 
REMARK       I    between atoms: N_5  and  C_6 
REMARK    2  A    between atoms: C_6  and  C_7 
REMARK    3  A    between atoms: C_7  and  N_8 
REMARK    4  A    between atoms: N_11  and  C_12 
REMARK    5  A    between atoms: C_12  and  C_13 
REMARK    6  A    between atoms: C_28  and  C_29 
REMARK       I    between atoms: C_29  and  N_30 
REMARK    7  A    between atoms: N_30  and  C_31 
ROOT
HETATM    1  N   UNL     1     -43.419  58.133 -52.782  1.00  0.00    -0.290 N 
HETATM    2  C   UNL     1     -43.181  57.468 -53.982  1.00  0.00     0.332 C 
HETATM    3  O   UNL     1     -43.280  56.237 -54.033  1.00  0.00    -0.246 OA
HETATM    4  N   UNL     1     -42.787  58.232 -55.069  1.00  0.00    -0.261 N 
HETATM    5  C   UNL     1     -42.505  59.588 -54.976  1.00  0.00     0.264 C 
HETATM    6  O   UNL     1     -41.805  60.212 -55.767  1.00  0.00    -0.267 OA
HETATM    7  C   UNL     1     -43.023  60.292 -53.795  1.00  0.00     0.059 A 
HETATM    8  C   UNL     1     -43.443  59.550 -52.694  1.00  0.00     0.056 A 
HETATM    9  C   UNL     1     -42.983  61.690 -53.756  1.00  0.00     0.020 A 
HETATM   10  C   UNL     1     -43.332  62.358 -52.586  1.00  0.00     0.018 A 
HETATM   11  C   UNL     1     -43.731  61.640 -51.449  1.00  0.00     0.034 A 
HETATM   12  C   UNL     1     -43.824  60.238 -51.526  1.00  0.00     0.048 A 
ENDROOT
BRANCH   1  13
HETATM   13  C   UNL     1     -43.475  57.308 -51.572  1.00  0.00     0.237 C 
BRANCH  13  14
HETATM   14  C   UNL     1     -42.218  56.483 -51.295  1.00  0.00     0.240 C 
HETATM   15  N   UNL     1     -42.439  55.121 -51.402  1.00  0.00    -0.325 N 
HETATM   16  H   UNL     1     -43.418  54.833 -51.394  1.00  0.00     0.169 HD
HETATM   17  O   UNL     1     -41.155  57.042 -51.037  1.00  0.00    -0.271 OA
BRANCH  15  18
HETATM   18  C   UNL     1     -41.481  54.093 -51.543  1.00  0.00     0.041 A 
HETATM   19  C   UNL     1     -41.185  53.523 -52.789  1.00  0.00     0.037 A 
HETATM   20  C   UNL     1     -40.309  52.433 -52.902  1.00  0.00    -0.060 A 
HETATM   21  C   UNL     1     -40.057  51.783 -54.231  1.00  0.00     0.048 C 
HETATM   22  C   UNL     1     -39.720  51.911 -51.749  1.00  0.00     0.007 A 
HETATM   23  C   UNL     1     -39.991  52.479 -50.505  1.00  0.00     0.009 A 
HETATM   24  C   UNL     1     -40.868  53.570 -50.385  1.00  0.00    -0.035 A 
HETATM   25  C   UNL     1     -41.125  54.132 -49.012  1.00  0.00     0.050 C 
ENDBRANCH  15  18
ENDBRANCH  13  14
ENDBRANCH   1  13
BRANCH   4  26
HETATM   26  C   UNL     1     -42.245  57.520 -56.224  1.00  0.00     0.175 C 
BRANCH  26  27
HETATM   27  C   UNL     1     -43.253  57.204 -57.310  1.00  0.00    -0.037 A 
HETATM   28  C   UNL     1     -43.116  56.057 -58.106  1.00  0.00     0.048 A 
HETATM   29  C   UNL     1     -44.038  55.855 -59.115  1.00  0.00     0.105 A 
HETATM   30  C   UNL     1     -45.073  56.732 -59.341  1.00  0.00     0.105 A 
HETATM   31  O   UNL     1     -44.043  54.815 -59.992  1.00  0.00    -0.323 OA
HETATM   32  O   UNL     1     -45.859  56.354 -60.386  1.00  0.00    -0.323 OA
HETATM   33  C   UNL     1     -45.250  57.859 -58.575  1.00  0.00     0.040 A 
HETATM   34  C   UNL     1     -45.188  55.149 -60.805  1.00  0.00     0.352 A 
HETATM   35  C   UNL     1     -44.328  58.095 -57.554  1.00  0.00     0.012 A 
ENDBRANCH  26  27
ENDBRANCH   4  26
BRANCH  11  36
HETATM   36  C   UNL     1     -43.919  62.426 -50.189  1.00  0.00     0.252 C 
HETATM   37  N   UNL     1     -44.804  61.948 -49.242  1.00  0.00    -0.352 N 
HETATM   38  H   UNL     1     -45.331  61.107 -49.412  1.00  0.00     0.163 HD
HETATM   39  O   UNL     1     -43.232  63.426 -49.999  1.00  0.00    -0.268 OA
BRANCH  37  40
HETATM   40  C   UNL     1     -44.693  62.370 -47.845  1.00  0.00     0.084 C 
HETATM   41  C   UNL     1     -45.852  63.286 -47.442  1.00  0.00     0.025 C 
HETATM   42  C   UNL     1     -47.184  62.548 -47.319  1.00  0.00     0.002 C 
HETATM   43  C   UNL     1     -47.078  61.328 -46.409  1.00  0.00     0.000 C 
HETATM   44  C   UNL     1     -45.950  60.395 -46.840  1.00  0.00     0.002 C 
HETATM   45  C   UNL     1     -44.615  61.136 -46.932  1.00  0.00     0.025 C 
ENDBRANCH  37  40
ENDBRANCH  11  36
TORSDOF 7
ENDMDL
MODEL 4
REMARK VINA RESULT:     -10.0      2.876      8.679
REMARK  7 active torsions:
REMARK  status: ('A' for Active; 'I' for Inactive)
REMARK    1  A    between atoms: C_4  and  N_5 
REMARK       I    between atoms: N_5  and  C_6 
REMARK    2  A    between atoms: C_6  and  C_7 
REMARK    3  A    between atoms: C_7  and  N_8 
REMARK    4  A    between atoms: N_11  and  C_12 
REMARK    5  A    between atoms: C_12  and  C_13 
REMARK    6  A    between atoms: C_28  and  C_29 
REMARK       I    between atoms: C_29  and  N_30 
REMARK    7  A    between atoms: N_30  and  C_31 
ROOT
HETATM    1  N   UNL     1     -42.722  60.858 -52.438  1.00  0.00    -0.290 N 
HETATM    2  C   UNL     1     -43.292  61.929 -51.755  1.00  0.00     0.332 C 
HETATM    3  O   UNL     1     -42.622  62.559 -50.930  1.00  0.00    -0.246 OA
HETATM    4  N   UNL     1     -44.627  62.208 -52.003  1.00  0.00    -0.261 N 
HETATM    5  C   UNL     1     -45.432  61.401 -52.795  1.00  0.00     0.264 C 
HETATM    6  O   UNL     1     -46.658  61.368 -52.740  1.00  0.00    -0.267 OA
HETATM    7  C   UNL     1     -44.748  60.465 -53.698  1.00  0.00     0.059 A 
HETATM    8  C   UNL     1     -43.402  60.178 -53.483  1.00  0.00     0.056 A 
HETATM    9  C   UNL     1     -45.483  59.800 -54.684  1.00  0.00     0.020 A 
HETATM   10  C   UNL     1     -44.876  58.804 -55.444  1.00  0.00     0.018 A 
HETATM   11  C   UNL     1     -43.530  58.470 -55.234  1.00  0.00     0.034 A 
HETATM   12  C   UNL     1     -42.789  59.192 -54.280  1.00  0.00     0.048 A 
ENDROOT
BRANCH   1  13
HETATM   13  C   UNL     1     -41.452  60.345 -51.916  1.00  0.00     0.237 C 
BRANCH  13  14
HETATM   14  C   UNL     1     -41.585  59.256 -50.851  1.00  0.00     0.240 C 
HETATM   15  N   UNL     1     -42.071  58.065 -51.364  1.00  0.00    -0.325 N 
HETATM   16  H   UNL     1     -42.505  58.128 -52.285  1.00  0.00     0.169 HD
HETATM   17  O   UNL     1     -41.254  59.481 -49.690  1.00  0.00    -0.271 OA
BRANCH  15  18
HETATM   18  C   UNL     1     -42.016  56.780 -50.780  1.00  0.00     0.041 A 
HETATM   19  C   UNL     1     -40.803  56.200 -50.382  1.00  0.00     0.037 A 
HETATM   20  C   UNL     1     -40.749  54.884 -49.899  1.00  0.00    -0.060 A 
HETATM   21  C   UNL     1     -39.436  54.246 -49.547  1.00  0.00     0.048 C 
HETATM   22  C   UNL     1     -41.928  54.142 -49.812  1.00  0.00     0.007 A 
HETATM   23  C   UNL     1     -43.143  54.712 -50.187  1.00  0.00     0.009 A 
HETATM   24  C   UNL     1     -43.205  56.030 -50.671  1.00  0.00    -0.035 A 
HETATM   25  C   UNL     1     -44.547  56.583 -51.067  1.00  0.00     0.050 C 
ENDBRANCH  15  18
ENDBRANCH  13  14
ENDBRANCH   1  13
BRANCH   4  26
HETATM   26  C   UNL     1     -45.303  63.116 -51.080  1.00  0.00     0.175 C 
BRANCH  26  27
HETATM   27  C   UNL     1     -45.317  62.664 -49.634  1.00  0.00    -0.037 A 
HETATM   28  C   UNL     1     -45.752  61.376 -49.288  1.00  0.00     0.048 A 
HETATM   29  C   UNL     1     -45.793  61.045 -47.948  1.00  0.00     0.105 A 
HETATM   30  C   UNL     1     -45.410  61.930 -46.967  1.00  0.00     0.105 A 
HETATM   31  O   UNL     1     -46.209  59.856 -47.434  1.00  0.00    -0.323 OA
HETATM   32  O   UNL     1     -45.535  61.410 -45.716  1.00  0.00    -0.323 OA
HETATM   33  C   UNL     1     -44.963  63.195 -47.265  1.00  0.00     0.040 A 
HETATM   34  C   UNL     1     -46.060  60.102 -46.020  1.00  0.00     0.352 A 
HETATM   35  C   UNL     1     -44.921  63.562 -48.611  1.00  0.00     0.012 A 
ENDBRANCH  26  27
ENDBRANCH   4  26
BRANCH  11  36
HETATM   36  C   UNL     1     -43.010  57.275 -55.972  1.00  0.00     0.252 C 
HETATM   37  N   UNL     1     -42.007  56.526 -55.387  1.00  0.00    -0.352 N 
HETATM   38  H   UNL     1     -41.617  56.797 -54.499  1.00  0.00     0.163 HD
HETATM   39  O   UNL     1     -43.536  56.952 -57.033  1.00  0.00    -0.268 OA
BRANCH  37  40
HETATM   40  C   UNL     1     -41.790  55.136 -55.790  1.00  0.00     0.084 C 
HETATM   41  C   UNL     1     -40.478  54.587 -55.224  1.00  0.00     0.025 C 
HETATM   42  C   UNL     1     -40.529  54.348 -53.716  1.00  0.00     0.002 C 
HETATM   43  C   UNL     1     -41.726  53.492 -53.315  1.00  0.00     0.000 C 
HETATM   44  C   UNL     1     -43.036  54.066 -53.843  1.00  0.00     0.002 C 
HETATM   45  C   UNL     1     -42.987  54.274 -55.358  1.00  0.00     0.025 C 
ENDBRANCH  37  40
ENDBRANCH  11  36
TORSDOF 7
ENDMDL
MODEL 5
REMARK VINA RESULT:      -9.6      3.219      7.747
REMARK  7 active torsions:
REMARK  status: ('A' for Active; 'I' for Inactive)
REMARK    1  A    between atoms: C_4  and  N_5 
REMARK       I    between atoms: N_5  and  C_6 
REMARK    2  A    between atoms: C_6  and  C_7 
REMARK    3  A    between atoms: C_7  and  N_8 
REMARK    4  A    between atoms: N_11  and  C_12 
REMARK    5  A    between atoms: C_12  and  C_13 
REMARK    6  A    between atoms: C_28  and  C_29 
REMARK       I    between atoms: C_29  and  N_30 
REMARK    7  A    between atoms: N_30  and  C_31 
ROOT
HETATM    1  N   UNL     1     -44.223  57.397 -52.061  1.00  0.00    -0.290 N 
HETATM    2  C   UNL     1     -43.308  56.417 -51.684  1.00  0.00     0.332 C 
HETATM    3  O   UNL     1     -43.590  55.628 -50.776  1.00  0.00    -0.246 OA
HETATM    4  N   UNL     1     -42.079  56.409 -52.326  1.00  0.00    -0.261 N 
HETATM    5  C   UNL     1     -41.690  57.396 -53.221  1.00  0.00     0.264 C 
HETATM    6  O   UNL     1     -40.526  57.658 -53.510  1.00  0.00    -0.267 OA
HETATM    7  C   UNL     1     -42.755  58.233 -53.790  1.00  0.00     0.059 A 
HETATM    8  C   UNL     1     -44.005  58.248 -53.176  1.00  0.00     0.056 A 
HETATM    9  C   UNL     1     -42.465  59.078 -54.866  1.00  0.00     0.020 A 
HETATM   10  C   UNL     1     -43.425  59.980 -55.313  1.00  0.00     0.018 A 
HETATM   11  C   UNL     1     -44.685  60.042 -54.699  1.00  0.00     0.034 A 
HETATM   12  C   UNL     1     -44.980  59.142 -53.658  1.00  0.00     0.048 A 
ENDROOT
BRANCH   1  13
HETATM   13  C   UNL     1     -45.348  57.631 -51.151  1.00  0.00     0.237 C 
BRANCH  13  14
HETATM   14  C   UNL     1     -45.550  59.089 -50.737  1.00  0.00     0.240 C 
HETATM   15  N   UNL     1     -44.457  59.608 -50.065  1.00  0.00    -0.325 N 
HETATM   16  H   UNL     1     -43.789  58.921 -49.714  1.00  0.00     0.169 HD
HETATM   17  O   UNL     1     -46.589  59.677 -51.026  1.00  0.00    -0.271 OA
BRANCH  15  18
HETATM   18  C   UNL     1     -44.146  60.966 -49.830  1.00  0.00     0.041 A 
HETATM   19  C   UNL     1     -44.974  61.791 -49.056  1.00  0.00     0.037 A 
HETATM   20  C   UNL     1     -44.709  63.162 -48.916  1.00  0.00    -0.060 A 
HETATM   21  C   UNL     1     -45.643  64.052 -48.147  1.00  0.00     0.048 C 
HETATM   22  C   UNL     1     -43.598  63.710 -49.558  1.00  0.00     0.007 A 
HETATM   23  C   UNL     1     -42.756  62.898 -50.316  1.00  0.00     0.009 A 
HETATM   24  C   UNL     1     -43.015  61.525 -50.461  1.00  0.00    -0.035 A 
HETATM   25  C   UNL     1     -42.072  60.705 -51.300  1.00  0.00     0.050 C 
ENDBRANCH  15  18
ENDBRANCH  13  14
ENDBRANCH   1  13
BRANCH   4  26
HETATM   26  C   UNL     1     -41.020  55.597 -51.732  1.00  0.00     0.175 C 
BRANCH  26  27
HETATM   27  C   UNL     1     -40.762  54.277 -52.427  1.00  0.00    -0.037 A 
HETATM   28  C   UNL     1     -40.352  53.149 -51.699  1.00  0.00     0.048 A 
HETATM   29  C   UNL     1     -40.080  51.990 -52.399  1.00  0.00     0.105 A 
HETATM   30  C   UNL     1     -40.212  51.917 -53.766  1.00  0.00     0.105 A 
HETATM   31  O   UNL     1     -39.651  50.817 -51.860  1.00  0.00    -0.323 OA
HETATM   32  O   UNL     1     -39.886  50.692 -54.259  1.00  0.00    -0.323 OA
HETATM   33  C   UNL     1     -40.625  52.994 -54.514  1.00  0.00     0.040 A 
HETATM   34  C   UNL     1     -39.513  50.006 -53.046  1.00  0.00     0.352 A 
HETATM   35  C   UNL     1     -40.898  54.183 -53.835  1.00  0.00     0.012 A 
ENDBRANCH  26  27
ENDBRANCH   4  26
BRANCH  11  36
HETATM   36  C   UNL     1     -45.590  61.155 -55.129  1.00  0.00     0.252 C 
HETATM   37  N   UNL     1     -46.665  61.477 -54.323  1.00  0.00    -0.352 N 
HETATM   38  H   UNL     1     -46.849  60.954 -53.482  1.00  0.00     0.163 HD
HETATM   39  O   UNL     1     -45.312  61.796 -56.139  1.00  0.00    -0.268 OA
BRANCH  37  40
HETATM   40  C   UNL     1     -47.285  62.799 -54.410  1.00  0.00     0.084 C 
HETATM   41  C   UNL     1     -48.802  62.720 -54.211  1.00  0.00     0.025 C 
HETATM   42  C   UNL     1     -49.201  62.411 -52.769  1.00  0.00     0.002 C 
HETATM   43  C   UNL     1     -48.544  63.366 -51.778  1.00  0.00     0.000 C 
HETATM   44  C   UNL     1     -47.029  63.409 -51.951  1.00  0.00     0.002 C 
HETATM   45  C   UNL     1     -46.638  63.749 -53.390  1.00  0.00     0.025 C 
ENDBRANCH  37  40
ENDBRANCH  11  36
TORSDOF 7
ENDMDL
MODEL 6
REMARK VINA RESULT:      -9.6      2.450      3.439
REMARK  7 active torsions:
REMARK  status: ('A' for Active; 'I' for Inactive)
REMARK    1  A    between atoms: C_4  and  N_5 
REMARK       I    between atoms: N_5  and  C_6 
REMARK    2  A    between atoms: C_6  and  C_7 
REMARK    3  A    between atoms: C_7  and  N_8 
REMARK    4  A    between atoms: N_11  and  C_12 
REMARK    5  A    between atoms: C_12  and  C_13 
REMARK    6  A    between atoms: C_28  and  C_29 
REMARK       I    between atoms: C_29  and  N_30 
REMARK    7  A    between atoms: N_30  and  C_31 
ROOT
HETATM    1  N   UNL     1     -42.541  59.953 -52.746  1.00  0.00    -0.290 N 
HETATM    2  C   UNL     1     -42.003  59.483 -53.942  1.00  0.00     0.332 C 
HETATM    3  O   UNL     1     -40.879  58.971 -53.952  1.00  0.00    -0.246 OA
HETATM    4  N   UNL     1     -42.752  59.664 -55.094  1.00  0.00    -0.261 N 
HETATM    5  C   UNL     1     -43.935  60.391 -55.120  1.00  0.00     0.264 C 
HETATM    6  O   UNL     1     -44.419  60.903 -56.125  1.00  0.00    -0.267 OA
HETATM    7  C   UNL     1     -44.596  60.625 -53.829  1.00  0.00     0.059 A 
HETATM    8  C   UNL     1     -43.873  60.435 -52.653  1.00  0.00     0.056 A 
HETATM    9  C   UNL     1     -45.897  61.137 -53.805  1.00  0.00     0.020 A 
HETATM   10  C   UNL     1     -46.474  61.502 -52.593  1.00  0.00     0.018 A 
HETATM   11  C   UNL     1     -45.763  61.351 -51.393  1.00  0.00     0.034 A 
HETATM   12  C   UNL     1     -44.479  60.777 -51.429  1.00  0.00     0.048 A 
ENDROOT
BRANCH   1  13
HETATM   13  C   UNL     1     -41.615  60.091 -51.618  1.00  0.00     0.237 C 
BRANCH  13  14
HETATM   14  C   UNL     1     -41.104  58.771 -51.040  1.00  0.00     0.240 C 
HETATM   15  N   UNL     1     -42.105  57.824 -50.905  1.00  0.00    -0.325 N 
HETATM   16  H   UNL     1     -43.059  58.182 -50.958  1.00  0.00     0.169 HD
HETATM   17  O   UNL     1     -39.913  58.633 -50.769  1.00  0.00    -0.271 OA
BRANCH  15  18
HETATM   18  C   UNL     1     -41.964  56.430 -50.728  1.00  0.00     0.041 A 
HETATM   19  C   UNL     1     -41.339  55.887 -49.597  1.00  0.00     0.037 A 
HETATM   20  C   UNL     1     -41.113  54.507 -49.482  1.00  0.00    -0.060 A 
HETATM   21  C   UNL     1     -40.377  53.943 -48.301  1.00  0.00     0.048 C 
HETATM   22  C   UNL     1     -41.522  53.662 -50.514  1.00  0.00     0.007 A 
HETATM   23  C   UNL     1     -42.161  54.186 -51.637  1.00  0.00     0.009 A 
HETATM   24  C   UNL     1     -42.390  55.566 -51.759  1.00  0.00    -0.035 A 
HETATM   25  C   UNL     1     -43.077  56.069 -53.001  1.00  0.00     0.050 C 
ENDBRANCH  15  18
ENDBRANCH  13  14
ENDBRANCH   1  13
BRANCH   4  26
HETATM   26  C   UNL     1     -42.074  59.458 -56.371  1.00  0.00     0.175 C 
BRANCH  26  27
HETATM   27  C   UNL     1     -42.534  58.243 -57.151  1.00  0.00    -0.037 A 
HETATM   28  C   UNL     1     -43.044  58.375 -58.451  1.00  0.00     0.048 A 
HETATM   29  C   UNL     1     -43.498  57.235 -59.087  1.00  0.00     0.105 A 
HETATM   30  C   UNL     1     -43.448  55.998 -58.487  1.00  0.00     0.105 A 
HETATM   31  O   UNL     1     -44.043  57.182 -60.331  1.00  0.00    -0.323 OA
HETATM   32  O   UNL     1     -43.952  55.013 -59.278  1.00  0.00    -0.323 OA
HETATM   33  C   UNL     1     -42.942  55.825 -57.221  1.00  0.00     0.040 A 
HETATM   34  C   UNL     1     -44.345  55.775 -60.438  1.00  0.00     0.352 A 
HETATM   35  C   UNL     1     -42.485  56.960 -56.549  1.00  0.00     0.012 A 
ENDBRANCH  26  27
ENDBRANCH   4  26
BRANCH  11  36
HETATM   36  C   UNL     1     -46.391  61.926 -50.162  1.00  0.00     0.252 C 
HETATM   37  N   UNL     1     -45.986  61.447 -48.931  1.00  0.00    -0.352 N 
HETATM   38  H   UNL     1     -45.306  60.707 -48.869  1.00  0.00     0.163 HD
HETATM   39  O   UNL     1     -47.188  62.855 -50.274  1.00  0.00    -0.268 OA
BRANCH  37  40
HETATM   40  C   UNL     1     -46.179  62.251 -47.723  1.00  0.00     0.084 C 
HETATM   41  C   UNL     1     -47.284  61.670 -46.835  1.00  0.00     0.025 C 
HETATM   42  C   UNL     1     -46.875  60.370 -46.143  1.00  0.00     0.002 C 
HETATM   43  C   UNL     1     -45.555  60.515 -45.392  1.00  0.00     0.000 C 
HETATM   44  C   UNL     1     -44.447  61.052 -46.292  1.00  0.00     0.002 C 
HETATM   45  C   UNL     1     -44.852  62.368 -46.957  1.00  0.00     0.025 C 
ENDBRANCH  37  40
ENDBRANCH  11  36
TORSDOF 7
ENDMDL
MODEL 7
REMARK VINA RESULT:      -9.5      2.248      8.923
REMARK  7 active torsions:
REMARK  status: ('A' for Active; 'I' for Inactive)
REMARK    1  A    between atoms: C_4  and  N_5 
REMARK       I    between atoms: N_5  and  C_6 
REMARK    2  A    between atoms: C_6  and  C_7 
REMARK    3  A    between atoms: C_7  and  N_8 
REMARK    4  A    between atoms: N_11  and  C_12 
REMARK    5  A    between atoms: C_12  and  C_13 
REMARK    6  A    between atoms: C_28  and  C_29 
REMARK       I    between atoms: C_29  and  N_30 
REMARK    7  A    between atoms: N_30  and  C_31 
ROOT
HETATM    1  N   UNL     1     -44.746  58.998 -53.138  1.00  0.00    -0.290 N 
HETATM    2  C   UNL     1     -45.409  59.631 -52.090  1.00  0.00     0.332 C 
HETATM    3  O   UNL     1     -45.847  58.965 -51.146  1.00  0.00    -0.246 OA
HETATM    4  N   UNL     1     -45.592  61.002 -52.184  1.00  0.00    -0.261 N 
HETATM    5  C   UNL     1     -45.258  61.732 -53.317  1.00  0.00     0.264 C 
HETATM    6  O   UNL     1     -45.733  62.825 -53.610  1.00  0.00    -0.267 OA
HETATM    7  C   UNL     1     -44.331  61.097 -54.264  1.00  0.00     0.059 A 
HETATM    8  C   UNL     1     -44.115  59.723 -54.182  1.00  0.00     0.056 A 
HETATM    9  C   UNL     1     -43.772  61.859 -55.294  1.00  0.00     0.020 A 
HETATM   10  C   UNL     1     -43.014  61.236 -56.281  1.00  0.00     0.018 A 
HETATM   11  C   UNL     1     -42.800  59.851 -56.245  1.00  0.00     0.034 A 
HETATM   12  C   UNL     1     -43.319  59.108 -55.168  1.00  0.00     0.048 A 
ENDROOT
BRANCH   1  13
HETATM   13  C   UNL     1     -44.875  57.540 -53.212  1.00  0.00     0.237 C 
BRANCH  13  14
HETATM   14  C   UNL     1     -43.627  56.761 -52.794  1.00  0.00     0.240 C 
HETATM   15  N   UNL     1     -43.629  55.459 -53.263  1.00  0.00    -0.325 N 
HETATM   16  H   UNL     1     -44.530  55.111 -53.592  1.00  0.00     0.169 HD
HETATM   17  O   UNL     1     -42.749  57.308 -52.131  1.00  0.00    -0.271 OA
BRANCH  15  18
HETATM   18  C   UNL     1     -42.536  54.569 -53.363  1.00  0.00     0.041 A 
HETATM   19  C   UNL     1     -41.997  53.931 -52.237  1.00  0.00     0.037 A 
HETATM   20  C   UNL     1     -40.848  53.132 -52.334  1.00  0.00    -0.060 A 
HETATM   21  C   UNL     1     -40.234  52.513 -51.111  1.00  0.00     0.048 C 
HETATM   22  C   UNL     1     -40.235  52.968 -53.577  1.00  0.00     0.007 A 
HETATM   23  C   UNL     1     -40.771  53.582 -54.708  1.00  0.00     0.009 A 
HETATM   24  C   UNL     1     -41.921  54.384 -54.619  1.00  0.00    -0.035 A 
HETATM   25  C   UNL     1     -42.444  55.026 -55.876  1.00  0.00     0.050 C 
ENDBRANCH  15  18
ENDBRANCH  13  14
ENDBRANCH   1  13
BRANCH   4  26
HETATM   26  C   UNL     1     -46.539  61.615 -51.256  1.00  0.00     0.175 C 
BRANCH  26  27
HETATM   27  C   UNL     1     -45.912  62.268 -50.042  1.00  0.00    -0.037 A 
HETATM   28  C   UNL     1     -46.509  62.158 -48.777  1.00  0.00     0.048 A 
HETATM   29  C   UNL     1     -45.917  62.823 -47.721  1.00  0.00     0.105 A 
HETATM   30  C   UNL     1     -44.770  63.565 -47.879  1.00  0.00     0.105 A 
HETATM   31  O   UNL     1     -46.372  62.844 -46.440  1.00  0.00    -0.323 OA
HETATM   32  O   UNL     1     -44.359  64.144 -46.719  1.00  0.00    -0.323 OA
HETATM   33  C   UNL     1     -44.146  63.686 -49.098  1.00  0.00     0.040 A 
HETATM   34  C   UNL     1     -45.390  63.698 -45.815  1.00  0.00     0.352 A 
HETATM   35  C   UNL     1     -44.727  63.034 -50.186  1.00  0.00     0.012 A 
ENDBRANCH  26  27
ENDBRANCH   4  26
BRANCH  11  36
HETATM   36  C   UNL     1     -42.123  59.243 -57.434  1.00  0.00     0.252 C 
HETATM   37  N   UNL     1     -42.630  58.066 -57.950  1.00  0.00    -0.352 N 
HETATM   38  H   UNL     1     -43.419  57.615 -57.516  1.00  0.00     0.163 HD
HETATM   39  O   UNL     1     -41.188  59.841 -57.962  1.00  0.00    -0.268 OA
BRANCH  37  40
HETATM   40  C   UNL     1     -42.346  57.681 -59.333  1.00  0.00     0.084 C 
HETATM   41  C   UNL     1     -42.319  56.158 -59.496  1.00  0.00     0.025 C 
HETATM   42  C   UNL     1     -43.703  55.519 -59.394  1.00  0.00     0.002 C 
HETATM   43  C   UNL     1     -44.705  56.176 -60.339  1.00  0.00     0.000 C 
HETATM   44  C   UNL     1     -44.761  57.688 -60.143  1.00  0.00     0.002 C 
HETATM   45  C   UNL     1     -43.376  58.323 -60.276  1.00  0.00     0.025 C 
ENDBRANCH  37  40
ENDBRANCH  11  36
TORSDOF 7
ENDMDL
MODEL 8
REMARK VINA RESULT:      -9.1      3.334      8.720
REMARK  7 active torsions:
REMARK  status: ('A' for Active; 'I' for Inactive)
REMARK    1  A    between atoms: C_4  and  N_5 
REMARK       I    between atoms: N_5  and  C_6 
REMARK    2  A    between atoms: C_6  and  C_7 
REMARK    3  A    between atoms: C_7  and  N_8 
REMARK    4  A    between atoms: N_11  and  C_12 
REMARK    5  A    between atoms: C_12  and  C_13 
REMARK    6  A    between atoms: C_28  and  C_29 
REMARK       I    between atoms: C_29  and  N_30 
REMARK    7  A    between atoms: N_30  and  C_31 
ROOT
HETATM    1  N   UNL     1     -45.489  60.192 -54.463  1.00  0.00    -0.290 N 
HETATM    2  C   UNL     1     -46.230  61.368 -54.562  1.00  0.00     0.332 C 
HETATM    3  O   UNL     1     -46.407  61.892 -55.667  1.00  0.00    -0.246 OA
HETATM    4  N   UNL     1     -46.698  61.930 -53.385  1.00  0.00    -0.261 N 
HETATM    5  C   UNL     1     -46.357  61.445 -52.130  1.00  0.00     0.264 C 
HETATM    6  O   UNL     1     -46.408  62.097 -51.091  1.00  0.00    -0.267 OA
HETATM    7  C   UNL     1     -45.820  60.078 -52.070  1.00  0.00     0.059 A 
HETATM    8  C   UNL     1     -45.359  59.481 -53.241  1.00  0.00     0.056 A 
HETATM    9  C   UNL     1     -45.682  59.447 -50.831  1.00  0.00     0.020 A 
HETATM   10  C   UNL     1     -45.039  58.216 -50.751  1.00  0.00     0.018 A 
HETATM   11  C   UNL     1     -44.536  57.599 -51.906  1.00  0.00     0.034 A 
HETATM   12  C   UNL     1     -44.738  58.220 -53.153  1.00  0.00     0.048 A 
ENDROOT
BRANCH   1  13
HETATM   13  C   UNL     1     -44.703  59.809 -55.639  1.00  0.00     0.237 C 
BRANCH  13  14
HETATM   14  C   UNL     1     -45.401  58.837 -56.591  1.00  0.00     0.240 C 
HETATM   15  N   UNL     1     -44.662  58.588 -57.735  1.00  0.00    -0.325 N 
HETATM   16  H   UNL     1     -43.904  59.245 -57.921  1.00  0.00     0.169 HD
HETATM   17  O   UNL     1     -46.489  58.351 -56.293  1.00  0.00    -0.271 OA
BRANCH  15  18
HETATM   18  C   UNL     1     -44.816  57.527 -58.656  1.00  0.00     0.041 A 
HETATM   19  C   UNL     1     -45.887  57.482 -59.559  1.00  0.00     0.037 A 
HETATM   20  C   UNL     1     -46.087  56.373 -60.396  1.00  0.00    -0.060 A 
HETATM   21  C   UNL     1     -47.278  56.301 -61.307  1.00  0.00     0.048 C 
HETATM   22  C   UNL     1     -45.198  55.300 -60.328  1.00  0.00     0.007 A 
HETATM   23  C   UNL     1     -44.118  55.339 -59.447  1.00  0.00     0.009 A 
HETATM   24  C   UNL     1     -43.912  56.445 -58.606  1.00  0.00    -0.035 A 
HETATM   25  C   UNL     1     -42.732  56.423 -57.672  1.00  0.00     0.050 C 
ENDBRANCH  15  18
ENDBRANCH  13  14
ENDBRANCH   1  13
BRANCH   4  26
HETATM   26  C   UNL     1     -47.200  63.300 -53.452  1.00  0.00     0.175 C 
BRANCH  26  27
HETATM   27  C   UNL     1     -48.709  63.429 -53.446  1.00  0.00    -0.037 A 
HETATM   28  C   UNL     1     -49.444  63.205 -52.272  1.00  0.00     0.048 A 
HETATM   29  C   UNL     1     -50.821  63.285 -52.346  1.00  0.00     0.105 A 
HETATM   30  C   UNL     1     -51.471  63.585 -53.521  1.00  0.00     0.105 A 
HETATM   31  O   UNL     1     -51.687  63.074 -51.318  1.00  0.00    -0.323 OA
HETATM   32  O   UNL     1     -52.824  63.604 -53.379  1.00  0.00    -0.323 OA
HETATM   33  C   UNL     1     -50.787  63.826 -54.688  1.00  0.00     0.040 A 
HETATM   34  C   UNL     1     -52.953  63.260 -51.985  1.00  0.00     0.352 A 
HETATM   35  C   UNL     1     -49.394  63.743 -54.647  1.00  0.00     0.012 A 
ENDBRANCH  26  27
ENDBRANCH   4  26
BRANCH  11  36
HETATM   36  C   UNL     1     -43.710  56.366 -51.706  1.00  0.00     0.252 C 
HETATM   37  N   UNL     1     -43.003  55.866 -52.783  1.00  0.00    -0.352 N 
HETATM   38  H   UNL     1     -43.068  56.306 -53.686  1.00  0.00     0.163 HD
HETATM   39  O   UNL     1     -43.624  55.880 -50.582  1.00  0.00    -0.268 OA
BRANCH  37  40
HETATM   40  C   UNL     1     -41.847  54.996 -52.569  1.00  0.00     0.084 C 
HETATM   41  C   UNL     1     -42.088  53.595 -53.137  1.00  0.00     0.025 C 
HETATM   42  C   UNL     1     -42.082  53.557 -54.664  1.00  0.00     0.002 C 
HETATM   43  C   UNL     1     -40.827  54.201 -55.246  1.00  0.00     0.000 C 
HETATM   44  C   UNL     1     -40.614  55.614 -54.711  1.00  0.00     0.002 C 
HETATM   45  C   UNL     1     -40.591  55.637 -53.182  1.00  0.00     0.025 C 
ENDBRANCH  37  40
ENDBRANCH  11  36
TORSDOF 7
ENDMDL
MODEL 9
REMARK VINA RESULT:      -9.1      2.027      2.795
REMARK  7 active torsions:
REMARK  status: ('A' for Active; 'I' for Inactive)
REMARK    1  A    between atoms: C_4  and  N_5 
REMARK       I    between atoms: N_5  and  C_6 
REMARK    2  A    between atoms: C_6  and  C_7 
REMARK    3  A    between atoms: C_7  and  N_8 
REMARK    4  A    between atoms: N_11  and  C_12 
REMARK    5  A    between atoms: C_12  and  C_13 
REMARK    6  A    between atoms: C_28  and  C_29 
REMARK       I    between atoms: C_29  and  N_30 
REMARK    7  A    between atoms: N_30  and  C_31 
ROOT
HETATM    1  N   UNL     1     -42.558  59.040 -52.291  1.00  0.00    -0.290 N 
HETATM    2  C   UNL     1     -42.160  59.144 -53.621  1.00  0.00     0.332 C 
HETATM    3  O   UNL     1     -41.305  58.373 -54.070  1.00  0.00    -0.246 OA
HETATM    4  N   UNL     1     -42.718  60.163 -54.377  1.00  0.00    -0.261 N 
HETATM    5  C   UNL     1     -43.546  61.137 -53.837  1.00  0.00     0.264 C 
HETATM    6  O   UNL     1     -43.747  62.240 -54.337  1.00  0.00    -0.267 OA
HETATM    7  C   UNL     1     -44.152  60.842 -52.531  1.00  0.00     0.059 A 
HETATM    8  C   UNL     1     -43.622  59.813 -51.756  1.00  0.00     0.056 A 
HETATM    9  C   UNL     1     -45.172  61.665 -52.044  1.00  0.00     0.020 A 
HETATM   10  C   UNL     1     -45.647  61.484 -50.749  1.00  0.00     0.018 A 
HETATM   11  C   UNL     1     -45.115  60.476 -49.931  1.00  0.00     0.034 A 
HETATM   12  C   UNL     1     -44.133  59.618 -50.458  1.00  0.00     0.048 A 
ENDROOT
BRANCH   1  13
HETATM   13  C   UNL     1     -41.717  58.219 -51.414  1.00  0.00     0.237 C 
BRANCH  13  14
HETATM   14  C   UNL     1     -41.985  56.716 -51.488  1.00  0.00     0.240 C 
HETATM   15  N   UNL     1     -41.227  56.085 -52.459  1.00  0.00    -0.325 N 
HETATM   16  H   UNL     1     -40.796  56.701 -53.150  1.00  0.00     0.169 HD
HETATM   17  O   UNL     1     -42.785  56.190 -50.717  1.00  0.00    -0.271 OA
BRANCH  15  18
HETATM   18  C   UNL     1     -40.960  54.705 -52.594  1.00  0.00     0.041 A 
HETATM   19  C   UNL     1     -40.817  53.867 -51.479  1.00  0.00     0.037 A 
HETATM   20  C   UNL     1     -40.449  52.520 -51.623  1.00  0.00    -0.060 A 
HETATM   21  C   UNL     1     -40.225  51.651 -50.420  1.00  0.00     0.048 C 
HETATM   22  C   UNL     1     -40.227  52.008 -52.902  1.00  0.00     0.007 A 
HETATM   23  C   UNL     1     -40.383  52.825 -54.021  1.00  0.00     0.009 A 
HETATM   24  C   UNL     1     -40.750  54.174 -53.884  1.00  0.00    -0.035 A 
HETATM   25  C   UNL     1     -40.895  55.005 -55.131  1.00  0.00     0.050 C 
ENDBRANCH  15  18
ENDBRANCH  13  14
ENDBRANCH   1  13
BRANCH   4  26
HETATM   26  C   UNL     1     -42.088  60.465 -55.660  1.00  0.00     0.175 C 
BRANCH  26  27
HETATM   27  C   UNL     1     -42.773  59.861 -56.867  1.00  0.00    -0.037 A 
HETATM   28  C   UNL     1     -43.938  59.093 -56.724  1.00  0.00     0.048 A 
HETATM   29  C   UNL     1     -44.482  58.524 -57.859  1.00  0.00     0.105 A 
HETATM   30  C   UNL     1     -43.923  58.703 -59.103  1.00  0.00     0.105 A 
HETATM   31  O   UNL     1     -45.589  57.735 -57.901  1.00  0.00    -0.323 OA
HETATM   32  O   UNL     1     -44.607  58.052 -60.082  1.00  0.00    -0.323 OA
HETATM   33  C   UNL     1     -42.791  59.460 -59.288  1.00  0.00     0.040 A 
HETATM   34  C   UNL     1     -45.651  57.425 -59.309  1.00  0.00     0.352 A 
HETATM   35  C   UNL     1     -42.212  60.040 -58.158  1.00  0.00     0.012 A 
ENDBRANCH  26  27
ENDBRANCH   4  26
BRANCH  11  36
HETATM   36  C   UNL     1     -45.561  60.464 -48.501  1.00  0.00     0.252 C 
HETATM   37  N   UNL     1     -45.280  61.566 -47.716  1.00  0.00    -0.352 N 
HETATM   38  H   UNL     1     -44.761  62.343 -48.092  1.00  0.00     0.163 HD
HETATM   39  O   UNL     1     -46.225  59.517 -48.089  1.00  0.00    -0.268 OA
BRANCH  37  40
HETATM   40  C   UNL     1     -46.063  61.834 -46.510  1.00  0.00     0.084 C 
HETATM   41  C   UNL     1     -45.263  62.655 -45.494  1.00  0.00     0.025 C 
HETATM   42  C   UNL     1     -45.061  64.107 -45.924  1.00  0.00     0.002 C 
HETATM   43  C   UNL     1     -46.380  64.782 -46.292  1.00  0.00     0.000 C 
HETATM   44  C   UNL     1     -47.153  63.983 -47.336  1.00  0.00     0.002 C 
HETATM   45  C   UNL     1     -47.377  62.538 -46.885  1.00  0.00     0.025 C 
ENDBRANCH  37  40
ENDBRANCH  11  36
TORSDOF 7
ENDMDL
MODEL 10
REMARK VINA RESULT:      -9.0      2.915      8.661
REMARK  7 active torsions:
REMARK  status: ('A' for Active; 'I' for Inactive)
REMARK    1  A    between atoms: C_4  and  N_5 
REMARK       I    between atoms: N_5  and  C_6 
REMARK    2  A    between atoms: C_6  and  C_7 
REMARK    3  A    between atoms: C_7  and  N_8 
REMARK    4  A    between atoms: N_11  and  C_12 
REMARK    5  A    between atoms: C_12  and  C_13 
REMARK    6  A    between atoms: C_28  and  C_29 
REMARK       I    between atoms: C_29  and  N_30 
REMARK    7  A    between atoms: N_30  and  C_31 
ROOT
HETATM    1  N   UNL     1     -44.279  57.440 -52.128  1.00  0.00    -0.290 N 
HETATM    2  C   UNL     1     -43.331  56.569 -51.597  1.00  0.00     0.332 C 
HETATM    3  O   UNL     1     -43.610  55.886 -50.606  1.00  0.00    -0.246 OA
HETATM    4  N   UNL     1     -42.078  56.550 -52.189  1.00  0.00    -0.261 N 
HETATM    5  C   UNL     1     -41.703  57.436 -53.189  1.00  0.00     0.264 C 
HETATM    6  O   UNL     1     -40.543  57.724 -53.469  1.00  0.00    -0.267 OA
HETATM    7  C   UNL     1     -42.785  58.133 -53.898  1.00  0.00     0.059 A 
HETATM    8  C   UNL     1     -44.059  58.154 -53.335  1.00  0.00     0.056 A 
HETATM    9  C   UNL     1     -42.495  58.850 -55.062  1.00  0.00     0.020 A 
HETATM   10  C   UNL     1     -43.480  59.633 -55.655  1.00  0.00     0.018 A 
HETATM   11  C   UNL     1     -44.766  59.700 -55.098  1.00  0.00     0.034 A 
HETATM   12  C   UNL     1     -45.058  58.924 -53.961  1.00  0.00     0.048 A 
ENDROOT
BRANCH   1  13
HETATM   13  C   UNL     1     -45.452  57.722 -51.295  1.00  0.00     0.237 C 
BRANCH  13  14
HETATM   14  C   UNL     1     -45.573  59.172 -50.824  1.00  0.00     0.240 C 
HETATM   15  N   UNL     1     -44.447  59.609 -50.148  1.00  0.00    -0.325 N 
HETATM   16  H   UNL     1     -43.811  58.876 -49.832  1.00  0.00     0.169 HD
HETATM   17  O   UNL     1     -46.584  59.823 -51.076  1.00  0.00    -0.271 OA
BRANCH  15  18
HETATM   18  C   UNL     1     -44.064  60.939 -49.866  1.00  0.00     0.041 A 
HETATM   19  C   UNL     1     -44.725  61.710 -48.900  1.00  0.00     0.037 A 
HETATM   20  C   UNL     1     -44.403  63.062 -48.703  1.00  0.00    -0.060 A 
HETATM   21  C   UNL     1     -45.167  63.899 -47.718  1.00  0.00     0.048 C 
HETATM   22  C   UNL     1     -43.403  63.644 -49.482  1.00  0.00     0.007 A 
HETATM   23  C   UNL     1     -42.725  62.885 -50.434  1.00  0.00     0.009 A 
HETATM   24  C   UNL     1     -43.042  61.531 -50.638  1.00  0.00    -0.035 A 
HETATM   25  C   UNL     1     -42.278  60.769 -51.687  1.00  0.00     0.050 C 
ENDBRANCH  15  18
ENDBRANCH  13  14
ENDBRANCH   1  13
BRANCH   4  26
HETATM   26  C   UNL     1     -41.004  55.880 -51.460  1.00  0.00     0.175 C 
BRANCH  26  27
HETATM   27  C   UNL     1     -40.707  54.467 -51.914  1.00  0.00    -0.037 A 
HETATM   28  C   UNL     1     -40.424  53.456 -50.983  1.00  0.00     0.048 A 
HETATM   29  C   UNL     1     -40.107  52.201 -51.466  1.00  0.00     0.105 A 
HETATM   30  C   UNL     1     -40.076  51.926 -52.813  1.00  0.00     0.105 A 
HETATM   31  O   UNL     1     -39.784  51.117 -50.711  1.00  0.00    -0.323 OA
HETATM   32  O   UNL     1     -39.733  50.636 -53.075  1.00  0.00    -0.323 OA
HETATM   33  C   UNL     1     -40.361  52.884 -53.757  1.00  0.00     0.040 A 
HETATM   34  C   UNL     1     -39.531  50.135 -51.738  1.00  0.00     0.352 A 
HETATM   35  C   UNL     1     -40.675  54.164 -53.300  1.00  0.00     0.012 A 
ENDBRANCH  26  27
ENDBRANCH   4  26
BRANCH  11  36
HETATM   36  C   UNL     1     -45.708  60.697 -55.699  1.00  0.00     0.252 C 
HETATM   37  N   UNL     1     -46.107  60.519 -57.009  1.00  0.00    -0.352 N 
HETATM   38  H   UNL     1     -45.746  59.752 -57.554  1.00  0.00     0.163 HD
HETATM   39  O   UNL     1     -46.158  61.596 -54.993  1.00  0.00    -0.268 OA
BRANCH  37  40
HETATM   40  C   UNL     1     -47.340  61.135 -57.499  1.00  0.00     0.084 C 
HETATM   41  C   UNL     1     -47.047  62.265 -58.489  1.00  0.00     0.025 C 
HETATM   42  C   UNL     1     -46.531  61.762 -59.837  1.00  0.00     0.002 C 
HETATM   43  C   UNL     1     -47.446  60.700 -60.437  1.00  0.00     0.000 C 
HETATM   44  C   UNL     1     -47.701  59.554 -59.463  1.00  0.00     0.002 C 
HETATM   45  C   UNL     1     -48.246  60.064 -58.128  1.00  0.00     0.025 C 
ENDBRANCH  37  40
ENDBRANCH  11  36
TORSDOF 7
ENDMDL
