MODEL 1
REMARK VINA RESULT:      -7.9      0.000      0.000
REMARK  4 active torsions:
REMARK  status: ('A' for Active; 'I' for Inactive)
REMARK    1  A    between atoms: C_2  and  C_3 
REMARK    2  A    between atoms: C_7  and  N_8 
REMARK       I    between atoms: N_8  and  C_9 
REMARK    3  A    between atoms: C_9  and  C_10 
REMARK    4  A    between atoms: C_12  and  C_13 
ROOT
HETATM    1  N   UNL     1     -42.226  55.071 -56.147  1.00  0.00    -0.308 N 
HETATM    2  C   UNL     1     -42.771  54.768 -54.909  1.00  0.00     0.257 C 
HETATM    3  O   UNL     1     -43.925  55.022 -54.573  1.00  0.00    -0.267 OA
HETATM    4  H   UNL     1     -41.294  54.764 -56.392  1.00  0.00     0.170 HD
ENDROOT
BRANCH   2   5
HETATM    5  C   UNL     1     -41.871  54.049 -53.964  1.00  0.00     0.033 A 
HETATM    6  C   UNL     1     -41.833  54.354 -52.596  1.00  0.00     0.029 A 
HETATM    7  C   UNL     1     -40.944  53.679 -51.745  1.00  0.00    -0.023 A 
HETATM    8  C   UNL     1     -40.109  52.688 -52.277  1.00  0.00     0.012 A 
HETATM    9  C   UNL     1     -40.167  52.362 -53.633  1.00  0.00     0.002 A 
HETATM   10  C   UNL     1     -41.049  53.038 -54.475  1.00  0.00     0.017 A 
BRANCH   7  11
HETATM   11  C   UNL     1     -40.869  54.009 -50.333  1.00  0.00    -0.002 A 
HETATM   12  C   UNL     1     -41.446  55.122 -49.757  1.00  0.00     0.153 A 
HETATM   13  O   UNL     1     -41.199  55.156 -48.422  1.00  0.00    -0.334 OA
HETATM   14  C   UNL     1     -40.467  54.053 -48.128  1.00  0.00     0.142 A 
HETATM   15  C   UNL     1     -40.243  53.310 -49.264  1.00  0.00     0.038 A 
ENDBRANCH   7  11
ENDBRANCH   2   5
BRANCH   1  16
HETATM   16  C   UNL     1     -42.961  55.706 -57.127  1.00  0.00     0.126 A 
HETATM   17  N   UNL     1     -43.733  56.820 -56.922  1.00  0.00    -0.262 N 
HETATM   18  N   UNL     1     -44.373  57.242 -58.028  1.00  0.00    -0.178 NA
HETATM   19  H   UNL     1     -43.861  57.314 -56.041  1.00  0.00     0.191 HD
HETATM   20  C   UNL     1     -43.990  56.373 -58.972  1.00  0.00     0.058 A 
HETATM   21  C   UNL     1     -43.100  55.397 -58.458  1.00  0.00     0.079 A 
BRANCH  20  22
HETATM   22  C   UNL     1     -44.497  56.501 -60.368  1.00  0.00     0.056 C 
HETATM   23  C   UNL     1     -44.925  55.164 -60.955  1.00  0.00     0.011 C 
ENDBRANCH  20  22
ENDBRANCH   1  16
TORSDOF 4
ENDMDL
MODEL 2
REMARK VINA RESULT:      -7.8      4.141      5.573
REMARK  4 active torsions:
REMARK  status: ('A' for Active; 'I' for Inactive)
REMARK    1  A    between atoms: C_2  and  C_3 
REMARK    2  A    between atoms: C_7  and  N_8 
REMARK       I    between atoms: N_8  and  C_9 
REMARK    3  A    between atoms: C_9  and  C_10 
REMARK    4  A    between atoms: C_12  and  C_13 
ROOT
HETATM    1  N   UNL     1     -43.272  56.211 -52.855  1.00  0.00    -0.308 N 
HETATM    2  C   UNL     1     -42.068  55.782 -52.319  1.00  0.00     0.257 C 
HETATM    3  O   UNL     1     -41.609  56.155 -51.242  1.00  0.00    -0.267 OA
HETATM    4  H   UNL     1     -43.634  55.805 -53.707  1.00  0.00     0.170 HD
ENDROOT
BRANCH   2   5
HETATM    5  C   UNL     1     -41.328  54.767 -53.121  1.00  0.00     0.033 A 
HETATM    6  C   UNL     1     -41.024  53.496 -52.614  1.00  0.00     0.029 A 
HETATM    7  C   UNL     1     -40.294  52.582 -53.388  1.00  0.00    -0.023 A 
HETATM    8  C   UNL     1     -39.887  52.949 -54.677  1.00  0.00     0.012 A 
HETATM    9  C   UNL     1     -40.215  54.203 -55.196  1.00  0.00     0.002 A 
HETATM   10  C   UNL     1     -40.938  55.110 -54.420  1.00  0.00     0.017 A 
BRANCH   7  11
HETATM   11  C   UNL     1     -39.942  51.275 -52.863  1.00  0.00    -0.002 A 
HETATM   12  C   UNL     1     -39.758  50.145 -53.633  1.00  0.00     0.153 A 
HETATM   13  O   UNL     1     -39.439  49.078 -52.856  1.00  0.00    -0.334 OA
HETATM   14  C   UNL     1     -39.404  49.521 -51.574  1.00  0.00     0.142 A 
HETATM   15  C   UNL     1     -39.697  50.863 -51.523  1.00  0.00     0.038 A 
ENDBRANCH   7  11
ENDBRANCH   2   5
BRANCH   1  16
HETATM   16  C   UNL     1     -44.073  57.124 -52.199  1.00  0.00     0.126 A 
HETATM   17  N   UNL     1     -44.774  56.860 -51.051  1.00  0.00    -0.262 N 
HETATM   18  N   UNL     1     -45.501  57.905 -50.613  1.00  0.00    -0.178 NA
HETATM   19  H   UNL     1     -44.794  55.978 -50.543  1.00  0.00     0.191 HD
HETATM   20  C   UNL     1     -45.250  58.869 -51.508  1.00  0.00     0.058 A 
HETATM   21  C   UNL     1     -44.355  58.430 -52.516  1.00  0.00     0.079 A 
BRANCH  20  22
HETATM   22  C   UNL     1     -45.886  60.211 -51.373  1.00  0.00     0.056 C 
HETATM   23  C   UNL     1     -46.208  60.838 -52.721  1.00  0.00     0.011 C 
ENDBRANCH  20  22
ENDBRANCH   1  16
TORSDOF 4
ENDMDL
MODEL 3
REMARK VINA RESULT:      -7.7      2.123      3.320
REMARK  4 active torsions:
REMARK  status: ('A' for Active; 'I' for Inactive)
REMARK    1  A    between atoms: C_2  and  C_3 
REMARK    2  A    between atoms: C_7  and  N_8 
REMARK       I    between atoms: N_8  and  C_9 
REMARK    3  A    between atoms: C_9  and  C_10 
REMARK    4  A    between atoms: C_12  and  C_13 
ROOT
HETATM    1  N   UNL     1     -42.077  55.170 -56.304  1.00  0.00    -0.308 N 
HETATM    2  C   UNL     1     -41.868  55.844 -55.112  1.00  0.00     0.257 C 
HETATM    3  O   UNL     1     -42.092  57.040 -54.936  1.00  0.00    -0.267 OA
HETATM    4  H   UNL     1     -41.950  54.168 -56.362  1.00  0.00     0.170 HD
ENDROOT
BRANCH   2   5
HETATM    5  C   UNL     1     -41.372  55.015 -53.978  1.00  0.00     0.033 A 
HETATM    6  C   UNL     1     -40.959  53.686 -54.152  1.00  0.00     0.029 A 
HETATM    7  C   UNL     1     -40.533  52.928 -53.052  1.00  0.00    -0.023 A 
HETATM    8  C   UNL     1     -40.510  53.518 -51.782  1.00  0.00     0.012 A 
HETATM    9  C   UNL     1     -40.891  54.851 -51.611  1.00  0.00     0.002 A 
HETATM   10  C   UNL     1     -41.318  55.599 -52.707  1.00  0.00     0.017 A 
BRANCH   7  11
HETATM   11  C   UNL     1     -40.137  51.540 -53.212  1.00  0.00    -0.002 A 
HETATM   12  C   UNL     1     -40.201  50.840 -54.400  1.00  0.00     0.153 A 
HETATM   13  O   UNL     1     -39.765  49.565 -54.231  1.00  0.00    -0.334 OA
HETATM   14  C   UNL     1     -39.405  49.440 -52.929  1.00  0.00     0.142 A 
HETATM   15  C   UNL     1     -39.606  50.625 -52.261  1.00  0.00     0.038 A 
ENDBRANCH   7  11
ENDBRANCH   2   5
BRANCH   1  16
HETATM   16  C   UNL     1     -42.566  55.812 -57.424  1.00  0.00     0.126 A 
HETATM   17  N   UNL     1     -42.163  57.051 -57.849  1.00  0.00    -0.262 N 
HETATM   18  N   UNL     1     -42.802  57.474 -58.955  1.00  0.00    -0.178 NA
HETATM   19  H   UNL     1     -41.466  57.645 -57.405  1.00  0.00     0.191 HD
HETATM   20  C   UNL     1     -43.635  56.468 -59.250  1.00  0.00     0.058 A 
HETATM   21  C   UNL     1     -43.519  55.401 -58.324  1.00  0.00     0.079 A 
BRANCH  20  22
HETATM   22  C   UNL     1     -44.539  56.557 -60.432  1.00  0.00     0.056 C 
HETATM   23  C   UNL     1     -44.925  55.187 -60.970  1.00  0.00     0.011 C 
ENDBRANCH  20  22
ENDBRANCH   1  16
TORSDOF 4
ENDMDL
MODEL 4
REMARK VINA RESULT:      -7.5      4.382      6.245
REMARK  4 active torsions:
REMARK  status: ('A' for Active; 'I' for Inactive)
REMARK    1  A    between atoms: C_2  and  C_3 
REMARK    2  A    between atoms: C_7  and  N_8 
REMARK       I    between atoms: N_8  and  C_9 
REMARK    3  A    between atoms: C_9  and  C_10 
REMARK    4  A    between atoms: C_12  and  C_13 
ROOT
HETATM    1  N   UNL     1     -41.082  57.393 -52.404  1.00  0.00    -0.308 N 
HETATM    2  C   UNL     1     -41.348  56.103 -51.975  1.00  0.00     0.257 C 
HETATM    3  O   UNL     1     -41.905  55.819 -50.916  1.00  0.00    -0.267 OA
HETATM    4  H   UNL     1     -40.694  57.564 -53.322  1.00  0.00     0.170 HD
ENDROOT
BRANCH   2   5
HETATM    5  C   UNL     1     -40.948  55.014 -52.910  1.00  0.00     0.033 A 
HETATM    6  C   UNL     1     -40.673  53.713 -52.464  1.00  0.00     0.029 A 
HETATM    7  C   UNL     1     -40.264  52.726 -53.373  1.00  0.00    -0.023 A 
HETATM    8  C   UNL     1     -40.150  53.052 -54.731  1.00  0.00     0.012 A 
HETATM    9  C   UNL     1     -40.454  54.338 -55.181  1.00  0.00     0.002 A 
HETATM   10  C   UNL     1     -40.856  55.317 -54.273  1.00  0.00     0.017 A 
BRANCH   7  11
HETATM   11  C   UNL     1     -39.942  51.385 -52.920  1.00  0.00    -0.002 A 
HETATM   12  C   UNL     1     -39.839  50.284 -53.746  1.00  0.00     0.153 A 
HETATM   13  O   UNL     1     -39.529  49.172 -53.030  1.00  0.00    -0.334 OA
HETATM   14  C   UNL     1     -39.419  49.556 -51.733  1.00  0.00     0.142 A 
HETATM   15  C   UNL     1     -39.655  50.906 -51.612  1.00  0.00     0.038 A 
ENDBRANCH   7  11
ENDBRANCH   2   5
BRANCH   1  16
HETATM   16  C   UNL     1     -41.430  58.495 -51.649  1.00  0.00     0.126 A 
HETATM   17  N   UNL     1     -41.166  58.637 -50.311  1.00  0.00    -0.262 N 
HETATM   18  N   UNL     1     -41.624  59.790 -49.792  1.00  0.00    -0.178 NA
HETATM   19  H   UNL     1     -40.687  57.965 -49.715  1.00  0.00     0.191 HD
HETATM   20  C   UNL     1     -42.193  60.408 -50.834  1.00  0.00     0.058 A 
HETATM   21  C   UNL     1     -42.091  59.640 -52.021  1.00  0.00     0.079 A 
BRANCH  20  22
HETATM   22  C   UNL     1     -42.834  61.744 -50.664  1.00  0.00     0.056 C 
HETATM   23  C   UNL     1     -43.598  62.183 -51.904  1.00  0.00     0.011 C 
ENDBRANCH  20  22
ENDBRANCH   1  16
TORSDOF 4
ENDMDL
MODEL 5
REMARK VINA RESULT:      -7.2      2.970      8.380
REMARK  4 active torsions:
REMARK  status: ('A' for Active; 'I' for Inactive)
REMARK    1  A    between atoms: C_2  and  C_3 
REMARK    2  A    between atoms: C_7  and  N_8 
REMARK       I    between atoms: N_8  and  C_9 
REMARK    3  A    between atoms: C_9  and  C_10 
REMARK    4  A    between atoms: C_12  and  C_13 
ROOT
HETATM    1  N   UNL     1     -40.977  53.885 -54.813  1.00  0.00    -0.308 N 
HETATM    2  C   UNL     1     -42.081  54.695 -54.600  1.00  0.00     0.257 C 
HETATM    3  O   UNL     1     -42.761  54.696 -53.576  1.00  0.00    -0.267 OA
HETATM    4  H   UNL     1     -40.411  53.987 -55.644  1.00  0.00     0.170 HD
ENDROOT
BRANCH   2   5
HETATM    5  C   UNL     1     -42.410  55.643 -55.702  1.00  0.00     0.033 A 
HETATM    6  C   UNL     1     -43.007  55.217 -56.897  1.00  0.00     0.029 A 
HETATM    7  C   UNL     1     -43.266  56.135 -57.925  1.00  0.00    -0.023 A 
HETATM    8  C   UNL     1     -42.936  57.484 -57.736  1.00  0.00     0.012 A 
HETATM    9  C   UNL     1     -42.370  57.915 -56.535  1.00  0.00     0.002 A 
HETATM   10  C   UNL     1     -42.110  56.997 -55.518  1.00  0.00     0.017 A 
BRANCH   7  11
HETATM   11  C   UNL     1     -43.852  55.702 -59.181  1.00  0.00    -0.002 A 
HETATM   12  C   UNL     1     -43.888  56.464 -60.331  1.00  0.00     0.153 A 
HETATM   13  O   UNL     1     -44.502  55.788 -61.337  1.00  0.00    -0.334 OA
HETATM   14  C   UNL     1     -44.857  54.577 -60.839  1.00  0.00     0.142 A 
HETATM   15  C   UNL     1     -44.474  54.470 -59.522  1.00  0.00     0.038 A 
ENDBRANCH   7  11
ENDBRANCH   2   5
BRANCH   1  16
HETATM   16  C   UNL     1     -40.544  52.985 -53.859  1.00  0.00     0.126 A 
HETATM   17  N   UNL     1     -40.255  53.307 -52.559  1.00  0.00    -0.262 N 
HETATM   18  N   UNL     1     -39.830  52.261 -51.827  1.00  0.00    -0.178 NA
HETATM   19  H   UNL     1     -40.323  54.230 -52.135  1.00  0.00     0.191 HD
HETATM   20  C   UNL     1     -39.854  51.236 -52.688  1.00  0.00     0.058 A 
HETATM   21  C   UNL     1     -40.302  51.638 -53.972  1.00  0.00     0.079 A 
BRANCH  20  22
HETATM   22  C   UNL     1     -39.440  49.872 -52.252  1.00  0.00     0.056 C 
HETATM   23  C   UNL     1     -39.553  49.686 -50.746  1.00  0.00     0.011 C 
ENDBRANCH  20  22
ENDBRANCH   1  16
TORSDOF 4
ENDMDL
MODEL 6
REMARK VINA RESULT:      -7.2      4.141      5.724
REMARK  4 active torsions:
REMARK  status: ('A' for Active; 'I' for Inactive)
REMARK    1  A    between atoms: C_2  and  C_3 
REMARK    2  A    between atoms: C_7  and  N_8 
REMARK       I    between atoms: N_8  and  C_9 
REMARK    3  A    between atoms: C_9  and  C_10 
REMARK    4  A    between atoms: C_12  and  C_13 
ROOT
HETATM    1  N   UNL     1     -43.115  56.367 -51.774  1.00  0.00    -0.308 N 
HETATM    2  C   UNL     1     -42.094  55.900 -52.588  1.00  0.00     0.257 C 
HETATM    3  O   UNL     1     -41.811  56.363 -53.690  1.00  0.00    -0.267 OA
HETATM    4  H   UNL     1     -43.246  55.996 -50.843  1.00  0.00     0.170 HD
ENDROOT
BRANCH   2   5
HETATM    5  C   UNL     1     -41.283  54.781 -52.030  1.00  0.00     0.033 A 
HETATM    6  C   UNL     1     -41.002  53.625 -52.772  1.00  0.00     0.029 A 
HETATM    7  C   UNL     1     -40.265  52.578 -52.197  1.00  0.00    -0.023 A 
HETATM    8  C   UNL     1     -39.802  52.710 -50.882  1.00  0.00     0.012 A 
HETATM    9  C   UNL     1     -40.055  53.873 -50.152  1.00  0.00     0.002 A 
HETATM   10  C   UNL     1     -40.791  54.909 -50.726  1.00  0.00     0.017 A 
BRANCH   7  11
HETATM   11  C   UNL     1     -39.996  51.360 -52.941  1.00  0.00    -0.002 A 
HETATM   12  C   UNL     1     -39.563  50.178 -52.377  1.00  0.00     0.153 A 
HETATM   13  O   UNL     1     -39.398  49.222 -53.327  1.00  0.00    -0.334 OA
HETATM   14  C   UNL     1     -39.737  49.785 -54.515  1.00  0.00     0.142 A 
HETATM   15  C   UNL     1     -40.120  51.093 -54.332  1.00  0.00     0.038 A 
ENDBRANCH   7  11
ENDBRANCH   2   5
BRANCH   1  16
HETATM   16  C   UNL     1     -43.921  57.421 -52.155  1.00  0.00     0.126 A 
HETATM   17  N   UNL     1     -44.312  57.674 -53.444  1.00  0.00    -0.262 N 
HETATM   18  N   UNL     1     -45.080  58.773 -53.567  1.00  0.00    -0.178 NA
HETATM   19  H   UNL     1     -44.067  57.130 -54.269  1.00  0.00     0.191 HD
HETATM   20  C   UNL     1     -45.187  59.231 -52.313  1.00  0.00     0.058 A 
HETATM   21  C   UNL     1     -44.485  58.413 -51.393  1.00  0.00     0.079 A 
BRANCH  20  22
HETATM   22  C   UNL     1     -45.975  60.464 -52.023  1.00  0.00     0.056 C 
HETATM   23  C   UNL     1     -45.965  60.823 -50.545  1.00  0.00     0.011 C 
ENDBRANCH  20  22
ENDBRANCH   1  16
TORSDOF 4
ENDMDL
MODEL 7
REMARK VINA RESULT:      -7.0      2.584      3.982
REMARK  4 active torsions:
REMARK  status: ('A' for Active; 'I' for Inactive)
REMARK    1  A    between atoms: C_2  and  C_3 
REMARK    2  A    between atoms: C_7  and  N_8 
REMARK       I    between atoms: N_8  and  C_9 
REMARK    3  A    between atoms: C_9  and  C_10 
REMARK    4  A    between atoms: C_12  and  C_13 
ROOT
HETATM    1  N   UNL     1     -42.260  55.844 -54.298  1.00  0.00    -0.308 N 
HETATM    2  C   UNL     1     -41.797  56.079 -53.014  1.00  0.00     0.257 C 
HETATM    3  O   UNL     1     -41.910  57.146 -52.413  1.00  0.00    -0.267 OA
HETATM    4  H   UNL     1     -42.208  54.921 -54.708  1.00  0.00     0.170 HD
ENDROOT
BRANCH   2   5
HETATM    5  C   UNL     1     -41.156  54.918 -52.335  1.00  0.00     0.033 A 
HETATM    6  C   UNL     1     -40.854  53.731 -53.017  1.00  0.00     0.029 A 
HETATM    7  C   UNL     1     -40.285  52.646 -52.333  1.00  0.00    -0.023 A 
HETATM    8  C   UNL     1     -40.008  52.771 -50.966  1.00  0.00     0.012 A 
HETATM    9  C   UNL     1     -40.279  53.962 -50.291  1.00  0.00     0.002 A 
HETATM   10  C   UNL     1     -40.849  55.036 -50.975  1.00  0.00     0.017 A 
BRANCH   7  11
HETATM   11  C   UNL     1     -40.000  51.399 -53.020  1.00  0.00    -0.002 A 
HETATM   12  C   UNL     1     -39.551  50.250 -52.401  1.00  0.00     0.153 A 
HETATM   13  O   UNL     1     -39.373  49.253 -53.306  1.00  0.00    -0.334 OA
HETATM   14  C   UNL     1     -39.719  49.755 -54.518  1.00  0.00     0.142 A 
HETATM   15  C   UNL     1     -40.118  51.066 -54.397  1.00  0.00     0.038 A 
ENDBRANCH   7  11
ENDBRANCH   2   5
BRANCH   1  16
HETATM   16  C   UNL     1     -42.903  56.825 -55.028  1.00  0.00     0.126 A 
HETATM   17  N   UNL     1     -43.949  57.579 -54.565  1.00  0.00    -0.262 N 
HETATM   18  N   UNL     1     -44.422  58.455 -55.470  1.00  0.00    -0.178 NA
HETATM   19  H   UNL     1     -44.378  57.519 -53.644  1.00  0.00     0.191 HD
HETATM   20  C   UNL     1     -43.647  58.258 -56.544  1.00  0.00     0.058 A 
HETATM   21  C   UNL     1     -42.676  57.251 -56.313  1.00  0.00     0.079 A 
BRANCH  20  22
HETATM   22  C   UNL     1     -43.860  59.052 -57.788  1.00  0.00     0.056 C 
HETATM   23  C   UNL     1     -45.026  58.531 -58.615  1.00  0.00     0.011 C 
ENDBRANCH  20  22
ENDBRANCH   1  16
TORSDOF 4
ENDMDL
MODEL 8
REMARK VINA RESULT:      -6.8     15.065     16.731
REMARK  4 active torsions:
REMARK  status: ('A' for Active; 'I' for Inactive)
REMARK    1  A    between atoms: C_2  and  C_3 
REMARK    2  A    between atoms: C_7  and  N_8 
REMARK       I    between atoms: N_8  and  C_9 
REMARK    3  A    between atoms: C_9  and  C_10 
REMARK    4  A    between atoms: C_12  and  C_13 
ROOT
HETATM    1  N   UNL     1     -37.173  39.543 -59.456  1.00  0.00    -0.308 N 
HETATM    2  C   UNL     1     -36.977  40.894 -59.217  1.00  0.00     0.257 C 
HETATM    3  O   UNL     1     -37.233  41.790 -60.018  1.00  0.00    -0.267 OA
HETATM    4  H   UNL     1     -37.018  38.860 -58.727  1.00  0.00     0.170 HD
ENDROOT
BRANCH   2   5
HETATM    5  C   UNL     1     -36.452  41.242 -57.866  1.00  0.00     0.033 A 
HETATM    6  C   UNL     1     -35.198  40.804 -57.419  1.00  0.00     0.029 A 
HETATM    7  C   UNL     1     -34.756  41.123 -56.127  1.00  0.00    -0.023 A 
HETATM    8  C   UNL     1     -35.577  41.897 -55.296  1.00  0.00     0.012 A 
HETATM    9  C   UNL     1     -36.813  42.361 -55.750  1.00  0.00     0.002 A 
HETATM   10  C   UNL     1     -37.249  42.037 -57.035  1.00  0.00     0.017 A 
BRANCH   7  11
HETATM   11  C   UNL     1     -33.475  40.646 -55.638  1.00  0.00    -0.002 A 
HETATM   12  C   UNL     1     -32.383  40.378 -56.437  1.00  0.00     0.153 A 
HETATM   13  O   UNL     1     -31.334  39.945 -55.691  1.00  0.00    -0.334 OA
HETATM   14  C   UNL     1     -31.745  39.942 -54.397  1.00  0.00     0.142 A 
HETATM   15  C   UNL     1     -33.049  40.371 -54.309  1.00  0.00     0.038 A 
ENDBRANCH   7  11
ENDBRANCH   2   5
BRANCH   1  16
HETATM   16  C   UNL     1     -37.684  39.085 -60.654  1.00  0.00     0.126 A 
HETATM   17  N   UNL     1     -37.083  39.259 -61.873  1.00  0.00    -0.262 N 
HETATM   18  N   UNL     1     -37.786  38.742 -62.898  1.00  0.00    -0.178 NA
HETATM   19  H   UNL     1     -36.201  39.735 -62.051  1.00  0.00     0.191 HD
HETATM   20  C   UNL     1     -38.869  38.215 -62.311  1.00  0.00     0.058 A 
HETATM   21  C   UNL     1     -38.846  38.398 -60.905  1.00  0.00     0.079 A 
BRANCH  20  22
HETATM   22  C   UNL     1     -39.917  37.537 -63.127  1.00  0.00     0.056 C 
HETATM   23  C   UNL     1     -41.319  38.015 -62.781  1.00  0.00     0.011 C 
ENDBRANCH  20  22
ENDBRANCH   1  16
TORSDOF 4
ENDMDL
MODEL 9
REMARK VINA RESULT:      -6.6      3.134      8.516
REMARK  4 active torsions:
REMARK  status: ('A' for Active; 'I' for Inactive)
REMARK    1  A    between atoms: C_2  and  C_3 
REMARK    2  A    between atoms: C_7  and  N_8 
REMARK       I    between atoms: N_8  and  C_9 
REMARK    3  A    between atoms: C_9  and  C_10 
REMARK    4  A    between atoms: C_12  and  C_13 
ROOT
HETATM    1  N   UNL     1     -41.436  55.185 -55.993  1.00  0.00    -0.308 N 
HETATM    2  C   UNL     1     -42.582  55.916 -56.262  1.00  0.00     0.257 C 
HETATM    3  O   UNL     1     -43.428  56.223 -55.424  1.00  0.00    -0.267 OA
HETATM    4  H   UNL     1     -40.738  55.034 -56.709  1.00  0.00     0.170 HD
ENDROOT
BRANCH   2   5
HETATM    5  C   UNL     1     -42.741  56.377 -57.670  1.00  0.00     0.033 A 
HETATM    6  C   UNL     1     -42.332  57.652 -58.086  1.00  0.00     0.029 A 
HETATM    7  C   UNL     1     -42.533  58.061 -59.413  1.00  0.00    -0.023 A 
HETATM    8  C   UNL     1     -43.131  57.174 -60.318  1.00  0.00     0.012 A 
HETATM    9  C   UNL     1     -43.510  55.893 -59.914  1.00  0.00     0.002 A 
HETATM   10  C   UNL     1     -43.312  55.493 -58.592  1.00  0.00     0.017 A 
BRANCH   7  11
HETATM   11  C   UNL     1     -42.147  59.390 -59.849  1.00  0.00    -0.002 A 
HETATM   12  C   UNL     1     -41.858  60.440 -59.001  1.00  0.00     0.153 A 
HETATM   13  O   UNL     1     -41.533  61.554 -59.706  1.00  0.00    -0.334 OA
HETATM   14  C   UNL     1     -41.602  61.223 -61.020  1.00  0.00     0.142 A 
HETATM   15  C   UNL     1     -41.967  59.905 -61.163  1.00  0.00     0.038 A 
ENDBRANCH   7  11
ENDBRANCH   2   5
BRANCH   1  16
HETATM   16  C   UNL     1     -41.150  54.725 -54.723  1.00  0.00     0.126 A 
HETATM   17  N   UNL     1     -41.356  55.441 -53.572  1.00  0.00    -0.262 N 
HETATM   18  N   UNL     1     -40.978  54.788 -52.458  1.00  0.00    -0.178 NA
HETATM   19  H   UNL     1     -41.740  56.381 -53.505  1.00  0.00     0.191 HD
HETATM   20  C   UNL     1     -40.521  53.614 -52.913  1.00  0.00     0.058 A 
HETATM   21  C   UNL     1     -40.616  53.525 -54.325  1.00  0.00     0.079 A 
BRANCH  20  22
HETATM   22  C   UNL     1     -39.996  52.589 -51.967  1.00  0.00     0.056 C 
HETATM   23  C   UNL     1     -39.442  51.367 -52.684  1.00  0.00     0.011 C 
ENDBRANCH  20  22
ENDBRANCH   1  16
TORSDOF 4
ENDMDL
MODEL 10
REMARK VINA RESULT:      -6.6     14.714     17.572
REMARK  4 active torsions:
REMARK  status: ('A' for Active; 'I' for Inactive)
REMARK    1  A    between atoms: C_2  and  C_3 
REMARK    2  A    between atoms: C_7  and  N_8 
REMARK       I    between atoms: N_8  and  C_9 
REMARK    3  A    between atoms: C_9  and  C_10 
REMARK    4  A    between atoms: C_12  and  C_13 
ROOT
HETATM    1  N   UNL     1     -35.598  41.180 -55.401  1.00  0.00    -0.308 N 
HETATM    2  C   UNL     1     -36.936  41.176 -55.760  1.00  0.00     0.257 C 
HETATM    3  O   UNL     1     -37.872  41.257 -54.967  1.00  0.00    -0.267 OA
HETATM    4  H   UNL     1     -34.872  41.192 -56.106  1.00  0.00     0.170 HD
ENDROOT
BRANCH   2   5
HETATM    5  C   UNL     1     -37.215  41.108 -57.222  1.00  0.00     0.033 A 
HETATM    6  C   UNL     1     -37.757  39.963 -57.823  1.00  0.00     0.029 A 
HETATM    7  C   UNL     1     -37.970  39.925 -59.209  1.00  0.00    -0.023 A 
HETATM    8  C   UNL     1     -37.649  41.049 -59.981  1.00  0.00     0.012 A 
HETATM    9  C   UNL     1     -37.137  42.201 -59.380  1.00  0.00     0.002 A 
HETATM   10  C   UNL     1     -36.924  42.232 -58.002  1.00  0.00     0.017 A 
BRANCH   7  11
HETATM   11  C   UNL     1     -38.498  38.734 -59.850  1.00  0.00    -0.002 A 
HETATM   12  C   UNL     1     -39.052  37.664 -59.177  1.00  0.00     0.153 A 
HETATM   13  O   UNL     1     -39.453  36.702 -60.049  1.00  0.00    -0.334 OA
HETATM   14  C   UNL     1     -39.167  37.156 -61.295  1.00  0.00     0.142 A 
HETATM   15  C   UNL     1     -38.587  38.402 -61.230  1.00  0.00     0.038 A 
ENDBRANCH   7  11
ENDBRANCH   2   5
BRANCH   1  16
HETATM   16  C   UNL     1     -35.200  41.273 -54.082  1.00  0.00     0.126 A 
HETATM   17  N   UNL     1     -35.511  42.314 -53.248  1.00  0.00    -0.262 N 
HETATM   18  N   UNL     1     -34.990  42.188 -52.013  1.00  0.00    -0.178 NA
HETATM   19  H   UNL     1     -36.065  43.135 -53.484  1.00  0.00     0.191 HD
HETATM   20  C   UNL     1     -34.330  41.024 -52.061  1.00  0.00     0.058 A 
HETATM   21  C   UNL     1     -34.438  40.410 -53.334  1.00  0.00     0.079 A 
BRANCH  20  22
HETATM   22  C   UNL     1     -33.598  40.520 -50.863  1.00  0.00     0.056 C 
HETATM   23  C   UNL     1     -32.114  40.324 -51.132  1.00  0.00     0.011 C 
ENDBRANCH  20  22
ENDBRANCH   1  16
TORSDOF 4
ENDMDL
