MODEL 1
REMARK VINA RESULT:      -9.3      0.000      0.000
REMARK  7 active torsions:
REMARK  status: ('A' for Active; 'I' for Inactive)
REMARK    1  A    between atoms: C_5  and  C_6 
REMARK       I    between atoms: C_6  and  N_7 
REMARK    2  A    between atoms: N_10  and  C_11 
REMARK    3  A    between atoms: C_14  and  N_15 
REMARK    4  A    between atoms: N_15  and  C_16 
REMARK    5  A    between atoms: C_16  and  N_17 
REMARK       I    between atoms: N_17  and  C_18 
REMARK    6  A    between atoms: C_18  and  C_19 
REMARK    7  A    between atoms: C_20  and  O_21 
ROOT
HETATM    1  C   UNL     1     -43.466  57.012 -56.705  1.00  0.00     0.030 A 
HETATM    2  C   UNL     1     -42.885  55.737 -56.703  1.00  0.00     0.031 A 
HETATM    3  C   UNL     1     -42.987  54.875 -55.602  1.00  0.00     0.032 A 
HETATM    4  C   UNL     1     -43.663  55.272 -54.454  1.00  0.00     0.034 A 
HETATM    5  C   UNL     1     -44.341  56.490 -54.474  1.00  0.00     0.032 A 
HETATM    6  C   UNL     1     -44.228  57.349 -55.577  1.00  0.00     0.031 A 
ENDROOT
BRANCH   4   7
HETATM    7  N   UNL     1     -43.712  54.507 -53.264  1.00  0.00    -0.333 N 
HETATM    8  H   UNL     1     -44.604  54.055 -53.099  1.00  0.00     0.168 HD
BRANCH   7   9
HETATM    9  C   UNL     1     -42.970  54.678 -52.086  1.00  0.00     0.179 C 
HETATM   10  S   UNL     1     -43.247  55.794 -50.870  1.00  0.00    -0.040 SA
BRANCH   9  11
HETATM   11  N   UNL     1     -41.944  53.720 -52.051  1.00  0.00    -0.299 N 
HETATM   12  C   UNL     1     -40.909  53.540 -52.966  1.00  0.00     0.260 C 
HETATM   13  O   UNL     1     -40.340  54.428 -53.587  1.00  0.00    -0.267 OA
HETATM   14  H   UNL     1     -42.139  52.935 -51.445  1.00  0.00     0.171 HD
BRANCH  12  15
HETATM   15  C   UNL     1     -40.415  52.149 -53.064  1.00  0.00     0.065 A 
HETATM   16  C   UNL     1     -39.907  51.482 -51.945  1.00  0.00     0.084 A 
HETATM   17  C   UNL     1     -39.422  50.179 -52.071  1.00  0.00     0.038 A 
HETATM   18  C   UNL     1     -39.410  49.558 -53.321  1.00  0.00     0.003 A 
HETATM   19  C   UNL     1     -39.899  50.229 -54.442  1.00  0.00     0.001 A 
HETATM   20  C   UNL     1     -40.404  51.525 -54.319  1.00  0.00     0.020 A 
BRANCH  16  21
HETATM   21  O   UNL     1     -39.978  52.043 -50.698  1.00  0.00    -0.355 OA
HETATM   22  C   UNL     1     -40.441  51.082 -49.745  1.00  0.00     0.210 C 
ENDBRANCH  16  21
ENDBRANCH  12  15
ENDBRANCH   9  11
ENDBRANCH   7   9
ENDBRANCH   4   7
BRANCH   1  23
HETATM   23  N   UNL     1     -43.240  57.950 -57.711  1.00  0.00    -0.378 N 
HETATM   24  C   UNL     1     -43.649  57.603 -59.088  1.00  0.00     0.143 C 
HETATM   25  C   UNL     1     -43.847  58.882 -59.924  1.00  0.00     0.146 C 
HETATM   26  N   UNL     1     -42.702  59.799 -59.859  1.00  0.00    -0.345 N 
HETATM   27  C   UNL     1     -42.626  60.770 -60.862  1.00  0.00     0.253 C 
HETATM   28  C   UNL     1     -42.224  60.068 -58.493  1.00  0.00     0.146 C 
HETATM   29  O   UNL     1     -43.443  60.865 -61.775  1.00  0.00    -0.267 OA
HETATM   30  C   UNL     1     -42.027  58.789 -57.662  1.00  0.00     0.143 C 
BRANCH  27  31
HETATM   31  C   UNL     1     -41.489  61.718 -60.849  1.00  0.00     0.032 A 
HETATM   32  C   UNL     1     -40.938  62.145 -59.637  1.00  0.00     0.017 A 
HETATM   33  C   UNL     1     -39.843  63.012 -59.641  1.00  0.00     0.007 A 
HETATM   34  C   UNL     1     -39.293  63.454 -60.851  1.00  0.00    -0.062 A 
HETATM   35  C   UNL     1     -38.089  64.351 -60.854  1.00  0.00     0.048 C 
HETATM   36  C   UNL     1     -39.831  62.991 -62.060  1.00  0.00     0.007 A 
HETATM   37  C   UNL     1     -40.925  62.122 -62.061  1.00  0.00     0.017 A 
ENDBRANCH  27  31
ENDBRANCH   1  23
TORSDOF 7
ENDMDL
MODEL 2
REMARK VINA RESULT:      -9.2      6.174     12.117
REMARK  7 active torsions:
REMARK  status: ('A' for Active; 'I' for Inactive)
REMARK    1  A    between atoms: C_5  and  C_6 
REMARK       I    between atoms: C_6  and  N_7 
REMARK    2  A    between atoms: N_10  and  C_11 
REMARK    3  A    between atoms: C_14  and  N_15 
REMARK    4  A    between atoms: N_15  and  C_16 
REMARK    5  A    between atoms: C_16  and  N_17 
REMARK       I    between atoms: N_17  and  C_18 
REMARK    6  A    between atoms: C_18  and  C_19 
REMARK    7  A    between atoms: C_20  and  O_21 
ROOT
HETATM    1  C   UNL     1     -44.472  58.357 -52.237  1.00  0.00     0.030 A 
HETATM    2  C   UNL     1     -45.241  58.968 -51.238  1.00  0.00     0.031 A 
HETATM    3  C   UNL     1     -46.058  60.076 -51.503  1.00  0.00     0.032 A 
HETATM    4  C   UNL     1     -46.116  60.623 -52.780  1.00  0.00     0.034 A 
HETATM    5  C   UNL     1     -45.445  59.966 -53.812  1.00  0.00     0.032 A 
HETATM    6  C   UNL     1     -44.625  58.862 -53.536  1.00  0.00     0.031 A 
ENDROOT
BRANCH   4   7
HETATM    7  N   UNL     1     -46.825  61.806 -53.100  1.00  0.00    -0.333 N 
HETATM    8  H   UNL     1     -46.261  62.517 -53.551  1.00  0.00     0.168 HD
BRANCH   7   9
HETATM    9  C   UNL     1     -47.961  62.338 -52.474  1.00  0.00     0.179 C 
HETATM   10  S   UNL     1     -48.000  63.366 -51.153  1.00  0.00    -0.040 SA
BRANCH   9  11
HETATM   11  N   UNL     1     -49.106  61.899 -53.158  1.00  0.00    -0.299 N 
HETATM   12  C   UNL     1     -49.561  62.301 -54.411  1.00  0.00     0.260 C 
HETATM   13  O   UNL     1     -48.856  62.606 -55.365  1.00  0.00    -0.267 OA
HETATM   14  H   UNL     1     -49.790  61.450 -52.563  1.00  0.00     0.171 HD
BRANCH  12  15
HETATM   15  C   UNL     1     -51.027  62.217 -54.586  1.00  0.00     0.065 A 
HETATM   16  C   UNL     1     -51.900  62.795 -53.658  1.00  0.00     0.084 A 
HETATM   17  C   UNL     1     -53.280  62.678 -53.834  1.00  0.00     0.038 A 
HETATM   18  C   UNL     1     -53.787  61.953 -54.914  1.00  0.00     0.003 A 
HETATM   19  C   UNL     1     -52.917  61.359 -55.829  1.00  0.00     0.001 A 
HETATM   20  C   UNL     1     -51.536  61.490 -55.671  1.00  0.00     0.020 A 
BRANCH  16  21
HETATM   21  O   UNL     1     -51.428  63.572 -52.636  1.00  0.00    -0.355 OA
HETATM   22  C   UNL     1     -51.975  63.140 -51.387  1.00  0.00     0.210 C 
ENDBRANCH  16  21
ENDBRANCH  12  15
ENDBRANCH   9  11
ENDBRANCH   7   9
ENDBRANCH   4   7
BRANCH   1  23
HETATM   23  N   UNL     1     -43.528  57.367 -51.971  1.00  0.00    -0.378 N 
HETATM   24  C   UNL     1     -42.301  57.754 -51.243  1.00  0.00     0.143 C 
HETATM   25  C   UNL     1     -41.670  56.522 -50.567  1.00  0.00     0.146 C 
HETATM   26  N   UNL     1     -41.483  55.391 -51.484  1.00  0.00    -0.345 N 
HETATM   27  C   UNL     1     -40.587  54.400 -51.071  1.00  0.00     0.253 C 
HETATM   28  C   UNL     1     -42.673  55.065 -52.286  1.00  0.00     0.146 C 
HETATM   29  O   UNL     1     -39.958  54.451 -50.017  1.00  0.00    -0.267 OA
HETATM   30  C   UNL     1     -43.300  56.297 -52.961  1.00  0.00     0.143 C 
BRANCH  27  31
HETATM   31  C   UNL     1     -40.355  53.238 -51.960  1.00  0.00     0.032 A 
HETATM   32  C   UNL     1     -40.524  53.360 -53.342  1.00  0.00     0.017 A 
HETATM   33  C   UNL     1     -40.269  52.266 -54.171  1.00  0.00     0.007 A 
HETATM   34  C   UNL     1     -39.842  51.047 -53.625  1.00  0.00    -0.062 A 
HETATM   35  C   UNL     1     -39.525  49.885 -54.521  1.00  0.00     0.048 C 
HETATM   36  C   UNL     1     -39.642  50.947 -52.242  1.00  0.00     0.007 A 
HETATM   37  C   UNL     1     -39.895  52.040 -51.409  1.00  0.00     0.017 A 
ENDBRANCH  27  31
ENDBRANCH   1  23
TORSDOF 7
ENDMDL
MODEL 3
REMARK VINA RESULT:      -9.1      6.905     11.176
REMARK  7 active torsions:
REMARK  status: ('A' for Active; 'I' for Inactive)
REMARK    1  A    between atoms: C_5  and  C_6 
REMARK       I    between atoms: C_6  and  N_7 
REMARK    2  A    between atoms: N_10  and  C_11 
REMARK    3  A    between atoms: C_14  and  N_15 
REMARK    4  A    between atoms: N_15  and  C_16 
REMARK    5  A    between atoms: C_16  and  N_17 
REMARK       I    between atoms: N_17  and  C_18 
REMARK    6  A    between atoms: C_18  and  C_19 
REMARK    7  A    between atoms: C_20  and  O_21 
ROOT
HETATM    1  C   UNL     1     -43.719  58.765 -51.628  1.00  0.00     0.030 A 
HETATM    2  C   UNL     1     -43.322  60.108 -51.631  1.00  0.00     0.031 A 
HETATM    3  C   UNL     1     -44.186  61.140 -51.240  1.00  0.00     0.032 A 
HETATM    4  C   UNL     1     -45.491  60.860 -50.850  1.00  0.00     0.034 A 
HETATM    5  C   UNL     1     -45.874  59.525 -50.734  1.00  0.00     0.032 A 
HETATM    6  C   UNL     1     -45.005  58.498 -51.134  1.00  0.00     0.031 A 
ENDROOT
BRANCH   4   7
HETATM    7  N   UNL     1     -46.455  61.853 -50.552  1.00  0.00    -0.333 N 
HETATM    8  H   UNL     1     -47.099  62.046 -51.311  1.00  0.00     0.168 HD
BRANCH   7   9
HETATM    9  C   UNL     1     -46.357  62.919 -49.645  1.00  0.00     0.179 C 
HETATM   10  S   UNL     1     -46.544  64.549 -49.978  1.00  0.00    -0.040 SA
BRANCH   9  11
HETATM   11  N   UNL     1     -46.107  62.405 -48.363  1.00  0.00    -0.299 N 
HETATM   12  C   UNL     1     -46.557  62.898 -47.140  1.00  0.00     0.260 C 
HETATM   13  O   UNL     1     -47.639  63.435 -46.940  1.00  0.00    -0.267 OA
HETATM   14  H   UNL     1     -45.314  61.780 -48.321  1.00  0.00     0.171 HD
BRANCH  12  15
HETATM   15  C   UNL     1     -45.662  62.613 -45.998  1.00  0.00     0.065 A 
HETATM   16  C   UNL     1     -45.261  61.306 -45.703  1.00  0.00     0.084 A 
HETATM   17  C   UNL     1     -44.437  61.062 -44.603  1.00  0.00     0.038 A 
HETATM   18  C   UNL     1     -44.045  62.118 -43.778  1.00  0.00     0.003 A 
HETATM   19  C   UNL     1     -44.460  63.420 -44.060  1.00  0.00     0.001 A 
HETATM   20  C   UNL     1     -45.268  63.673 -45.170  1.00  0.00     0.020 A 
BRANCH  16  21
HETATM   21  O   UNL     1     -45.571  60.268 -46.539  1.00  0.00    -0.355 OA
HETATM   22  C   UNL     1     -46.557  59.422 -45.941  1.00  0.00     0.210 C 
ENDBRANCH  16  21
ENDBRANCH  12  15
ENDBRANCH   9  11
ENDBRANCH   7   9
ENDBRANCH   4   7
BRANCH   1  23
HETATM   23  N   UNL     1     -42.944  57.740 -52.168  1.00  0.00    -0.378 N 
HETATM   24  C   UNL     1     -43.005  57.520 -53.628  1.00  0.00     0.143 C 
HETATM   25  C   UNL     1     -41.740  56.782 -54.109  1.00  0.00     0.146 C 
HETATM   26  N   UNL     1     -41.451  55.567 -53.338  1.00  0.00    -0.345 N 
HETATM   27  C   UNL     1     -40.577  54.649 -53.930  1.00  0.00     0.253 C 
HETATM   28  C   UNL     1     -41.490  55.757 -51.879  1.00  0.00     0.146 C 
HETATM   29  O   UNL     1     -40.080  54.809 -55.042  1.00  0.00    -0.267 OA
HETATM   30  C   UNL     1     -42.754  56.494 -51.402  1.00  0.00     0.143 C 
BRANCH  27  31
HETATM   31  C   UNL     1     -40.254  53.403 -53.199  1.00  0.00     0.032 A 
HETATM   32  C   UNL     1     -40.237  53.387 -51.801  1.00  0.00     0.017 A 
HETATM   33  C   UNL     1     -39.963  52.196 -51.124  1.00  0.00     0.007 A 
HETATM   34  C   UNL     1     -39.711  51.017 -51.839  1.00  0.00    -0.062 A 
HETATM   35  C   UNL     1     -39.461  49.728 -51.110  1.00  0.00     0.048 C 
HETATM   36  C   UNL     1     -39.766  51.038 -53.239  1.00  0.00     0.007 A 
HETATM   37  C   UNL     1     -40.041  52.226 -53.919  1.00  0.00     0.017 A 
ENDBRANCH  27  31
ENDBRANCH   1  23
TORSDOF 7
ENDMDL
MODEL 4
REMARK VINA RESULT:      -9.1      6.462     12.411
REMARK  7 active torsions:
REMARK  status: ('A' for Active; 'I' for Inactive)
REMARK    1  A    between atoms: C_5  and  C_6 
REMARK       I    between atoms: C_6  and  N_7 
REMARK    2  A    between atoms: N_10  and  C_11 
REMARK    3  A    between atoms: C_14  and  N_15 
REMARK    4  A    between atoms: N_15  and  C_16 
REMARK    5  A    between atoms: C_16  and  N_17 
REMARK       I    between atoms: N_17  and  C_18 
REMARK    6  A    between atoms: C_18  and  C_19 
REMARK    7  A    between atoms: C_20  and  O_21 
ROOT
HETATM    1  C   UNL     1     -43.992  58.514 -52.120  1.00  0.00     0.030 A 
HETATM    2  C   UNL     1     -44.365  58.901 -53.413  1.00  0.00     0.031 A 
HETATM    3  C   UNL     1     -45.363  59.860 -53.643  1.00  0.00     0.032 A 
HETATM    4  C   UNL     1     -46.035  60.450 -52.579  1.00  0.00     0.034 A 
HETATM    5  C   UNL     1     -45.606  60.162 -51.284  1.00  0.00     0.032 A 
HETATM    6  C   UNL     1     -44.612  59.197 -51.063  1.00  0.00     0.031 A 
ENDROOT
BRANCH   4   7
HETATM    7  N   UNL     1     -47.128  61.338 -52.732  1.00  0.00    -0.333 N 
HETATM    8  H   UNL     1     -47.985  60.890 -53.037  1.00  0.00     0.168 HD
BRANCH   7   9
HETATM    9  C   UNL     1     -47.102  62.709 -53.025  1.00  0.00     0.179 C 
HETATM   10  S   UNL     1     -45.750  63.683 -53.191  1.00  0.00    -0.040 SA
BRANCH   9  11
HETATM   11  N   UNL     1     -48.420  63.161 -53.205  1.00  0.00    -0.299 N 
HETATM   12  C   UNL     1     -49.236  63.807 -52.279  1.00  0.00     0.260 C 
HETATM   13  O   UNL     1     -48.862  64.597 -51.423  1.00  0.00    -0.267 OA
HETATM   14  H   UNL     1     -48.892  62.739 -53.992  1.00  0.00     0.171 HD
BRANCH  12  15
HETATM   15  C   UNL     1     -50.684  63.573 -52.473  1.00  0.00     0.065 A 
HETATM   16  C   UNL     1     -51.299  63.829 -53.702  1.00  0.00     0.084 A 
HETATM   17  C   UNL     1     -52.672  63.625 -53.850  1.00  0.00     0.038 A 
HETATM   18  C   UNL     1     -53.435  63.202 -52.761  1.00  0.00     0.003 A 
HETATM   19  C   UNL     1     -52.826  62.964 -51.528  1.00  0.00     0.001 A 
HETATM   20  C   UNL     1     -51.450  63.147 -51.379  1.00  0.00     0.020 A 
BRANCH  16  21
HETATM   21  O   UNL     1     -50.560  64.172 -54.802  1.00  0.00    -0.355 OA
HETATM   22  C   UNL     1     -50.943  63.377 -55.928  1.00  0.00     0.210 C 
ENDBRANCH  16  21
ENDBRANCH  12  15
ENDBRANCH   9  11
ENDBRANCH   7   9
ENDBRANCH   4   7
BRANCH   1  23
HETATM   23  N   UNL     1     -43.130  57.450 -51.863  1.00  0.00    -0.378 N 
HETATM   24  C   UNL     1     -41.908  57.720 -51.075  1.00  0.00     0.143 C 
HETATM   25  C   UNL     1     -41.391  56.420 -50.431  1.00  0.00     0.146 C 
HETATM   26  N   UNL     1     -41.246  55.317 -51.389  1.00  0.00    -0.345 N 
HETATM   27  C   UNL     1     -40.438  54.249 -50.988  1.00  0.00     0.253 C 
HETATM   28  C   UNL     1     -42.423  55.108 -52.247  1.00  0.00     0.146 C 
HETATM   29  O   UNL     1     -39.848  54.213 -49.910  1.00  0.00    -0.267 OA
HETATM   30  C   UNL     1     -42.937  56.408 -52.890  1.00  0.00     0.143 C 
BRANCH  27  31
HETATM   31  C   UNL     1     -40.251  53.111 -51.917  1.00  0.00     0.032 A 
HETATM   32  C   UNL     1     -40.432  53.284 -53.292  1.00  0.00     0.017 A 
HETATM   33  C   UNL     1     -40.221  52.211 -54.160  1.00  0.00     0.007 A 
HETATM   34  C   UNL     1     -39.824  50.963 -53.660  1.00  0.00    -0.062 A 
HETATM   35  C   UNL     1     -39.554  49.822 -54.598  1.00  0.00     0.048 C 
HETATM   36  C   UNL     1     -39.611  50.811 -52.284  1.00  0.00     0.007 A 
HETATM   37  C   UNL     1     -39.821  51.883 -51.412  1.00  0.00     0.017 A 
ENDBRANCH  27  31
ENDBRANCH   1  23
TORSDOF 7
ENDMDL
MODEL 5
REMARK VINA RESULT:      -9.1      2.131      2.978
REMARK  7 active torsions:
REMARK  status: ('A' for Active; 'I' for Inactive)
REMARK    1  A    between atoms: C_5  and  C_6 
REMARK       I    between atoms: C_6  and  N_7 
REMARK    2  A    between atoms: N_10  and  C_11 
REMARK    3  A    between atoms: C_14  and  N_15 
REMARK    4  A    between atoms: N_15  and  C_16 
REMARK    5  A    between atoms: C_16  and  N_17 
REMARK       I    between atoms: N_17  and  C_18 
REMARK    6  A    between atoms: C_18  and  C_19 
REMARK    7  A    between atoms: C_20  and  O_21 
ROOT
HETATM    1  C   UNL     1     -42.584  55.890 -54.751  1.00  0.00     0.030 A 
HETATM    2  C   UNL     1     -41.685  56.547 -53.901  1.00  0.00     0.031 A 
HETATM    3  C   UNL     1     -41.573  56.220 -52.542  1.00  0.00     0.032 A 
HETATM    4  C   UNL     1     -42.377  55.232 -51.984  1.00  0.00     0.034 A 
HETATM    5  C   UNL     1     -43.199  54.491 -52.832  1.00  0.00     0.032 A 
HETATM    6  C   UNL     1     -43.309  54.829 -54.189  1.00  0.00     0.031 A 
ENDROOT
BRANCH   4   7
HETATM    7  N   UNL     1     -42.404  54.925 -50.602  1.00  0.00    -0.333 N 
HETATM    8  H   UNL     1     -42.964  55.563 -50.047  1.00  0.00     0.168 HD
BRANCH   7   9
HETATM    9  C   UNL     1     -41.436  54.255 -49.839  1.00  0.00     0.179 C 
HETATM   10  S   UNL     1     -40.865  54.687 -48.326  1.00  0.00    -0.040 SA
BRANCH   9  11
HETATM   11  N   UNL     1     -41.024  53.106 -50.533  1.00  0.00    -0.299 N 
HETATM   12  C   UNL     1     -39.810  52.885 -51.178  1.00  0.00     0.260 C 
HETATM   13  O   UNL     1     -38.719  53.310 -50.818  1.00  0.00    -0.267 OA
HETATM   14  H   UNL     1     -41.784  52.498 -50.803  1.00  0.00     0.171 HD
BRANCH  12  15
HETATM   15  C   UNL     1     -39.886  51.951 -52.322  1.00  0.00     0.065 A 
HETATM   16  C   UNL     1     -39.464  50.624 -52.200  1.00  0.00     0.084 A 
HETATM   17  C   UNL     1     -39.522  49.770 -53.304  1.00  0.00     0.038 A 
HETATM   18  C   UNL     1     -39.966  50.253 -54.536  1.00  0.00     0.003 A 
HETATM   19  C   UNL     1     -40.368  51.583 -54.664  1.00  0.00     0.001 A 
HETATM   20  C   UNL     1     -40.332  52.436 -53.559  1.00  0.00     0.020 A 
BRANCH  16  21
HETATM   21  O   UNL     1     -39.098  50.109 -50.986  1.00  0.00    -0.355 OA
HETATM   22  C   UNL     1     -40.238  49.572 -50.308  1.00  0.00     0.210 C 
ENDBRANCH  16  21
ENDBRANCH  12  15
ENDBRANCH   9  11
ENDBRANCH   7   9
ENDBRANCH   4   7
BRANCH   1  23
HETATM   23  N   UNL     1     -42.836  56.304 -56.058  1.00  0.00    -0.378 N 
HETATM   24  C   UNL     1     -42.752  55.294 -57.134  1.00  0.00     0.143 C 
HETATM   25  C   UNL     1     -43.566  55.751 -58.359  1.00  0.00     0.146 C 
HETATM   26  N   UNL     1     -43.238  57.113 -58.797  1.00  0.00    -0.345 N 
HETATM   27  C   UNL     1     -43.629  57.459 -60.095  1.00  0.00     0.253 C 
HETATM   28  C   UNL     1     -43.221  58.106 -57.711  1.00  0.00     0.146 C 
HETATM   29  O   UNL     1     -44.197  56.684 -60.861  1.00  0.00    -0.267 OA
HETATM   30  C   UNL     1     -42.405  57.647 -56.490  1.00  0.00     0.143 C 
BRANCH  27  31
HETATM   31  C   UNL     1     -43.318  58.819 -60.591  1.00  0.00     0.032 A 
HETATM   32  C   UNL     1     -44.339  59.756 -60.775  1.00  0.00     0.017 A 
HETATM   33  C   UNL     1     -44.027  61.045 -61.212  1.00  0.00     0.007 A 
HETATM   34  C   UNL     1     -42.697  61.406 -61.463  1.00  0.00    -0.062 A 
HETATM   35  C   UNL     1     -42.358  62.804 -61.890  1.00  0.00     0.048 C 
HETATM   36  C   UNL     1     -41.678  60.469 -61.241  1.00  0.00     0.007 A 
HETATM   37  C   UNL     1     -41.985  59.179 -60.803  1.00  0.00     0.017 A 
ENDBRANCH  27  31
ENDBRANCH   1  23
TORSDOF 7
ENDMDL
MODEL 6
REMARK VINA RESULT:      -9.0      6.396     11.395
REMARK  7 active torsions:
REMARK  status: ('A' for Active; 'I' for Inactive)
REMARK    1  A    between atoms: C_5  and  C_6 
REMARK       I    between atoms: C_6  and  N_7 
REMARK    2  A    between atoms: N_10  and  C_11 
REMARK    3  A    between atoms: C_14  and  N_15 
REMARK    4  A    between atoms: N_15  and  C_16 
REMARK    5  A    between atoms: C_16  and  N_17 
REMARK       I    between atoms: N_17  and  C_18 
REMARK    6  A    between atoms: C_18  and  C_19 
REMARK    7  A    between atoms: C_20  and  O_21 
ROOT
HETATM    1  C   UNL     1     -43.235  58.643 -51.508  1.00  0.00     0.030 A 
HETATM    2  C   UNL     1     -42.704  59.915 -51.256  1.00  0.00     0.031 A 
HETATM    3  C   UNL     1     -43.395  61.089 -51.587  1.00  0.00     0.032 A 
HETATM    4  C   UNL     1     -44.640  61.026 -52.203  1.00  0.00     0.034 A 
HETATM    5  C   UNL     1     -45.237  59.776 -52.363  1.00  0.00     0.032 A 
HETATM    6  C   UNL     1     -44.535  58.606 -52.035  1.00  0.00     0.031 A 
ENDROOT
BRANCH   4   7
HETATM    7  N   UNL     1     -45.347  62.160 -52.670  1.00  0.00    -0.333 N 
HETATM    8  H   UNL     1     -44.752  62.926 -52.964  1.00  0.00     0.168 HD
BRANCH   7   9
HETATM    9  C   UNL     1     -46.639  62.584 -52.327  1.00  0.00     0.179 C 
HETATM   10  S   UNL     1     -47.876  63.006 -53.374  1.00  0.00    -0.040 SA
BRANCH   9  11
HETATM   11  N   UNL     1     -46.768  62.569 -50.929  1.00  0.00    -0.299 N 
HETATM   12  C   UNL     1     -45.913  63.132 -49.984  1.00  0.00     0.260 C 
HETATM   13  O   UNL     1     -45.279  64.170 -50.121  1.00  0.00    -0.267 OA
HETATM   14  H   UNL     1     -47.400  61.859 -50.585  1.00  0.00     0.171 HD
BRANCH  12  15
HETATM   15  C   UNL     1     -45.904  62.438 -48.678  1.00  0.00     0.065 A 
HETATM   16  C   UNL     1     -47.006  62.498 -47.820  1.00  0.00     0.084 A 
HETATM   17  C   UNL     1     -46.961  61.856 -46.581  1.00  0.00     0.038 A 
HETATM   18  C   UNL     1     -45.801  61.188 -46.185  1.00  0.00     0.003 A 
HETATM   19  C   UNL     1     -44.693  61.144 -47.032  1.00  0.00     0.001 A 
HETATM   20  C   UNL     1     -44.740  61.766 -48.280  1.00  0.00     0.020 A 
BRANCH  16  21
HETATM   21  O   UNL     1     -48.178  63.082 -48.218  1.00  0.00    -0.355 OA
HETATM   22  C   UNL     1     -48.294  64.396 -47.665  1.00  0.00     0.210 C 
ENDBRANCH  16  21
ENDBRANCH  12  15
ENDBRANCH   9  11
ENDBRANCH   7   9
ENDBRANCH   4   7
BRANCH   1  23
HETATM   23  N   UNL     1     -42.505  57.468 -51.345  1.00  0.00    -0.378 N 
HETATM   24  C   UNL     1     -41.279  57.520 -50.521  1.00  0.00     0.143 C 
HETATM   25  C   UNL     1     -40.927  56.114 -50.000  1.00  0.00     0.146 C 
HETATM   26  N   UNL     1     -40.886  55.097 -51.058  1.00  0.00    -0.345 N 
HETATM   27  C   UNL     1     -40.213  53.910 -50.753  1.00  0.00     0.253 C 
HETATM   28  C   UNL     1     -42.060  55.107 -51.946  1.00  0.00     0.146 C 
HETATM   29  O   UNL     1     -39.656  53.704 -49.677  1.00  0.00    -0.267 OA
HETATM   30  C   UNL     1     -42.408  56.513 -52.466  1.00  0.00     0.143 C 
BRANCH  27  31
HETATM   31  C   UNL     1     -40.136  52.852 -51.786  1.00  0.00     0.032 A 
HETATM   32  C   UNL     1     -40.348  53.161 -53.133  1.00  0.00     0.017 A 
HETATM   33  C   UNL     1     -40.239  52.159 -54.099  1.00  0.00     0.007 A 
HETATM   34  C   UNL     1     -39.915  50.848 -53.728  1.00  0.00    -0.062 A 
HETATM   35  C   UNL     1     -39.755  49.781 -54.772  1.00  0.00     0.048 C 
HETATM   36  C   UNL     1     -39.670  50.557 -52.379  1.00  0.00     0.007 A 
HETATM   37  C   UNL     1     -39.777  51.556 -51.408  1.00  0.00     0.017 A 
ENDBRANCH  27  31
ENDBRANCH   1  23
TORSDOF 7
ENDMDL
MODEL 7
REMARK VINA RESULT:      -8.9      6.568      9.654
REMARK  7 active torsions:
REMARK  status: ('A' for Active; 'I' for Inactive)
REMARK    1  A    between atoms: C_5  and  C_6 
REMARK       I    between atoms: C_6  and  N_7 
REMARK    2  A    between atoms: N_10  and  C_11 
REMARK    3  A    between atoms: C_14  and  N_15 
REMARK    4  A    between atoms: N_15  and  C_16 
REMARK    5  A    between atoms: C_16  and  N_17 
REMARK       I    between atoms: N_17  and  C_18 
REMARK    6  A    between atoms: C_18  and  C_19 
REMARK    7  A    between atoms: C_20  and  O_21 
ROOT
HETATM    1  C   UNL     1     -43.509  60.213 -52.444  1.00  0.00     0.030 A 
HETATM    2  C   UNL     1     -42.132  59.968 -52.520  1.00  0.00     0.031 A 
HETATM    3  C   UNL     1     -41.546  59.360 -53.640  1.00  0.00     0.032 A 
HETATM    4  C   UNL     1     -42.328  58.959 -54.716  1.00  0.00     0.034 A 
HETATM    5  C   UNL     1     -43.683  59.291 -54.710  1.00  0.00     0.032 A 
HETATM    6  C   UNL     1     -44.262  59.893 -53.583  1.00  0.00     0.031 A 
ENDROOT
BRANCH   4   7
HETATM    7  N   UNL     1     -41.829  58.239 -55.828  1.00  0.00    -0.333 N 
HETATM    8  H   UNL     1     -41.337  58.811 -56.505  1.00  0.00     0.168 HD
BRANCH   7   9
HETATM    9  C   UNL     1     -42.315  57.046 -56.384  1.00  0.00     0.179 C 
HETATM   10  S   UNL     1     -43.425  56.889 -57.628  1.00  0.00    -0.040 SA
BRANCH   9  11
HETATM   11  N   UNL     1     -41.689  55.960 -55.752  1.00  0.00    -0.299 N 
HETATM   12  C   UNL     1     -42.277  54.789 -55.281  1.00  0.00     0.260 C 
HETATM   13  O   UNL     1     -43.228  54.210 -55.789  1.00  0.00    -0.267 OA
HETATM   14  H   UNL     1     -40.776  56.177 -55.378  1.00  0.00     0.171 HD
BRANCH  12  15
HETATM   15  C   UNL     1     -41.575  54.170 -54.135  1.00  0.00     0.065 A 
HETATM   16  C   UNL     1     -41.474  54.831 -52.907  1.00  0.00     0.084 A 
HETATM   17  C   UNL     1     -40.782  54.235 -51.850  1.00  0.00     0.038 A 
HETATM   18  C   UNL     1     -40.162  52.999 -52.032  1.00  0.00     0.003 A 
HETATM   19  C   UNL     1     -40.245  52.347 -53.264  1.00  0.00     0.001 A 
HETATM   20  C   UNL     1     -40.952  52.928 -54.318  1.00  0.00     0.020 A 
BRANCH  16  21
HETATM   21  O   UNL     1     -42.137  56.007 -52.683  1.00  0.00    -0.355 OA
HETATM   22  C   UNL     1     -43.314  55.775 -51.905  1.00  0.00     0.210 C 
ENDBRANCH  16  21
ENDBRANCH  12  15
ENDBRANCH   9  11
ENDBRANCH   7   9
ENDBRANCH   4   7
BRANCH   1  23
HETATM   23  N   UNL     1     -44.140  60.658 -51.283  1.00  0.00    -0.378 N 
HETATM   24  C   UNL     1     -45.287  61.579 -51.426  1.00  0.00     0.143 C 
HETATM   25  C   UNL     1     -46.175  61.525 -50.168  1.00  0.00     0.146 C 
HETATM   26  N   UNL     1     -45.422  61.705 -48.921  1.00  0.00    -0.345 N 
HETATM   27  C   UNL     1     -46.168  62.053 -47.790  1.00  0.00     0.253 C 
HETATM   28  C   UNL     1     -44.220  60.863 -48.817  1.00  0.00     0.146 C 
HETATM   29  O   UNL     1     -47.384  62.228 -47.809  1.00  0.00    -0.267 OA
HETATM   30  C   UNL     1     -43.335  60.920 -50.075  1.00  0.00     0.143 C 
BRANCH  27  31
HETATM   31  C   UNL     1     -45.459  62.254 -46.506  1.00  0.00     0.032 A 
HETATM   32  C   UNL     1     -45.302  63.539 -45.978  1.00  0.00     0.017 A 
HETATM   33  C   UNL     1     -44.661  63.710 -44.749  1.00  0.00     0.007 A 
HETATM   34  C   UNL     1     -44.178  62.601 -44.041  1.00  0.00    -0.062 A 
HETATM   35  C   UNL     1     -43.529  62.782 -42.700  1.00  0.00     0.048 C 
HETATM   36  C   UNL     1     -44.373  61.315 -44.563  1.00  0.00     0.007 A 
HETATM   37  C   UNL     1     -45.015  61.139 -45.791  1.00  0.00     0.017 A 
ENDBRANCH  27  31
ENDBRANCH   1  23
TORSDOF 7
ENDMDL
MODEL 8
REMARK VINA RESULT:      -8.9      2.618     10.707
REMARK  7 active torsions:
REMARK  status: ('A' for Active; 'I' for Inactive)
REMARK    1  A    between atoms: C_5  and  C_6 
REMARK       I    between atoms: C_6  and  N_7 
REMARK    2  A    between atoms: N_10  and  C_11 
REMARK    3  A    between atoms: C_14  and  N_15 
REMARK    4  A    between atoms: N_15  and  C_16 
REMARK    5  A    between atoms: C_16  and  N_17 
REMARK       I    between atoms: N_17  and  C_18 
REMARK    6  A    between atoms: C_18  and  C_19 
REMARK    7  A    between atoms: C_20  and  O_21 
ROOT
HETATM    1  C   UNL     1     -43.610  57.228 -57.704  1.00  0.00     0.030 A 
HETATM    2  C   UNL     1     -44.683  58.124 -57.627  1.00  0.00     0.031 A 
HETATM    3  C   UNL     1     -45.138  58.837 -58.745  1.00  0.00     0.032 A 
HETATM    4  C   UNL     1     -44.515  58.689 -59.979  1.00  0.00     0.034 A 
HETATM    5  C   UNL     1     -43.518  57.722 -60.105  1.00  0.00     0.032 A 
HETATM    6  C   UNL     1     -43.065  57.018 -58.979  1.00  0.00     0.031 A 
ENDROOT
BRANCH   4   7
HETATM    7  N   UNL     1     -44.841  59.455 -61.124  1.00  0.00    -0.333 N 
HETATM    8  H   UNL     1     -44.447  59.098 -61.987  1.00  0.00     0.168 HD
BRANCH   7   9
HETATM    9  C   UNL     1     -45.152  60.821 -61.199  1.00  0.00     0.179 C 
HETATM   10  S   UNL     1     -46.676  61.507 -61.307  1.00  0.00    -0.040 SA
BRANCH   9  11
HETATM   11  N   UNL     1     -43.962  61.564 -61.131  1.00  0.00    -0.299 N 
HETATM   12  C   UNL     1     -42.711  61.225 -61.640  1.00  0.00     0.260 C 
HETATM   13  O   UNL     1     -42.504  60.599 -62.672  1.00  0.00    -0.267 OA
HETATM   14  H   UNL     1     -43.970  62.281 -60.419  1.00  0.00     0.171 HD
BRANCH  12  15
HETATM   15  C   UNL     1     -41.571  61.801 -60.896  1.00  0.00     0.065 A 
HETATM   16  C   UNL     1     -41.464  61.652 -59.509  1.00  0.00     0.084 A 
HETATM   17  C   UNL     1     -40.390  62.229 -58.827  1.00  0.00     0.038 A 
HETATM   18  C   UNL     1     -39.447  62.985 -59.525  1.00  0.00     0.003 A 
HETATM   19  C   UNL     1     -39.564  63.152 -60.905  1.00  0.00     0.001 A 
HETATM   20  C   UNL     1     -40.623  62.560 -61.596  1.00  0.00     0.020 A 
BRANCH  16  21
HETATM   21  O   UNL     1     -42.333  60.853 -58.817  1.00  0.00    -0.355 OA
HETATM   22  C   UNL     1     -41.886  60.680 -57.469  1.00  0.00     0.210 C 
ENDBRANCH  16  21
ENDBRANCH  12  15
ENDBRANCH   9  11
ENDBRANCH   7   9
ENDBRANCH   4   7
BRANCH   1  23
HETATM   23  N   UNL     1     -43.031  56.636 -56.583  1.00  0.00    -0.378 N 
HETATM   24  C   UNL     1     -42.300  57.506 -55.637  1.00  0.00     0.143 C 
HETATM   25  C   UNL     1     -42.220  56.839 -54.251  1.00  0.00     0.146 C 
HETATM   26  N   UNL     1     -41.714  55.461 -54.300  1.00  0.00    -0.345 N 
HETATM   27  C   UNL     1     -41.250  54.927 -53.094  1.00  0.00     0.253 C 
HETATM   28  C   UNL     1     -42.369  54.616 -55.312  1.00  0.00     0.146 C 
HETATM   29  O   UNL     1     -41.231  55.555 -52.038  1.00  0.00    -0.267 OA
HETATM   30  C   UNL     1     -42.447  55.285 -56.695  1.00  0.00     0.143 C 
BRANCH  27  31
HETATM   31  C   UNL     1     -40.723  53.543 -53.086  1.00  0.00     0.032 A 
HETATM   32  C   UNL     1     -40.281  52.962 -51.895  1.00  0.00     0.017 A 
HETATM   33  C   UNL     1     -39.818  51.644 -51.896  1.00  0.00     0.007 A 
HETATM   34  C   UNL     1     -39.797  50.901 -53.084  1.00  0.00    -0.062 A 
HETATM   35  C   UNL     1     -39.341  49.471 -53.077  1.00  0.00     0.048 C 
HETATM   36  C   UNL     1     -40.277  51.483 -54.266  1.00  0.00     0.007 A 
HETATM   37  C   UNL     1     -40.742  52.800 -54.269  1.00  0.00     0.017 A 
ENDBRANCH  27  31
ENDBRANCH   1  23
TORSDOF 7
ENDMDL
MODEL 9
REMARK VINA RESULT:      -8.8      5.761     11.832
REMARK  7 active torsions:
REMARK  status: ('A' for Active; 'I' for Inactive)
REMARK    1  A    between atoms: C_5  and  C_6 
REMARK       I    between atoms: C_6  and  N_7 
REMARK    2  A    between atoms: N_10  and  C_11 
REMARK    3  A    between atoms: C_14  and  N_15 
REMARK    4  A    between atoms: N_15  and  C_16 
REMARK    5  A    between atoms: C_16  and  N_17 
REMARK       I    between atoms: N_17  and  C_18 
REMARK    6  A    between atoms: C_18  and  C_19 
REMARK    7  A    between atoms: C_20  and  O_21 
ROOT
HETATM    1  C   UNL     1     -44.107  58.424 -51.891  1.00  0.00     0.030 A 
HETATM    2  C   UNL     1     -44.350  58.979 -53.155  1.00  0.00     0.031 A 
HETATM    3  C   UNL     1     -45.391  59.891 -53.379  1.00  0.00     0.032 A 
HETATM    4  C   UNL     1     -46.240  60.263 -52.343  1.00  0.00     0.034 A 
HETATM    5  C   UNL     1     -45.950  59.811 -51.056  1.00  0.00     0.032 A 
HETATM    6  C   UNL     1     -44.910  58.893 -50.842  1.00  0.00     0.031 A 
ENDROOT
BRANCH   4   7
HETATM    7  N   UNL     1     -47.378  61.087 -52.514  1.00  0.00    -0.333 N 
HETATM    8  H   UNL     1     -48.261  60.592 -52.444  1.00  0.00     0.168 HD
BRANCH   7   9
HETATM    9  C   UNL     1     -47.488  62.284 -53.236  1.00  0.00     0.179 C 
HETATM   10  S   UNL     1     -46.592  63.682 -53.019  1.00  0.00    -0.040 SA
BRANCH   9  11
HETATM   11  N   UNL     1     -48.467  62.128 -54.231  1.00  0.00    -0.299 N 
HETATM   12  C   UNL     1     -49.787  62.569 -54.209  1.00  0.00     0.260 C 
HETATM   13  O   UNL     1     -50.190  63.600 -53.684  1.00  0.00    -0.267 OA
HETATM   14  H   UNL     1     -48.255  61.402 -54.901  1.00  0.00     0.171 HD
BRANCH  12  15
HETATM   15  C   UNL     1     -50.721  61.745 -55.006  1.00  0.00     0.065 A 
HETATM   16  C   UNL     1     -50.439  61.414 -56.335  1.00  0.00     0.084 A 
HETATM   17  C   UNL     1     -51.350  60.656 -57.074  1.00  0.00     0.038 A 
HETATM   18  C   UNL     1     -52.559  60.263 -56.496  1.00  0.00     0.003 A 
HETATM   19  C   UNL     1     -52.851  60.609 -55.176  1.00  0.00     0.001 A 
HETATM   20  C   UNL     1     -51.934  61.349 -54.426  1.00  0.00     0.020 A 
BRANCH  16  21
HETATM   21  O   UNL     1     -49.230  61.724 -56.897  1.00  0.00    -0.355 OA
HETATM   22  C   UNL     1     -49.168  61.246 -58.244  1.00  0.00     0.210 C 
ENDBRANCH  16  21
ENDBRANCH  12  15
ENDBRANCH   9  11
ENDBRANCH   7   9
ENDBRANCH   4   7
BRANCH   1  23
HETATM   23  N   UNL     1     -43.193  57.395 -51.675  1.00  0.00    -0.378 N 
HETATM   24  C   UNL     1     -41.949  57.714 -50.942  1.00  0.00     0.143 C 
HETATM   25  C   UNL     1     -41.352  56.436 -50.323  1.00  0.00     0.146 C 
HETATM   26  N   UNL     1     -41.207  55.338 -51.288  1.00  0.00    -0.345 N 
HETATM   27  C   UNL     1     -40.340  54.303 -50.924  1.00  0.00     0.253 C 
HETATM   28  C   UNL     1     -42.412  55.083 -52.093  1.00  0.00     0.146 C 
HETATM   29  O   UNL     1     -39.702  54.291 -49.875  1.00  0.00    -0.267 OA
HETATM   30  C   UNL     1     -43.005  56.361 -52.710  1.00  0.00     0.143 C 
BRANCH  27  31
HETATM   31  C   UNL     1     -40.151  53.173 -51.862  1.00  0.00     0.032 A 
HETATM   32  C   UNL     1     -39.830  51.900 -51.381  1.00  0.00     0.017 A 
HETATM   33  C   UNL     1     -39.687  50.837 -52.275  1.00  0.00     0.007 A 
HETATM   34  C   UNL     1     -39.869  51.037 -53.650  1.00  0.00    -0.062 A 
HETATM   35  C   UNL     1     -39.759  49.884 -54.605  1.00  0.00     0.048 C 
HETATM   36  C   UNL     1     -40.225  52.309 -54.117  1.00  0.00     0.007 A 
HETATM   37  C   UNL     1     -40.370  53.376 -53.227  1.00  0.00     0.017 A 
ENDBRANCH  27  31
ENDBRANCH   1  23
TORSDOF 7
ENDMDL
MODEL 10
REMARK VINA RESULT:      -8.5      6.881      9.326
REMARK  7 active torsions:
REMARK  status: ('A' for Active; 'I' for Inactive)
REMARK    1  A    between atoms: C_5  and  C_6 
REMARK       I    between atoms: C_6  and  N_7 
REMARK    2  A    between atoms: N_10  and  C_11 
REMARK    3  A    between atoms: C_14  and  N_15 
REMARK    4  A    between atoms: N_15  and  C_16 
REMARK    5  A    between atoms: C_16  and  N_17 
REMARK       I    between atoms: N_17  and  C_18 
REMARK    6  A    between atoms: C_18  and  C_19 
REMARK    7  A    between atoms: C_20  and  O_21 
ROOT
HETATM    1  C   UNL     1     -44.865  59.426 -51.821  1.00  0.00     0.030 A 
HETATM    2  C   UNL     1     -45.123  59.573 -53.190  1.00  0.00     0.031 A 
HETATM    3  C   UNL     1     -45.074  58.487 -54.077  1.00  0.00     0.032 A 
HETATM    4  C   UNL     1     -44.744  57.216 -53.620  1.00  0.00     0.034 A 
HETATM    5  C   UNL     1     -44.592  57.025 -52.247  1.00  0.00     0.032 A 
HETATM    6  C   UNL     1     -44.636  58.118 -51.368  1.00  0.00     0.031 A 
ENDROOT
BRANCH   4   7
HETATM    7  N   UNL     1     -44.563  56.097 -54.467  1.00  0.00    -0.333 N 
HETATM    8  H   UNL     1     -45.247  55.361 -54.332  1.00  0.00     0.168 HD
BRANCH   7   9
HETATM    9  C   UNL     1     -43.377  55.629 -55.052  1.00  0.00     0.179 C 
HETATM   10  S   UNL     1     -42.773  56.018 -56.564  1.00  0.00    -0.040 SA
BRANCH   9  11
HETATM   11  N   UNL     1     -42.722  54.784 -54.142  1.00  0.00    -0.299 N 
HETATM   12  C   UNL     1     -41.424  54.897 -53.650  1.00  0.00     0.260 C 
HETATM   13  O   UNL     1     -40.836  55.945 -53.417  1.00  0.00    -0.267 OA
HETATM   14  H   UNL     1     -43.151  53.874 -54.049  1.00  0.00     0.171 HD
BRANCH  12  15
HETATM   15  C   UNL     1     -40.796  53.610 -53.280  1.00  0.00     0.065 A 
HETATM   16  C   UNL     1     -40.481  53.316 -51.950  1.00  0.00     0.084 A 
HETATM   17  C   UNL     1     -39.863  52.104 -51.632  1.00  0.00     0.038 A 
HETATM   18  C   UNL     1     -39.527  51.206 -52.647  1.00  0.00     0.003 A 
HETATM   19  C   UNL     1     -39.823  51.508 -53.977  1.00  0.00     0.001 A 
HETATM   20  C   UNL     1     -40.458  52.708 -54.299  1.00  0.00     0.020 A 
BRANCH  16  21
HETATM   21  O   UNL     1     -40.868  54.146 -50.934  1.00  0.00    -0.355 OA
HETATM   22  C   UNL     1     -40.508  53.586 -49.667  1.00  0.00     0.210 C 
ENDBRANCH  16  21
ENDBRANCH  12  15
ENDBRANCH   9  11
ENDBRANCH   7   9
ENDBRANCH   4   7
BRANCH   1  23
HETATM   23  N   UNL     1     -44.741  60.507 -50.950  1.00  0.00    -0.378 N 
HETATM   24  C   UNL     1     -43.423  61.168 -50.847  1.00  0.00     0.143 C 
HETATM   25  C   UNL     1     -43.588  62.605 -50.316  1.00  0.00     0.146 C 
HETATM   26  N   UNL     1     -44.385  62.679 -49.085  1.00  0.00    -0.345 N 
HETATM   27  C   UNL     1     -44.263  63.853 -48.336  1.00  0.00     0.253 C 
HETATM   28  C   UNL     1     -45.654  61.936 -49.146  1.00  0.00     0.146 C 
HETATM   29  O   UNL     1     -43.522  64.782 -48.649  1.00  0.00    -0.267 OA
HETATM   30  C   UNL     1     -45.486  60.501 -49.677  1.00  0.00     0.143 C 
BRANCH  27  31
HETATM   31  C   UNL     1     -45.041  63.980 -47.083  1.00  0.00     0.032 A 
HETATM   32  C   UNL     1     -44.478  63.602 -45.860  1.00  0.00     0.017 A 
HETATM   33  C   UNL     1     -45.211  63.758 -44.681  1.00  0.00     0.007 A 
HETATM   34  C   UNL     1     -46.504  64.295 -44.717  1.00  0.00    -0.062 A 
HETATM   35  C   UNL     1     -47.274  64.504 -43.445  1.00  0.00     0.048 C 
HETATM   36  C   UNL     1     -47.044  64.704 -45.944  1.00  0.00     0.007 A 
HETATM   37  C   UNL     1     -46.315  64.551 -47.125  1.00  0.00     0.017 A 
ENDBRANCH  27  31
ENDBRANCH   1  23
TORSDOF 7
ENDMDL
