MODEL 1
REMARK VINA RESULT:      -8.0      0.000      0.000
REMARK  4 active torsions:
REMARK  status: ('A' for Active; 'I' for Inactive)
REMARK    1  A    between atoms: N_1  and  C_2 
REMARK    2  A    between atoms: C_2  and  C_3 
REMARK    3  A    between atoms: C_2  and  C_16 
REMARK       I    between atoms: C_3  and  N_5 
REMARK    4  A    between atoms: N_5  and  C_6 
ROOT
HETATM    1  C   UNL     1     -43.019  56.600 -56.185  1.00  0.00     0.260 C 
HETATM    2  O   UNL     1     -43.977  56.551 -55.412  1.00  0.00    -0.270 OA
HETATM    3  N   UNL     1     -41.789  55.985 -55.998  1.00  0.00    -0.325 N 
HETATM    4  H   UNL     1     -41.128  56.049 -56.764  1.00  0.00     0.169 HD
ENDROOT
BRANCH   1   5
HETATM    5  C   UNL     1     -43.116  57.365 -57.538  1.00  0.00     0.342 C 
BRANCH   5   6
HETATM    6  N   UNL     1     -41.764  57.585 -58.091  1.00  0.00     0.096 N 
HETATM    7  H   UNL     1     -41.552  56.783 -58.689  1.00  0.00     0.314 HD
HETATM    8  H   UNL     1     -41.092  57.500 -57.327  1.00  0.00     0.314 HD
ENDBRANCH   5   6
BRANCH   5   9
HETATM    9  C   UNL     1     -43.995  56.640 -58.540  1.00  0.00    -0.016 A 
HETATM   10  C   UNL     1     -45.167  57.248 -59.018  1.00  0.00     0.010 A 
HETATM   11  C   UNL     1     -45.977  56.598 -59.952  1.00  0.00     0.001 A 
HETATM   12  C   UNL     1     -45.623  55.337 -60.427  1.00  0.00     0.000 A 
HETATM   13  C   UNL     1     -44.456  54.726 -59.973  1.00  0.00     0.001 A 
HETATM   14  C   UNL     1     -43.646  55.374 -59.040  1.00  0.00     0.010 A 
ENDBRANCH   5   9
ENDBRANCH   1   5
BRANCH   3  15
HETATM   15  C   UNL     1     -41.364  55.243 -54.876  1.00  0.00     0.035 A 
HETATM   16  C   UNL     1     -41.359  55.739 -53.573  1.00  0.00     0.030 A 
HETATM   17  C   UNL     1     -40.916  54.944 -52.511  1.00  0.00     0.016 A 
HETATM   18  C   UNL     1     -40.479  53.629 -52.738  1.00  0.00    -0.008 A 
HETATM   19  C   UNL     1     -40.036  52.788 -51.713  1.00  0.00     0.128 A 
HETATM   20  C   UNL     1     -40.482  53.113 -54.046  1.00  0.00    -0.021 A 
HETATM   21  N   UNL     1     -39.619  51.514 -51.895  1.00  0.00    -0.272 NA
HETATM   22  C   UNL     1     -39.640  51.048 -53.160  1.00  0.00     0.117 A 
HETATM   23  C   UNL     1     -40.054  51.795 -54.251  1.00  0.00     0.031 A 
HETATM   24  C   UNL     1     -40.915  53.934 -55.105  1.00  0.00     0.042 A 
ENDBRANCH   3  15
TORSDOF 4
ENDMDL
MODEL 2
REMARK VINA RESULT:      -7.8      1.696      2.206
REMARK  4 active torsions:
REMARK  status: ('A' for Active; 'I' for Inactive)
REMARK    1  A    between atoms: N_1  and  C_2 
REMARK    2  A    between atoms: C_2  and  C_3 
REMARK    3  A    between atoms: C_2  and  C_16 
REMARK       I    between atoms: C_3  and  N_5 
REMARK    4  A    between atoms: N_5  and  C_6 
ROOT
HETATM    1  C   UNL     1     -42.860  55.881 -54.858  1.00  0.00     0.260 C 
HETATM    2  O   UNL     1     -43.827  55.155 -54.627  1.00  0.00    -0.270 OA
HETATM    3  N   UNL     1     -41.543  55.623 -54.500  1.00  0.00    -0.325 N 
HETATM    4  H   UNL     1     -40.846  56.277 -54.835  1.00  0.00     0.169 HD
ENDROOT
BRANCH   1   5
HETATM    5  C   UNL     1     -43.023  57.211 -55.653  1.00  0.00     0.342 C 
BRANCH   5   6
HETATM    6  N   UNL     1     -42.120  58.242 -55.102  1.00  0.00     0.096 N 
HETATM    7  H   UNL     1     -42.702  59.046 -54.854  1.00  0.00     0.314 HD
HETATM    8  H   UNL     1     -41.538  58.592 -55.864  1.00  0.00     0.314 HD
ENDBRANCH   5   6
BRANCH   5   9
HETATM    9  C   UNL     1     -42.778  57.019 -57.138  1.00  0.00    -0.016 A 
HETATM   10  C   UNL     1     -43.164  55.825 -57.767  1.00  0.00     0.010 A 
HETATM   11  C   UNL     1     -42.957  55.642 -59.136  1.00  0.00     0.001 A 
HETATM   12  C   UNL     1     -42.372  56.652 -59.897  1.00  0.00     0.000 A 
HETATM   13  C   UNL     1     -41.996  57.848 -59.290  1.00  0.00     0.001 A 
HETATM   14  C   UNL     1     -42.200  58.033 -57.922  1.00  0.00     0.010 A 
ENDBRANCH   5   9
ENDBRANCH   1   5
BRANCH   3  15
HETATM   15  C   UNL     1     -41.057  54.528 -53.756  1.00  0.00     0.035 A 
HETATM   16  C   UNL     1     -40.761  54.585 -52.394  1.00  0.00     0.030 A 
HETATM   17  C   UNL     1     -40.275  53.458 -51.724  1.00  0.00     0.016 A 
HETATM   18  C   UNL     1     -40.086  52.247 -52.410  1.00  0.00    -0.008 A 
HETATM   19  C   UNL     1     -39.613  51.088 -51.788  1.00  0.00     0.128 A 
HETATM   20  C   UNL     1     -40.383  52.172 -53.782  1.00  0.00    -0.021 A 
HETATM   21  N   UNL     1     -39.430  49.903 -52.415  1.00  0.00    -0.272 NA
HETATM   22  C   UNL     1     -39.730  49.864 -53.729  1.00  0.00     0.117 A 
HETATM   23  C   UNL     1     -40.200  50.953 -54.446  1.00  0.00     0.031 A 
HETATM   24  C   UNL     1     -40.856  53.323 -54.443  1.00  0.00     0.042 A 
ENDBRANCH   3  15
TORSDOF 4
ENDMDL
MODEL 3
REMARK VINA RESULT:      -7.8      1.848      7.451
REMARK  4 active torsions:
REMARK  status: ('A' for Active; 'I' for Inactive)
REMARK    1  A    between atoms: N_1  and  C_2 
REMARK    2  A    between atoms: C_2  and  C_3 
REMARK    3  A    between atoms: C_2  and  C_16 
REMARK       I    between atoms: C_3  and  N_5 
REMARK    4  A    between atoms: N_5  and  C_6 
ROOT
HETATM    1  C   UNL     1     -40.798  54.649 -54.405  1.00  0.00     0.260 C 
HETATM    2  O   UNL     1     -39.767  54.731 -55.072  1.00  0.00    -0.270 OA
HETATM    3  N   UNL     1     -42.055  55.095 -54.791  1.00  0.00    -0.325 N 
HETATM    4  H   UNL     1     -42.824  54.882 -54.166  1.00  0.00     0.169 HD
ENDROOT
BRANCH   1   5
HETATM    5  C   UNL     1     -40.800  53.966 -53.006  1.00  0.00     0.342 C 
BRANCH   5   6
HETATM    6  N   UNL     1     -42.133  54.094 -52.382  1.00  0.00     0.096 N 
HETATM    7  H   UNL     1     -42.423  55.069 -52.498  1.00  0.00     0.314 HD
HETATM    8  H   UNL     1     -42.021  53.995 -51.373  1.00  0.00     0.314 HD
ENDBRANCH   5   6
BRANCH   5   9
HETATM    9  C   UNL     1     -40.382  52.508 -53.084  1.00  0.00    -0.016 A 
HETATM   10  C   UNL     1     -39.803  51.882 -51.969  1.00  0.00     0.010 A 
HETATM   11  C   UNL     1     -39.428  50.537 -52.023  1.00  0.00     0.001 A 
HETATM   12  C   UNL     1     -39.634  49.799 -53.187  1.00  0.00     0.000 A 
HETATM   13  C   UNL     1     -40.220  50.403 -54.297  1.00  0.00     0.001 A 
HETATM   14  C   UNL     1     -40.595  51.747 -54.246  1.00  0.00     0.010 A 
ENDBRANCH   5   9
ENDBRANCH   1   5
BRANCH   3  15
HETATM   15  C   UNL     1     -42.394  55.778 -55.977  1.00  0.00     0.035 A 
HETATM   16  C   UNL     1     -42.176  57.141 -56.178  1.00  0.00     0.030 A 
HETATM   17  C   UNL     1     -42.546  57.750 -57.382  1.00  0.00     0.016 A 
HETATM   18  C   UNL     1     -43.135  56.998 -58.410  1.00  0.00    -0.008 A 
HETATM   19  C   UNL     1     -43.516  57.554 -59.635  1.00  0.00     0.128 A 
HETATM   20  C   UNL     1     -43.360  55.623 -58.224  1.00  0.00    -0.021 A 
HETATM   21  N   UNL     1     -44.075  56.858 -60.652  1.00  0.00    -0.272 NA
HETATM   22  C   UNL     1     -44.270  55.540 -60.443  1.00  0.00     0.117 A 
HETATM   23  C   UNL     1     -43.937  54.887 -59.267  1.00  0.00     0.031 A 
HETATM   24  C   UNL     1     -42.995  55.030 -57.000  1.00  0.00     0.042 A 
ENDBRANCH   3  15
TORSDOF 4
ENDMDL
MODEL 4
REMARK VINA RESULT:      -7.7      4.233      5.804
REMARK  4 active torsions:
REMARK  status: ('A' for Active; 'I' for Inactive)
REMARK    1  A    between atoms: N_1  and  C_2 
REMARK    2  A    between atoms: C_2  and  C_3 
REMARK    3  A    between atoms: C_2  and  C_16 
REMARK       I    between atoms: C_3  and  N_5 
REMARK    4  A    between atoms: N_5  and  C_6 
ROOT
HETATM    1  C   UNL     1     -42.409  55.869 -53.125  1.00  0.00     0.260 C 
HETATM    2  O   UNL     1     -43.389  55.155 -53.343  1.00  0.00    -0.270 OA
HETATM    3  N   UNL     1     -41.142  55.425 -52.768  1.00  0.00    -0.325 N 
HETATM    4  H   UNL     1     -40.416  56.129 -52.704  1.00  0.00     0.169 HD
ENDROOT
BRANCH   1   5
HETATM    5  C   UNL     1     -42.490  57.416 -53.275  1.00  0.00     0.342 C 
BRANCH   5   6
HETATM    6  N   UNL     1     -43.869  57.877 -53.015  1.00  0.00     0.096 N 
HETATM    7  H   UNL     1     -44.333  57.141 -52.478  1.00  0.00     0.314 HD
HETATM    8  H   UNL     1     -44.373  57.882 -53.903  1.00  0.00     0.314 HD
ENDBRANCH   5   6
BRANCH   5   9
HETATM    9  C   UNL     1     -41.505  58.128 -52.366  1.00  0.00    -0.016 A 
HETATM   10  C   UNL     1     -40.263  58.550 -52.867  1.00  0.00     0.010 A 
HETATM   11  C   UNL     1     -39.354  59.220 -52.045  1.00  0.00     0.001 A 
HETATM   12  C   UNL     1     -39.676  59.485 -50.715  1.00  0.00     0.000 A 
HETATM   13  C   UNL     1     -40.910  59.085 -50.207  1.00  0.00     0.001 A 
HETATM   14  C   UNL     1     -41.820  58.415 -51.027  1.00  0.00     0.010 A 
ENDBRANCH   5   9
ENDBRANCH   1   5
BRANCH   3  15
HETATM   15  C   UNL     1     -40.737  54.096 -52.524  1.00  0.00     0.035 A 
HETATM   16  C   UNL     1     -40.457  53.591 -51.255  1.00  0.00     0.030 A 
HETATM   17  C   UNL     1     -40.053  52.262 -51.092  1.00  0.00     0.016 A 
HETATM   18  C   UNL     1     -39.933  51.412 -52.203  1.00  0.00    -0.008 A 
HETATM   19  C   UNL     1     -39.543  50.074 -52.097  1.00  0.00     0.128 A 
HETATM   20  C   UNL     1     -40.215  51.905 -53.489  1.00  0.00    -0.021 A 
HETATM   21  N   UNL     1     -39.428  49.224 -53.144  1.00  0.00    -0.272 NA
HETATM   22  C   UNL     1     -39.712  49.727 -54.362  1.00  0.00     0.117 A 
HETATM   23  C   UNL     1     -40.101  51.039 -54.584  1.00  0.00     0.031 A 
HETATM   24  C   UNL     1     -40.604  53.251 -53.635  1.00  0.00     0.042 A 
ENDBRANCH   3  15
TORSDOF 4
ENDMDL
MODEL 5
REMARK VINA RESULT:      -7.6      1.641      7.351
REMARK  4 active torsions:
REMARK  status: ('A' for Active; 'I' for Inactive)
REMARK    1  A    between atoms: N_1  and  C_2 
REMARK    2  A    between atoms: C_2  and  C_3 
REMARK    3  A    between atoms: C_2  and  C_16 
REMARK       I    between atoms: C_3  and  N_5 
REMARK    4  A    between atoms: N_5  and  C_6 
ROOT
HETATM    1  C   UNL     1     -42.252  55.282 -54.396  1.00  0.00     0.260 C 
HETATM    2  O   UNL     1     -43.338  54.764 -54.130  1.00  0.00    -0.270 OA
HETATM    3  N   UNL     1     -41.975  56.068 -55.506  1.00  0.00    -0.325 N 
HETATM    4  H   UNL     1     -41.055  56.492 -55.543  1.00  0.00     0.169 HD
ENDROOT
BRANCH   1   5
HETATM    5  C   UNL     1     -41.032  55.128 -53.440  1.00  0.00     0.342 C 
BRANCH   5   6
HETATM    6  N   UNL     1     -41.356  55.692 -52.113  1.00  0.00     0.096 N 
HETATM    7  H   UNL     1     -41.815  54.950 -51.579  1.00  0.00     0.314 HD
HETATM    8  H   UNL     1     -42.091  56.389 -52.237  1.00  0.00     0.314 HD
ENDBRANCH   5   6
BRANCH   5   9
HETATM    9  C   UNL     1     -40.585  53.683 -53.316  1.00  0.00    -0.016 A 
HETATM   10  C   UNL     1     -40.523  52.866 -54.456  1.00  0.00     0.010 A 
HETATM   11  C   UNL     1     -40.099  51.538 -54.358  1.00  0.00     0.001 A 
HETATM   12  C   UNL     1     -39.723  51.013 -53.123  1.00  0.00     0.000 A 
HETATM   13  C   UNL     1     -39.766  51.815 -51.985  1.00  0.00     0.001 A 
HETATM   14  C   UNL     1     -40.190  53.142 -52.081  1.00  0.00     0.010 A 
ENDBRANCH   5   9
ENDBRANCH   1   5
BRANCH   3  15
HETATM   15  C   UNL     1     -42.843  56.380 -56.573  1.00  0.00     0.035 A 
HETATM   16  C   UNL     1     -43.503  57.602 -56.705  1.00  0.00     0.030 A 
HETATM   17  C   UNL     1     -44.356  57.835 -57.789  1.00  0.00     0.016 A 
HETATM   18  C   UNL     1     -44.554  56.847 -58.767  1.00  0.00    -0.008 A 
HETATM   19  C   UNL     1     -45.386  57.031 -59.874  1.00  0.00     0.128 A 
HETATM   20  C   UNL     1     -43.893  55.612 -58.649  1.00  0.00    -0.021 A 
HETATM   21  N   UNL     1     -45.592  56.106 -60.840  1.00  0.00    -0.272 NA
HETATM   22  C   UNL     1     -44.938  54.935 -60.701  1.00  0.00     0.117 A 
HETATM   23  C   UNL     1     -44.094  54.643 -59.641  1.00  0.00     0.031 A 
HETATM   24  C   UNL     1     -43.051  55.388 -57.543  1.00  0.00     0.042 A 
ENDBRANCH   3  15
TORSDOF 4
ENDMDL
MODEL 6
REMARK VINA RESULT:      -7.5      1.040      1.852
REMARK  4 active torsions:
REMARK  status: ('A' for Active; 'I' for Inactive)
REMARK    1  A    between atoms: N_1  and  C_2 
REMARK    2  A    between atoms: C_2  and  C_3 
REMARK    3  A    between atoms: C_2  and  C_16 
REMARK       I    between atoms: C_3  and  N_5 
REMARK    4  A    between atoms: N_5  and  C_6 
ROOT
HETATM    1  C   UNL     1     -42.884  55.497 -56.816  1.00  0.00     0.260 C 
HETATM    2  O   UNL     1     -43.614  54.505 -56.829  1.00  0.00    -0.270 OA
HETATM    3  N   UNL     1     -41.749  55.663 -56.032  1.00  0.00    -0.325 N 
HETATM    4  H   UNL     1     -41.205  56.502 -56.195  1.00  0.00     0.169 HD
ENDROOT
BRANCH   1   5
HETATM    5  C   UNL     1     -43.154  56.708 -57.756  1.00  0.00     0.342 C 
BRANCH   5   6
HETATM    6  N   UNL     1     -41.884  57.192 -58.335  1.00  0.00     0.096 N 
HETATM    7  H   UNL     1     -41.314  57.535 -57.559  1.00  0.00     0.314 HD
HETATM    8  H   UNL     1     -42.084  58.034 -58.877  1.00  0.00     0.314 HD
ENDBRANCH   5   6
BRANCH   5   9
HETATM    9  C   UNL     1     -44.149  56.367 -58.851  1.00  0.00    -0.016 A 
HETATM   10  C   UNL     1     -45.383  57.033 -58.913  1.00  0.00     0.010 A 
HETATM   11  C   UNL     1     -46.301  56.740 -59.924  1.00  0.00     0.001 A 
HETATM   12  C   UNL     1     -45.995  55.785 -60.892  1.00  0.00     0.000 A 
HETATM   13  C   UNL     1     -44.768  55.125 -60.852  1.00  0.00     0.001 A 
HETATM   14  C   UNL     1     -43.850  55.417 -59.842  1.00  0.00     0.010 A 
ENDBRANCH   5   9
ENDBRANCH   1   5
BRANCH   3  15
HETATM   15  C   UNL     1     -41.242  54.775 -55.061  1.00  0.00     0.035 A 
HETATM   16  C   UNL     1     -40.398  53.704 -55.353  1.00  0.00     0.030 A 
HETATM   17  C   UNL     1     -39.941  52.861 -54.335  1.00  0.00     0.016 A 
HETATM   18  C   UNL     1     -40.317  53.084 -53.001  1.00  0.00    -0.008 A 
HETATM   19  C   UNL     1     -39.883  52.279 -51.945  1.00  0.00     0.128 A 
HETATM   20  C   UNL     1     -41.166  54.161 -52.690  1.00  0.00    -0.021 A 
HETATM   21  N   UNL     1     -40.216  52.471 -50.647  1.00  0.00    -0.272 NA
HETATM   22  C   UNL     1     -41.026  53.517 -50.383  1.00  0.00     0.117 A 
HETATM   23  C   UNL     1     -41.521  54.375 -51.352  1.00  0.00     0.031 A 
HETATM   24  C   UNL     1     -41.629  54.990 -53.730  1.00  0.00     0.042 A 
ENDBRANCH   3  15
TORSDOF 4
ENDMDL
MODEL 7
REMARK VINA RESULT:      -7.5      1.846      7.399
REMARK  4 active torsions:
REMARK  status: ('A' for Active; 'I' for Inactive)
REMARK    1  A    between atoms: N_1  and  C_2 
REMARK    2  A    between atoms: C_2  and  C_3 
REMARK    3  A    between atoms: C_2  and  C_16 
REMARK       I    between atoms: C_3  and  N_5 
REMARK    4  A    between atoms: N_5  and  C_6 
ROOT
HETATM    1  C   UNL     1     -41.406  54.196 -52.728  1.00  0.00     0.260 C 
HETATM    2  O   UNL     1     -42.574  53.893 -52.481  1.00  0.00    -0.270 OA
HETATM    3  N   UNL     1     -40.988  55.150 -53.646  1.00  0.00    -0.325 N 
HETATM    4  H   UNL     1     -39.995  55.346 -53.676  1.00  0.00     0.169 HD
ENDROOT
BRANCH   1   5
HETATM    5  C   UNL     1     -40.224  53.530 -51.964  1.00  0.00     0.342 C 
BRANCH   5   6
HETATM    6  N   UNL     1     -40.459  53.603 -50.507  1.00  0.00     0.096 N 
HETATM    7  H   UNL     1     -39.590  53.314 -50.050  1.00  0.00     0.314 HD
HETATM    8  H   UNL     1     -41.119  52.866 -50.257  1.00  0.00     0.314 HD
ENDBRANCH   5   6
BRANCH   5   9
HETATM    9  C   UNL     1     -40.001  52.093 -52.401  1.00  0.00    -0.016 A 
HETATM   10  C   UNL     1     -40.012  51.764 -53.766  1.00  0.00     0.010 A 
HETATM   11  C   UNL     1     -39.793  50.448 -54.182  1.00  0.00     0.001 A 
HETATM   12  C   UNL     1     -39.552  49.448 -53.243  1.00  0.00     0.000 A 
HETATM   13  C   UNL     1     -39.524  49.762 -51.886  1.00  0.00     0.001 A 
HETATM   14  C   UNL     1     -39.743  51.075 -51.467  1.00  0.00     0.010 A 
ENDBRANCH   5   9
ENDBRANCH   1   5
BRANCH   3  15
HETATM   15  C   UNL     1     -41.795  55.911 -54.517  1.00  0.00     0.035 A 
HETATM   16  C   UNL     1     -42.327  57.159 -54.190  1.00  0.00     0.030 A 
HETATM   17  C   UNL     1     -43.126  57.852 -55.105  1.00  0.00     0.016 A 
HETATM   18  C   UNL     1     -43.398  57.308 -56.371  1.00  0.00    -0.008 A 
HETATM   19  C   UNL     1     -44.182  57.962 -57.326  1.00  0.00     0.128 A 
HETATM   20  C   UNL     1     -42.867  56.053 -56.716  1.00  0.00    -0.021 A 
HETATM   21  N   UNL     1     -44.455  57.473 -58.557  1.00  0.00    -0.272 NA
HETATM   22  C   UNL     1     -43.924  56.270 -58.859  1.00  0.00     0.117 A 
HETATM   23  C   UNL     1     -43.139  55.532 -57.987  1.00  0.00     0.031 A 
HETATM   24  C   UNL     1     -42.078  55.362 -55.776  1.00  0.00     0.042 A 
ENDBRANCH   3  15
TORSDOF 4
ENDMDL
MODEL 8
REMARK VINA RESULT:      -7.4      3.915      4.917
REMARK  4 active torsions:
REMARK  status: ('A' for Active; 'I' for Inactive)
REMARK    1  A    between atoms: N_1  and  C_2 
REMARK    2  A    between atoms: C_2  and  C_3 
REMARK    3  A    between atoms: C_2  and  C_16 
REMARK       I    between atoms: C_3  and  N_5 
REMARK    4  A    between atoms: N_5  and  C_6 
ROOT
HETATM    1  C   UNL     1     -42.591  55.526 -51.145  1.00  0.00     0.260 C 
HETATM    2  O   UNL     1     -43.539  54.794 -50.860  1.00  0.00    -0.270 OA
HETATM    3  N   UNL     1     -41.327  55.105 -51.537  1.00  0.00    -0.325 N 
HETATM    4  H   UNL     1     -40.676  55.828 -51.820  1.00  0.00     0.169 HD
ENDROOT
BRANCH   1   5
HETATM    5  C   UNL     1     -42.738  57.076 -51.132  1.00  0.00     0.342 C 
BRANCH   5   6
HETATM    6  N   UNL     1     -41.532  57.692 -50.540  1.00  0.00     0.096 N 
HETATM    7  H   UNL     1     -41.429  57.303 -49.600  1.00  0.00     0.314 HD
HETATM    8  H   UNL     1     -41.733  58.679 -50.371  1.00  0.00     0.314 HD
ENDBRANCH   5   6
BRANCH   5   9
HETATM    9  C   UNL     1     -43.001  57.634 -52.519  1.00  0.00    -0.016 A 
HETATM   10  C   UNL     1     -41.939  58.136 -53.288  1.00  0.00     0.010 A 
HETATM   11  C   UNL     1     -42.166  58.639 -54.572  1.00  0.00     0.001 A 
HETATM   12  C   UNL     1     -43.453  58.639 -55.106  1.00  0.00     0.000 A 
HETATM   13  C   UNL     1     -44.514  58.132 -54.360  1.00  0.00     0.001 A 
HETATM   14  C   UNL     1     -44.291  57.629 -53.078  1.00  0.00     0.010 A 
ENDBRANCH   5   9
ENDBRANCH   1   5
BRANCH   3  15
HETATM   15  C   UNL     1     -40.855  53.779 -51.627  1.00  0.00     0.035 A 
HETATM   16  C   UNL     1     -40.488  53.009 -50.524  1.00  0.00     0.030 A 
HETATM   17  C   UNL     1     -40.022  51.701 -50.694  1.00  0.00     0.016 A 
HETATM   18  C   UNL     1     -39.925  51.139 -51.977  1.00  0.00    -0.008 A 
HETATM   19  C   UNL     1     -39.476  49.835 -52.202  1.00  0.00     0.128 A 
HETATM   20  C   UNL     1     -40.295  51.901 -53.099  1.00  0.00    -0.021 A 
HETATM   21  N   UNL     1     -39.380  49.258 -53.423  1.00  0.00    -0.272 NA
HETATM   22  C   UNL     1     -39.749  50.014 -54.477  1.00  0.00     0.117 A 
HETATM   23  C   UNL     1     -40.203  51.319 -54.369  1.00  0.00     0.031 A 
HETATM   24  C   UNL     1     -40.746  53.222 -52.910  1.00  0.00     0.042 A 
ENDBRANCH   3  15
TORSDOF 4
ENDMDL
MODEL 9
REMARK VINA RESULT:      -7.3      2.159      2.540
REMARK  4 active torsions:
REMARK  status: ('A' for Active; 'I' for Inactive)
REMARK    1  A    between atoms: N_1  and  C_2 
REMARK    2  A    between atoms: C_2  and  C_3 
REMARK    3  A    between atoms: C_2  and  C_16 
REMARK       I    between atoms: C_3  and  N_5 
REMARK    4  A    between atoms: N_5  and  C_6 
ROOT
HETATM    1  C   UNL     1     -42.978  55.936 -57.315  1.00  0.00     0.260 C 
HETATM    2  O   UNL     1     -42.693  57.024 -56.813  1.00  0.00    -0.270 OA
HETATM    3  N   UNL     1     -43.095  54.731 -56.635  1.00  0.00    -0.325 N 
HETATM    4  H   UNL     1     -43.418  53.936 -57.173  1.00  0.00     0.169 HD
ENDROOT
BRANCH   1   5
HETATM    5  C   UNL     1     -43.292  55.808 -58.835  1.00  0.00     0.342 C 
BRANCH   5   6
HETATM    6  N   UNL     1     -44.637  55.229 -59.026  1.00  0.00     0.096 N 
HETATM    7  H   UNL     1     -45.059  55.712 -59.822  1.00  0.00     0.314 HD
HETATM    8  H   UNL     1     -45.218  55.513 -58.236  1.00  0.00     0.314 HD
ENDBRANCH   5   6
BRANCH   5   9
HETATM    9  C   UNL     1     -43.172  57.139 -59.554  1.00  0.00    -0.016 A 
HETATM   10  C   UNL     1     -44.299  57.964 -59.698  1.00  0.00     0.010 A 
HETATM   11  C   UNL     1     -44.199  59.198 -60.345  1.00  0.00     0.001 A 
HETATM   12  C   UNL     1     -42.973  59.628 -60.848  1.00  0.00     0.000 A 
HETATM   13  C   UNL     1     -41.843  58.827 -60.701  1.00  0.00     0.001 A 
HETATM   14  C   UNL     1     -41.940  57.593 -60.055  1.00  0.00     0.010 A 
ENDBRANCH   5   9
ENDBRANCH   1   5
BRANCH   3  15
HETATM   15  C   UNL     1     -42.853  54.494 -55.265  1.00  0.00     0.035 A 
HETATM   16  C   UNL     1     -43.683  54.949 -54.241  1.00  0.00     0.030 A 
HETATM   17  C   UNL     1     -43.373  54.680 -52.903  1.00  0.00     0.016 A 
HETATM   18  C   UNL     1     -42.228  53.940 -52.571  1.00  0.00    -0.008 A 
HETATM   19  C   UNL     1     -41.877  53.634 -51.253  1.00  0.00     0.128 A 
HETATM   20  C   UNL     1     -41.383  53.472 -53.593  1.00  0.00    -0.021 A 
HETATM   21  N   UNL     1     -40.787  52.915 -50.898  1.00  0.00    -0.272 NA
HETATM   22  C   UNL     1     -40.002  52.476 -51.902  1.00  0.00     0.117 A 
HETATM   23  C   UNL     1     -40.251  52.725 -53.242  1.00  0.00     0.031 A 
HETATM   24  C   UNL     1     -41.701  53.766 -54.932  1.00  0.00     0.042 A 
ENDBRANCH   3  15
TORSDOF 4
ENDMDL
MODEL 10
REMARK VINA RESULT:      -7.2     14.366     17.006
REMARK  4 active torsions:
REMARK  status: ('A' for Active; 'I' for Inactive)
REMARK    1  A    between atoms: N_1  and  C_2 
REMARK    2  A    between atoms: C_2  and  C_3 
REMARK    3  A    between atoms: C_2  and  C_16 
REMARK       I    between atoms: C_3  and  N_5 
REMARK    4  A    between atoms: N_5  and  C_6 
ROOT
HETATM    1  C   UNL     1     -36.185  41.715 -54.531  1.00  0.00     0.260 C 
HETATM    2  O   UNL     1     -35.026  41.509 -54.893  1.00  0.00    -0.270 OA
HETATM    3  N   UNL     1     -37.318  41.606 -55.326  1.00  0.00    -0.325 N 
HETATM    4  H   UNL     1     -38.210  41.725 -54.862  1.00  0.00     0.169 HD
ENDROOT
BRANCH   1   5
HETATM    5  C   UNL     1     -36.511  42.099 -53.058  1.00  0.00     0.342 C 
BRANCH   5   6
HETATM    6  N   UNL     1     -37.959  41.947 -52.806  1.00  0.00     0.096 N 
HETATM    7  H   UNL     1     -38.436  42.652 -53.374  1.00  0.00     0.314 HD
HETATM    8  H   UNL     1     -38.146  42.244 -51.847  1.00  0.00     0.314 HD
ENDBRANCH   5   6
BRANCH   5   9
HETATM    9  C   UNL     1     -35.705  41.281 -52.065  1.00  0.00    -0.016 A 
HETATM   10  C   UNL     1     -36.082  39.962 -51.769  1.00  0.00     0.010 A 
HETATM   11  C   UNL     1     -35.340  39.194 -50.868  1.00  0.00     0.001 A 
HETATM   12  C   UNL     1     -34.207  39.730 -50.259  1.00  0.00     0.000 A 
HETATM   13  C   UNL     1     -33.812  41.033 -50.553  1.00  0.00     0.001 A 
HETATM   14  C   UNL     1     -34.552  41.802 -51.452  1.00  0.00     0.010 A 
ENDBRANCH   5   9
ENDBRANCH   1   5
BRANCH   3  15
HETATM   15  C   UNL     1     -37.372  41.304 -56.703  1.00  0.00     0.035 A 
HETATM   16  C   UNL     1     -36.953  42.178 -57.706  1.00  0.00     0.030 A 
HETATM   17  C   UNL     1     -37.045  41.811 -59.052  1.00  0.00     0.016 A 
HETATM   18  C   UNL     1     -37.551  40.553 -59.416  1.00  0.00    -0.008 A 
HETATM   19  C   UNL     1     -37.655  40.131 -60.744  1.00  0.00     0.128 A 
HETATM   20  C   UNL     1     -37.974  39.659 -58.416  1.00  0.00    -0.021 A 
HETATM   21  N   UNL     1     -38.127  38.923 -61.130  1.00  0.00    -0.272 NA
HETATM   22  C   UNL     1     -38.519  38.088 -60.146  1.00  0.00     0.117 A 
HETATM   23  C   UNL     1     -38.465  38.404 -58.798  1.00  0.00     0.031 A 
HETATM   24  C   UNL     1     -37.890  40.053 -57.067  1.00  0.00     0.042 A 
ENDBRANCH   3  15
TORSDOF 4
ENDMDL
