MODEL 1
REMARK VINA RESULT:      -7.5      0.000      0.000
REMARK  8 active torsions:
REMARK  status: ('A' for Active; 'I' for Inactive)
REMARK    1  A    between atoms: O_2  and  C_3 
REMARK    2  A    between atoms: C_5  and  O_6 
REMARK    3  A    between atoms: C_8  and  C_9 
REMARK    4  A    between atoms: N_10  and  C_12 
REMARK    5  A    between atoms: C_12  and  C_13 
REMARK       I    between atoms: C_13  and  N_14 
REMARK    6  A    between atoms: N_14  and  C_15 
REMARK    7  A    between atoms: C_16  and  C_17 
REMARK    8  A    between atoms: C_17  and  C_18 
ROOT
HETATM    1  C   UNL     1     -42.507  60.416 -52.513  1.00  0.00     0.338 C 
ENDROOT
BRANCH   1   2
HETATM    2  N   UNL     1     -43.106  59.369 -51.578  1.00  0.00    -0.054 N 
HETATM    3  C   UNL     1     -43.323  57.990 -52.242  1.00  0.00     0.224 C 
HETATM    4  C   UNL     1     -44.847  57.924 -52.385  1.00  0.00     0.040 C 
HETATM    5  C   UNL     1     -45.355  58.616 -51.138  1.00  0.00     0.030 C 
HETATM    6  C   UNL     1     -44.437  59.811 -51.003  1.00  0.00     0.236 C 
HETATM    7  H   UNL     1     -42.429  59.234 -50.826  1.00  0.00     0.281 HD
BRANCH   3   8
HETATM    8  C   UNL     1     -42.769  56.807 -51.456  1.00  0.00     0.006 A 
HETATM    9  C   UNL     1     -41.409  56.835 -51.076  1.00  0.00     0.079 A 
HETATM   10  C   UNL     1     -40.859  55.782 -50.338  1.00  0.00     0.074 A 
HETATM   11  C   UNL     1     -41.629  54.673 -49.986  1.00  0.00     0.070 A 
HETATM   12  C   UNL     1     -42.956  54.609 -50.397  1.00  0.00     0.037 A 
HETATM   13  C   UNL     1     -43.519  55.660 -51.131  1.00  0.00     0.015 A 
BRANCH   9  14
HETATM   14  O   UNL     1     -40.704  57.940 -51.483  1.00  0.00    -0.355 OA
HETATM   15  C   UNL     1     -39.940  58.617 -50.486  1.00  0.00     0.210 C 
ENDBRANCH   9  14
BRANCH  11  16
HETATM   16  O   UNL     1     -40.965  53.722 -49.266  1.00  0.00    -0.356 OA
HETATM   17  C   UNL     1     -40.388  54.122 -48.028  1.00  0.00     0.210 C 
ENDBRANCH  11  16
ENDBRANCH   3   8
ENDBRANCH   1   2
BRANCH   1  18
HETATM   18  C   UNL     1     -41.981  59.831 -53.825  1.00  0.00     0.248 C 
HETATM   19  N   UNL     1     -42.936  59.775 -54.832  1.00  0.00    -0.325 N 
HETATM   20  H   UNL     1     -43.685  60.453 -54.804  1.00  0.00     0.169 HD
HETATM   21  O   UNL     1     -40.797  59.534 -53.936  1.00  0.00    -0.271 OA
BRANCH  19  22
HETATM   22  C   UNL     1     -42.644  59.287 -56.128  1.00  0.00     0.041 A 
HETATM   23  C   UNL     1     -42.831  57.952 -56.532  1.00  0.00    -0.027 A 
HETATM   24  C   UNL     1     -42.438  57.589 -57.838  1.00  0.00     0.010 A 
HETATM   25  C   UNL     1     -41.920  58.528 -58.729  1.00  0.00     0.001 A 
HETATM   26  C   UNL     1     -41.805  59.856 -58.342  1.00  0.00     0.002 A 
HETATM   27  C   UNL     1     -42.177  60.237 -57.053  1.00  0.00     0.030 A 
BRANCH  23  28
HETATM   28  C   UNL     1     -43.586  56.911 -55.727  1.00  0.00     0.079 C 
BRANCH  28  29
HETATM   29  C   UNL     1     -42.672  55.876 -55.100  1.00  0.00    -0.054 A 
HETATM   30  C   UNL     1     -43.168  54.619 -54.725  1.00  0.00     0.007 A 
HETATM   31  C   UNL     1     -42.333  53.677 -54.119  1.00  0.00     0.001 A 
HETATM   32  C   UNL     1     -40.994  53.981 -53.882  1.00  0.00     0.000 A 
HETATM   33  C   UNL     1     -40.488  55.225 -54.249  1.00  0.00     0.001 A 
HETATM   34  C   UNL     1     -41.322  56.169 -54.853  1.00  0.00     0.007 A 
ENDBRANCH  28  29
ENDBRANCH  23  28
ENDBRANCH  19  22
ENDBRANCH   1  18
TORSDOF 8
ENDMDL
MODEL 2
REMARK VINA RESULT:      -7.4      2.513      4.445
REMARK  8 active torsions:
REMARK  status: ('A' for Active; 'I' for Inactive)
REMARK    1  A    between atoms: O_2  and  C_3 
REMARK    2  A    between atoms: C_5  and  O_6 
REMARK    3  A    between atoms: C_8  and  C_9 
REMARK    4  A    between atoms: N_10  and  C_12 
REMARK    5  A    between atoms: C_12  and  C_13 
REMARK       I    between atoms: C_13  and  N_14 
REMARK    6  A    between atoms: N_14  and  C_15 
REMARK    7  A    between atoms: C_16  and  C_17 
REMARK    8  A    between atoms: C_17  and  C_18 
ROOT
HETATM    1  C   UNL     1     -42.616  57.721 -52.920  1.00  0.00     0.338 C 
ENDROOT
BRANCH   1   2
HETATM    2  N   UNL     1     -41.641  56.771 -52.232  1.00  0.00    -0.054 N 
HETATM    3  C   UNL     1     -42.248  55.392 -51.889  1.00  0.00     0.224 C 
HETATM    4  C   UNL     1     -42.389  55.457 -50.366  1.00  0.00     0.040 C 
HETATM    5  C   UNL     1     -41.171  56.241 -49.926  1.00  0.00     0.030 C 
HETATM    6  C   UNL     1     -41.084  57.354 -50.948  1.00  0.00     0.236 C 
HETATM    7  H   UNL     1     -40.884  56.605 -52.898  1.00  0.00     0.281 HD
BRANCH   3   8
HETATM    8  C   UNL     1     -41.415  54.196 -52.338  1.00  0.00     0.006 A 
HETATM    9  C   UNL     1     -41.345  53.910 -53.719  1.00  0.00     0.079 A 
HETATM   10  C   UNL     1     -40.578  52.836 -54.181  1.00  0.00     0.074 A 
HETATM   11  C   UNL     1     -39.893  52.008 -53.291  1.00  0.00     0.070 A 
HETATM   12  C   UNL     1     -39.994  52.247 -51.926  1.00  0.00     0.037 A 
HETATM   13  C   UNL     1     -40.754  53.324 -51.451  1.00  0.00     0.015 A 
BRANCH   9  14
HETATM   14  O   UNL     1     -42.068  54.745 -54.533  1.00  0.00    -0.355 OA
HETATM   15  C   UNL     1     -43.120  54.149 -55.292  1.00  0.00     0.210 C 
ENDBRANCH   9  14
BRANCH  11  16
HETATM   16  O   UNL     1     -39.185  51.000 -53.879  1.00  0.00    -0.356 OA
HETATM   17  C   UNL     1     -39.921  49.891 -54.384  1.00  0.00     0.210 C 
ENDBRANCH  11  16
ENDBRANCH   3   8
ENDBRANCH   1   2
BRANCH   1  18
HETATM   18  C   UNL     1     -42.050  58.363 -54.187  1.00  0.00     0.248 C 
HETATM   19  N   UNL     1     -42.894  58.269 -55.286  1.00  0.00    -0.325 N 
HETATM   20  H   UNL     1     -43.887  58.209 -55.108  1.00  0.00     0.169 HD
HETATM   21  O   UNL     1     -40.980  58.961 -54.149  1.00  0.00    -0.271 OA
BRANCH  19  22
HETATM   22  C   UNL     1     -42.563  58.820 -56.547  1.00  0.00     0.041 A 
HETATM   23  C   UNL     1     -42.401  58.064 -57.723  1.00  0.00    -0.027 A 
HETATM   24  C   UNL     1     -42.008  58.737 -58.900  1.00  0.00     0.010 A 
HETATM   25  C   UNL     1     -41.827  60.119 -58.921  1.00  0.00     0.001 A 
HETATM   26  C   UNL     1     -42.058  60.862 -57.772  1.00  0.00     0.002 A 
HETATM   27  C   UNL     1     -42.436  60.219 -56.594  1.00  0.00     0.030 A 
BRANCH  23  28
HETATM   28  C   UNL     1     -42.786  56.603 -57.863  1.00  0.00     0.079 C 
BRANCH  28  29
HETATM   29  C   UNL     1     -43.917  56.384 -58.850  1.00  0.00    -0.054 A 
HETATM   30  C   UNL     1     -45.099  57.132 -58.757  1.00  0.00     0.007 A 
HETATM   31  C   UNL     1     -46.152  56.908 -59.647  1.00  0.00     0.001 A 
HETATM   32  C   UNL     1     -46.035  55.936 -60.638  1.00  0.00     0.000 A 
HETATM   33  C   UNL     1     -44.867  55.186 -60.741  1.00  0.00     0.001 A 
HETATM   34  C   UNL     1     -43.813  55.406 -59.851  1.00  0.00     0.007 A 
ENDBRANCH  28  29
ENDBRANCH  23  28
ENDBRANCH  19  22
ENDBRANCH   1  18
TORSDOF 8
ENDMDL
MODEL 3
REMARK VINA RESULT:      -7.3      4.309      8.332
REMARK  8 active torsions:
REMARK  status: ('A' for Active; 'I' for Inactive)
REMARK    1  A    between atoms: O_2  and  C_3 
REMARK    2  A    between atoms: C_5  and  O_6 
REMARK    3  A    between atoms: C_8  and  C_9 
REMARK    4  A    between atoms: N_10  and  C_12 
REMARK    5  A    between atoms: C_12  and  C_13 
REMARK       I    between atoms: C_13  and  N_14 
REMARK    6  A    between atoms: N_14  and  C_15 
REMARK    7  A    between atoms: C_16  and  C_17 
REMARK    8  A    between atoms: C_17  and  C_18 
ROOT
HETATM    1  C   UNL     1     -42.793  55.775 -56.796  1.00  0.00     0.338 C 
ENDROOT
BRANCH   1   2
HETATM    2  N   UNL     1     -44.000  56.646 -57.131  1.00  0.00    -0.054 N 
HETATM    3  C   UNL     1     -43.886  57.378 -58.487  1.00  0.00     0.224 C 
HETATM    4  C   UNL     1     -43.658  58.832 -58.064  1.00  0.00     0.040 C 
HETATM    5  C   UNL     1     -44.511  58.983 -56.823  1.00  0.00     0.030 C 
HETATM    6  C   UNL     1     -44.261  57.695 -56.068  1.00  0.00     0.236 C 
HETATM    7  H   UNL     1     -44.799  56.013 -57.201  1.00  0.00     0.281 HD
BRANCH   3   8
HETATM    8  C   UNL     1     -45.098  57.229 -59.399  1.00  0.00     0.006 A 
HETATM    9  C   UNL     1     -45.243  56.028 -60.128  1.00  0.00     0.079 A 
HETATM   10  C   UNL     1     -46.349  55.837 -60.963  1.00  0.00     0.074 A 
HETATM   11  C   UNL     1     -47.313  56.834 -61.118  1.00  0.00     0.070 A 
HETATM   12  C   UNL     1     -47.156  58.040 -60.446  1.00  0.00     0.037 A 
HETATM   13  C   UNL     1     -46.057  58.242 -59.601  1.00  0.00     0.015 A 
BRANCH   9  14
HETATM   14  O   UNL     1     -44.242  55.106 -59.953  1.00  0.00    -0.355 OA
HETATM   15  C   UNL     1     -44.627  53.829 -59.446  1.00  0.00     0.210 C 
ENDBRANCH   9  14
BRANCH  11  16
HETATM   16  O   UNL     1     -48.336  56.512 -61.962  1.00  0.00    -0.356 OA
HETATM   17  C   UNL     1     -49.041  57.585 -62.577  1.00  0.00     0.210 C 
ENDBRANCH  11  16
ENDBRANCH   3   8
ENDBRANCH   1   2
BRANCH   1  18
HETATM   18  C   UNL     1     -42.922  55.042 -55.460  1.00  0.00     0.248 C 
HETATM   19  N   UNL     1     -42.410  55.752 -54.382  1.00  0.00    -0.325 N 
HETATM   20  H   UNL     1     -42.406  56.761 -54.447  1.00  0.00     0.169 HD
HETATM   21  O   UNL     1     -43.506  53.965 -55.402  1.00  0.00    -0.271 OA
BRANCH  19  22
HETATM   22  C   UNL     1     -42.453  55.257 -53.057  1.00  0.00     0.041 A 
HETATM   23  C   UNL     1     -41.562  54.297 -52.542  1.00  0.00    -0.027 A 
HETATM   24  C   UNL     1     -41.760  53.845 -51.219  1.00  0.00     0.010 A 
HETATM   25  C   UNL     1     -42.778  54.361 -50.419  1.00  0.00     0.001 A 
HETATM   26  C   UNL     1     -43.606  55.358 -50.916  1.00  0.00     0.002 A 
HETATM   27  C   UNL     1     -43.438  55.813 -52.223  1.00  0.00     0.030 A 
BRANCH  23  28
HETATM   28  C   UNL     1     -40.298  53.837 -53.243  1.00  0.00     0.079 C 
BRANCH  28  29
HETATM   29  C   UNL     1     -40.112  52.332 -53.196  1.00  0.00    -0.054 A 
HETATM   30  C   UNL     1     -39.613  51.710 -52.042  1.00  0.00     0.007 A 
HETATM   31  C   UNL     1     -39.414  50.328 -52.010  1.00  0.00     0.001 A 
HETATM   32  C   UNL     1     -39.711  49.553 -53.129  1.00  0.00     0.000 A 
HETATM   33  C   UNL     1     -40.208  50.158 -54.281  1.00  0.00     0.001 A 
HETATM   34  C   UNL     1     -40.405  51.540 -54.316  1.00  0.00     0.007 A 
ENDBRANCH  28  29
ENDBRANCH  23  28
ENDBRANCH  19  22
ENDBRANCH   1  18
TORSDOF 8
ENDMDL
MODEL 4
REMARK VINA RESULT:      -7.1      2.514      4.538
REMARK  8 active torsions:
REMARK  status: ('A' for Active; 'I' for Inactive)
REMARK    1  A    between atoms: O_2  and  C_3 
REMARK    2  A    between atoms: C_5  and  O_6 
REMARK    3  A    between atoms: C_8  and  C_9 
REMARK    4  A    between atoms: N_10  and  C_12 
REMARK    5  A    between atoms: C_12  and  C_13 
REMARK       I    between atoms: C_13  and  N_14 
REMARK    6  A    between atoms: N_14  and  C_15 
REMARK    7  A    between atoms: C_16  and  C_17 
REMARK    8  A    between atoms: C_17  and  C_18 
ROOT
HETATM    1  C   UNL     1     -42.722  56.764 -53.064  1.00  0.00     0.338 C 
ENDROOT
BRANCH   1   2
HETATM    2  N   UNL     1     -42.673  55.291 -53.460  1.00  0.00    -0.054 N 
HETATM    3  C   UNL     1     -41.335  54.861 -54.103  1.00  0.00     0.224 C 
HETATM    4  C   UNL     1     -41.718  54.667 -55.573  1.00  0.00     0.040 C 
HETATM    5  C   UNL     1     -43.119  54.097 -55.508  1.00  0.00     0.030 C 
HETATM    6  C   UNL     1     -43.782  54.922 -54.426  1.00  0.00     0.236 C 
HETATM    7  H   UNL     1     -42.772  54.758 -52.595  1.00  0.00     0.281 HD
BRANCH   3   8
HETATM    8  C   UNL     1     -40.710  53.607 -53.504  1.00  0.00     0.006 A 
HETATM    9  C   UNL     1     -40.485  53.573 -52.110  1.00  0.00     0.079 A 
HETATM   10  C   UNL     1     -39.932  52.437 -51.510  1.00  0.00     0.074 A 
HETATM   11  C   UNL     1     -39.564  51.329 -52.274  1.00  0.00     0.070 A 
HETATM   12  C   UNL     1     -39.733  51.368 -53.653  1.00  0.00     0.037 A 
HETATM   13  C   UNL     1     -40.292  52.498 -54.264  1.00  0.00     0.015 A 
BRANCH   9  14
HETATM   14  O   UNL     1     -40.840  54.709 -51.426  1.00  0.00    -0.355 OA
HETATM   15  C   UNL     1     -41.347  54.530 -50.103  1.00  0.00     0.210 C 
ENDBRANCH   9  14
BRANCH  11  16
HETATM   16  O   UNL     1     -39.038  50.292 -51.558  1.00  0.00    -0.356 OA
HETATM   17  C   UNL     1     -39.824  49.762 -50.497  1.00  0.00     0.210 C 
ENDBRANCH  11  16
ENDBRANCH   3   8
ENDBRANCH   1   2
BRANCH   1  18
HETATM   18  C   UNL     1     -42.132  57.699 -54.121  1.00  0.00     0.248 C 
HETATM   19  N   UNL     1     -43.006  57.987 -55.161  1.00  0.00    -0.325 N 
HETATM   20  H   UNL     1     -43.997  57.952 -54.962  1.00  0.00     0.169 HD
HETATM   21  O   UNL     1     -41.015  58.179 -53.964  1.00  0.00    -0.271 OA
BRANCH  19  22
HETATM   22  C   UNL     1     -42.659  58.850 -56.228  1.00  0.00     0.041 A 
HETATM   23  C   UNL     1     -42.318  58.413 -57.521  1.00  0.00    -0.027 A 
HETATM   24  C   UNL     1     -41.931  59.381 -58.472  1.00  0.00     0.010 A 
HETATM   25  C   UNL     1     -41.926  60.741 -58.166  1.00  0.00     0.001 A 
HETATM   26  C   UNL     1     -42.331  61.164 -56.907  1.00  0.00     0.002 A 
HETATM   27  C   UNL     1     -42.708  60.227 -55.947  1.00  0.00     0.030 A 
BRANCH  23  28
HETATM   28  C   UNL     1     -42.503  56.993 -58.022  1.00  0.00     0.079 C 
BRANCH  28  29
HETATM   29  C   UNL     1     -43.778  56.813 -58.825  1.00  0.00    -0.054 A 
HETATM   30  C   UNL     1     -44.951  57.490 -58.463  1.00  0.00     0.007 A 
HETATM   31  C   UNL     1     -46.131  57.301 -59.184  1.00  0.00     0.001 A 
HETATM   32  C   UNL     1     -46.153  56.433 -60.274  1.00  0.00     0.000 A 
HETATM   33  C   UNL     1     -44.995  55.754 -60.644  1.00  0.00     0.001 A 
HETATM   34  C   UNL     1     -43.814  55.940 -59.923  1.00  0.00     0.007 A 
ENDBRANCH  28  29
ENDBRANCH  23  28
ENDBRANCH  19  22
ENDBRANCH   1  18
TORSDOF 8
ENDMDL
MODEL 5
REMARK VINA RESULT:      -6.9      2.415      7.643
REMARK  8 active torsions:
REMARK  status: ('A' for Active; 'I' for Inactive)
REMARK    1  A    between atoms: O_2  and  C_3 
REMARK    2  A    between atoms: C_5  and  O_6 
REMARK    3  A    between atoms: C_8  and  C_9 
REMARK    4  A    between atoms: N_10  and  C_12 
REMARK    5  A    between atoms: C_12  and  C_13 
REMARK       I    between atoms: C_13  and  N_14 
REMARK    6  A    between atoms: N_14  and  C_15 
REMARK    7  A    between atoms: C_16  and  C_17 
REMARK    8  A    between atoms: C_17  and  C_18 
ROOT
HETATM    1  C   UNL     1     -43.399  56.352 -55.620  1.00  0.00     0.338 C 
ENDROOT
BRANCH   1   2
HETATM    2  N   UNL     1     -42.991  56.663 -57.057  1.00  0.00    -0.054 N 
HETATM    3  C   UNL     1     -43.874  57.731 -57.741  1.00  0.00     0.224 C 
HETATM    4  C   UNL     1     -44.686  56.903 -58.741  1.00  0.00     0.040 C 
HETATM    5  C   UNL     1     -43.709  55.847 -59.211  1.00  0.00     0.030 C 
HETATM    6  C   UNL     1     -43.008  55.428 -57.936  1.00  0.00     0.236 C 
HETATM    7  H   UNL     1     -42.045  57.044 -57.010  1.00  0.00     0.281 HD
BRANCH   3   8
HETATM    8  C   UNL     1     -43.105  58.858 -58.420  1.00  0.00     0.006 A 
HETATM    9  C   UNL     1     -42.178  59.594 -57.650  1.00  0.00     0.079 A 
HETATM   10  C   UNL     1     -41.434  60.625 -58.233  1.00  0.00     0.074 A 
HETATM   11  C   UNL     1     -41.611  60.968 -59.574  1.00  0.00     0.070 A 
HETATM   12  C   UNL     1     -42.557  60.286 -60.330  1.00  0.00     0.037 A 
HETATM   13  C   UNL     1     -43.304  59.248 -59.759  1.00  0.00     0.015 A 
BRANCH   9  14
HETATM   14  O   UNL     1     -42.079  59.224 -56.332  1.00  0.00    -0.355 OA
HETATM   15  C   UNL     1     -42.337  60.236 -55.359  1.00  0.00     0.210 C 
ENDBRANCH   9  14
BRANCH  11  16
HETATM   16  O   UNL     1     -40.820  61.992 -60.009  1.00  0.00    -0.356 OA
HETATM   17  C   UNL     1     -39.931  62.580 -59.067  1.00  0.00     0.210 C 
ENDBRANCH  11  16
ENDBRANCH   3   8
ENDBRANCH   1   2
BRANCH   1  18
HETATM   18  C   UNL     1     -42.287  55.700 -54.798  1.00  0.00     0.248 C 
HETATM   19  N   UNL     1     -42.618  54.442 -54.310  1.00  0.00    -0.325 N 
HETATM   20  H   UNL     1     -43.292  53.901 -54.834  1.00  0.00     0.169 HD
HETATM   21  O   UNL     1     -41.198  56.253 -54.685  1.00  0.00    -0.271 OA
BRANCH  19  22
HETATM   22  C   UNL     1     -41.718  53.663 -53.545  1.00  0.00     0.041 A 
HETATM   23  C   UNL     1     -41.606  53.731 -52.144  1.00  0.00    -0.027 A 
HETATM   24  C   UNL     1     -40.620  52.941 -51.514  1.00  0.00     0.010 A 
HETATM   25  C   UNL     1     -39.803  52.079 -52.244  1.00  0.00     0.001 A 
HETATM   26  C   UNL     1     -39.970  51.970 -53.618  1.00  0.00     0.002 A 
HETATM   27  C   UNL     1     -40.930  52.747 -54.264  1.00  0.00     0.030 A 
BRANCH  23  28
HETATM   28  C   UNL     1     -42.584  54.459 -51.240  1.00  0.00     0.079 C 
BRANCH  28  29
HETATM   29  C   UNL     1     -42.323  55.952 -51.173  1.00  0.00    -0.054 A 
HETATM   30  C   UNL     1     -41.087  56.441 -50.727  1.00  0.00     0.007 A 
HETATM   31  C   UNL     1     -40.859  57.816 -50.636  1.00  0.00     0.001 A 
HETATM   32  C   UNL     1     -41.862  58.716 -50.990  1.00  0.00     0.000 A 
HETATM   33  C   UNL     1     -43.094  58.243 -51.434  1.00  0.00     0.001 A 
HETATM   34  C   UNL     1     -43.325  56.869 -51.524  1.00  0.00     0.007 A 
ENDBRANCH  28  29
ENDBRANCH  23  28
ENDBRANCH  19  22
ENDBRANCH   1  18
TORSDOF 8
ENDMDL
MODEL 6
REMARK VINA RESULT:      -6.8      3.466      8.035
REMARK  8 active torsions:
REMARK  status: ('A' for Active; 'I' for Inactive)
REMARK    1  A    between atoms: O_2  and  C_3 
REMARK    2  A    between atoms: C_5  and  O_6 
REMARK    3  A    between atoms: C_8  and  C_9 
REMARK    4  A    between atoms: N_10  and  C_12 
REMARK    5  A    between atoms: C_12  and  C_13 
REMARK       I    between atoms: C_13  and  N_14 
REMARK    6  A    between atoms: N_14  and  C_15 
REMARK    7  A    between atoms: C_16  and  C_17 
REMARK    8  A    between atoms: C_17  and  C_18 
ROOT
HETATM    1  C   UNL     1     -42.768  54.860 -56.560  1.00  0.00     0.338 C 
ENDROOT
BRANCH   1   2
HETATM    2  N   UNL     1     -43.608  56.132 -56.491  1.00  0.00    -0.054 N 
HETATM    3  C   UNL     1     -43.033  57.306 -57.314  1.00  0.00     0.224 C 
HETATM    4  C   UNL     1     -42.517  58.255 -56.229  1.00  0.00     0.040 C 
HETATM    5  C   UNL     1     -43.532  58.111 -55.114  1.00  0.00     0.030 C 
HETATM    6  C   UNL     1     -43.790  56.620 -55.068  1.00  0.00     0.236 C 
HETATM    7  H   UNL     1     -44.515  55.899 -56.899  1.00  0.00     0.281 HD
BRANCH   3   8
HETATM    8  C   UNL     1     -44.032  57.987 -58.244  1.00  0.00     0.006 A 
HETATM    9  C   UNL     1     -44.659  57.205 -59.239  1.00  0.00     0.079 A 
HETATM   10  C   UNL     1     -45.597  57.779 -60.102  1.00  0.00     0.074 A 
HETATM   11  C   UNL     1     -45.911  59.136 -60.022  1.00  0.00     0.070 A 
HETATM   12  C   UNL     1     -45.264  59.928 -59.080  1.00  0.00     0.037 A 
HETATM   13  C   UNL     1     -44.327  59.363 -58.205  1.00  0.00     0.015 A 
BRANCH   9  14
HETATM   14  O   UNL     1     -44.278  55.887 -59.282  1.00  0.00    -0.355 OA
HETATM   15  C   UNL     1     -45.088  55.010 -60.065  1.00  0.00     0.210 C 
ENDBRANCH   9  14
BRANCH  11  16
HETATM   16  O   UNL     1     -46.842  59.561 -60.925  1.00  0.00    -0.356 OA
HETATM   17  C   UNL     1     -47.774  58.600 -61.407  1.00  0.00     0.210 C 
ENDBRANCH  11  16
ENDBRANCH   3   8
ENDBRANCH   1   2
BRANCH   1  18
HETATM   18  C   UNL     1     -41.858  54.664 -55.346  1.00  0.00     0.248 C 
HETATM   19  N   UNL     1     -42.157  53.529 -54.603  1.00  0.00    -0.325 N 
HETATM   20  H   UNL     1     -42.587  52.753 -55.088  1.00  0.00     0.169 HD
HETATM   21  O   UNL     1     -40.921  55.429 -55.149  1.00  0.00    -0.271 OA
BRANCH  19  22
HETATM   22  C   UNL     1     -41.419  53.158 -53.454  1.00  0.00     0.041 A 
HETATM   23  C   UNL     1     -41.726  53.577 -52.146  1.00  0.00    -0.027 A 
HETATM   24  C   UNL     1     -40.865  53.181 -51.100  1.00  0.00     0.010 A 
HETATM   25  C   UNL     1     -39.764  52.360 -51.335  1.00  0.00     0.001 A 
HETATM   26  C   UNL     1     -39.512  51.896 -52.619  1.00  0.00     0.002 A 
HETATM   27  C   UNL     1     -40.341  52.282 -53.671  1.00  0.00     0.030 A 
BRANCH  23  28
HETATM   28  C   UNL     1     -43.011  54.279 -51.751  1.00  0.00     0.079 C 
BRANCH  28  29
HETATM   29  C   UNL     1     -42.868  55.789 -51.709  1.00  0.00    -0.054 A 
HETATM   30  C   UNL     1     -41.625  56.395 -51.945  1.00  0.00     0.007 A 
HETATM   31  C   UNL     1     -41.488  57.783 -51.877  1.00  0.00     0.001 A 
HETATM   32  C   UNL     1     -42.590  58.580 -51.573  1.00  0.00     0.000 A 
HETATM   33  C   UNL     1     -43.829  57.991 -51.336  1.00  0.00     0.001 A 
HETATM   34  C   UNL     1     -43.969  56.603 -51.402  1.00  0.00     0.007 A 
ENDBRANCH  28  29
ENDBRANCH  23  28
ENDBRANCH  19  22
ENDBRANCH   1  18
TORSDOF 8
ENDMDL
MODEL 7
REMARK VINA RESULT:      -6.8      2.533      4.561
REMARK  8 active torsions:
REMARK  status: ('A' for Active; 'I' for Inactive)
REMARK    1  A    between atoms: O_2  and  C_3 
REMARK    2  A    between atoms: C_5  and  O_6 
REMARK    3  A    between atoms: C_8  and  C_9 
REMARK    4  A    between atoms: N_10  and  C_12 
REMARK    5  A    between atoms: C_12  and  C_13 
REMARK       I    between atoms: C_13  and  N_14 
REMARK    6  A    between atoms: N_14  and  C_15 
REMARK    7  A    between atoms: C_16  and  C_17 
REMARK    8  A    between atoms: C_17  and  C_18 
ROOT
HETATM    1  C   UNL     1     -43.001  56.844 -52.476  1.00  0.00     0.338 C 
ENDROOT
BRANCH   1   2
HETATM    2  N   UNL     1     -42.775  55.514 -53.190  1.00  0.00    -0.054 N 
HETATM    3  C   UNL     1     -41.315  55.289 -53.644  1.00  0.00     0.224 C 
HETATM    4  C   UNL     1     -41.409  55.449 -55.164  1.00  0.00     0.040 C 
HETATM    5  C   UNL     1     -42.754  54.844 -55.507  1.00  0.00     0.030 C 
HETATM    6  C   UNL     1     -43.660  55.363 -54.411  1.00  0.00     0.236 C 
HETATM    7  H   UNL     1     -42.991  54.784 -52.510  1.00  0.00     0.281 HD
BRANCH   3   8
HETATM    8  C   UNL     1     -40.721  53.942 -53.245  1.00  0.00     0.006 A 
HETATM    9  C   UNL     1     -40.475  53.699 -51.876  1.00  0.00     0.079 A 
HETATM   10  C   UNL     1     -39.950  52.472 -51.459  1.00  0.00     0.074 A 
HETATM   11  C   UNL     1     -39.630  51.477 -52.383  1.00  0.00     0.070 A 
HETATM   12  C   UNL     1     -39.819  51.722 -53.738  1.00  0.00     0.037 A 
HETATM   13  C   UNL     1     -40.351  52.944 -54.167  1.00  0.00     0.015 A 
BRANCH   9  14
HETATM   14  O   UNL     1     -40.783  54.733 -51.028  1.00  0.00    -0.355 OA
HETATM   15  C   UNL     1     -41.491  54.396 -49.835  1.00  0.00     0.210 C 
ENDBRANCH   9  14
BRANCH  11  16
HETATM   16  O   UNL     1     -39.125  50.332 -51.836  1.00  0.00    -0.356 OA
HETATM   17  C   UNL     1     -39.770  49.821 -50.676  1.00  0.00     0.210 C 
ENDBRANCH  11  16
ENDBRANCH   3   8
ENDBRANCH   1   2
BRANCH   1  18
HETATM   18  C   UNL     1     -43.288  58.005 -53.429  1.00  0.00     0.248 C 
HETATM   19  N   UNL     1     -44.639  58.306 -53.551  1.00  0.00    -0.325 N 
HETATM   20  H   UNL     1     -45.238  58.090 -52.765  1.00  0.00     0.169 HD
HETATM   21  O   UNL     1     -42.363  58.623 -53.945  1.00  0.00    -0.271 OA
BRANCH  19  22
HETATM   22  C   UNL     1     -45.111  59.362 -54.367  1.00  0.00     0.041 A 
HETATM   23  C   UNL     1     -45.326  59.254 -55.754  1.00  0.00    -0.027 A 
HETATM   24  C   UNL     1     -45.739  60.407 -56.456  1.00  0.00     0.010 A 
HETATM   25  C   UNL     1     -45.976  61.613 -55.799  1.00  0.00     0.001 A 
HETATM   26  C   UNL     1     -45.828  61.687 -54.421  1.00  0.00     0.002 A 
HETATM   27  C   UNL     1     -45.410  60.566 -53.706  1.00  0.00     0.030 A 
BRANCH  23  28
HETATM   28  C   UNL     1     -45.314  57.948 -56.525  1.00  0.00     0.079 C 
BRANCH  28  29
HETATM   29  C   UNL     1     -44.258  57.915 -57.613  1.00  0.00    -0.054 A 
HETATM   30  C   UNL     1     -44.589  57.515 -58.916  1.00  0.00     0.007 A 
HETATM   31  C   UNL     1     -43.610  57.456 -59.911  1.00  0.00     0.001 A 
HETATM   32  C   UNL     1     -42.292  57.797 -59.615  1.00  0.00     0.000 A 
HETATM   33  C   UNL     1     -41.950  58.196 -58.325  1.00  0.00     0.001 A 
HETATM   34  C   UNL     1     -42.926  58.253 -57.329  1.00  0.00     0.007 A 
ENDBRANCH  28  29
ENDBRANCH  23  28
ENDBRANCH  19  22
ENDBRANCH   1  18
TORSDOF 8
ENDMDL
MODEL 8
REMARK VINA RESULT:      -6.7      4.090      8.244
REMARK  8 active torsions:
REMARK  status: ('A' for Active; 'I' for Inactive)
REMARK    1  A    between atoms: O_2  and  C_3 
REMARK    2  A    between atoms: C_5  and  O_6 
REMARK    3  A    between atoms: C_8  and  C_9 
REMARK    4  A    between atoms: N_10  and  C_12 
REMARK    5  A    between atoms: C_12  and  C_13 
REMARK       I    between atoms: C_13  and  N_14 
REMARK    6  A    between atoms: N_14  and  C_15 
REMARK    7  A    between atoms: C_16  and  C_17 
REMARK    8  A    between atoms: C_17  and  C_18 
ROOT
HETATM    1  C   UNL     1     -42.706  56.006 -56.832  1.00  0.00     0.338 C 
ENDROOT
BRANCH   1   2
HETATM    2  N   UNL     1     -43.185  57.050 -57.836  1.00  0.00    -0.054 N 
HETATM    3  C   UNL     1     -43.410  56.491 -59.259  1.00  0.00     0.224 C 
HETATM    4  C   UNL     1     -42.237  57.088 -60.043  1.00  0.00     0.040 C 
HETATM    5  C   UNL     1     -42.064  58.464 -59.437  1.00  0.00     0.030 C 
HETATM    6  C   UNL     1     -42.222  58.215 -57.952  1.00  0.00     0.236 C 
HETATM    7  H   UNL     1     -44.091  57.378 -57.499  1.00  0.00     0.281 HD
BRANCH   3   8
HETATM    8  C   UNL     1     -44.755  56.847 -59.882  1.00  0.00     0.006 A 
HETATM    9  C   UNL     1     -45.419  55.862 -60.647  1.00  0.00     0.079 A 
HETATM   10  C   UNL     1     -46.664  56.135 -61.222  1.00  0.00     0.074 A 
HETATM   11  C   UNL     1     -47.263  57.387 -61.079  1.00  0.00     0.070 A 
HETATM   12  C   UNL     1     -46.598  58.381 -60.370  1.00  0.00     0.037 A 
HETATM   13  C   UNL     1     -45.353  58.118 -59.784  1.00  0.00     0.015 A 
BRANCH   9  14
HETATM   14  O   UNL     1     -44.757  54.667 -60.774  1.00  0.00    -0.355 OA
HETATM   15  C   UNL     1     -44.925  53.725 -59.715  1.00  0.00     0.210 C 
ENDBRANCH   9  14
BRANCH  11  16
HETATM   16  O   UNL     1     -48.477  57.512 -61.691  1.00  0.00    -0.356 OA
HETATM   17  C   UNL     1     -48.808  58.785 -62.235  1.00  0.00     0.210 C 
ENDBRANCH  11  16
ENDBRANCH   3   8
ENDBRANCH   1   2
BRANCH   1  18
HETATM   18  C   UNL     1     -42.773  56.482 -55.380  1.00  0.00     0.248 C 
HETATM   19  N   UNL     1     -41.598  56.270 -54.669  1.00  0.00    -0.325 N 
HETATM   20  H   UNL     1     -40.734  56.249 -55.192  1.00  0.00     0.169 HD
HETATM   21  O   UNL     1     -43.771  57.061 -54.966  1.00  0.00    -0.271 OA
BRANCH  19  22
HETATM   22  C   UNL     1     -41.449  56.660 -53.317  1.00  0.00     0.041 A 
HETATM   23  C   UNL     1     -41.936  55.922 -52.222  1.00  0.00    -0.027 A 
HETATM   24  C   UNL     1     -41.771  56.461 -50.928  1.00  0.00     0.010 A 
HETATM   25  C   UNL     1     -41.105  57.668 -50.722  1.00  0.00     0.001 A 
HETATM   26  C   UNL     1     -40.568  58.352 -51.804  1.00  0.00     0.002 A 
HETATM   27  C   UNL     1     -40.727  57.845 -53.093  1.00  0.00     0.030 A 
BRANCH  23  28
HETATM   28  C   UNL     1     -42.472  54.506 -52.313  1.00  0.00     0.079 C 
BRANCH  28  29
HETATM   29  C   UNL     1     -41.389  53.482 -52.597  1.00  0.00    -0.054 A 
HETATM   30  C   UNL     1     -41.249  52.929 -53.878  1.00  0.00     0.007 A 
HETATM   31  C   UNL     1     -40.271  51.965 -54.131  1.00  0.00     0.001 A 
HETATM   32  C   UNL     1     -39.423  51.543 -53.109  1.00  0.00     0.000 A 
HETATM   33  C   UNL     1     -39.551  52.085 -51.832  1.00  0.00     0.001 A 
HETATM   34  C   UNL     1     -40.530  53.048 -51.576  1.00  0.00     0.007 A 
ENDBRANCH  28  29
ENDBRANCH  23  28
ENDBRANCH  19  22
ENDBRANCH   1  18
TORSDOF 8
ENDMDL
MODEL 9
REMARK VINA RESULT:      -6.5      2.659      7.498
REMARK  8 active torsions:
REMARK  status: ('A' for Active; 'I' for Inactive)
REMARK    1  A    between atoms: O_2  and  C_3 
REMARK    2  A    between atoms: C_5  and  O_6 
REMARK    3  A    between atoms: C_8  and  C_9 
REMARK    4  A    between atoms: N_10  and  C_12 
REMARK    5  A    between atoms: C_12  and  C_13 
REMARK       I    between atoms: C_13  and  N_14 
REMARK    6  A    between atoms: N_14  and  C_15 
REMARK    7  A    between atoms: C_16  and  C_17 
REMARK    8  A    between atoms: C_17  and  C_18 
ROOT
HETATM    1  C   UNL     1     -43.689  56.326 -55.632  1.00  0.00     0.338 C 
ENDROOT
BRANCH   1   2
HETATM    2  N   UNL     1     -43.109  56.646 -57.006  1.00  0.00    -0.054 N 
HETATM    3  C   UNL     1     -43.926  57.690 -57.801  1.00  0.00     0.224 C 
HETATM    4  C   UNL     1     -44.582  56.840 -58.894  1.00  0.00     0.040 C 
HETATM    5  C   UNL     1     -43.525  55.809 -59.230  1.00  0.00     0.030 C 
HETATM    6  C   UNL     1     -42.982  55.410 -57.875  1.00  0.00     0.236 C 
HETATM    7  H   UNL     1     -42.187  57.053 -56.841  1.00  0.00     0.281 HD
BRANCH   3   8
HETATM    8  C   UNL     1     -43.106  58.837 -58.382  1.00  0.00     0.006 A 
HETATM    9  C   UNL     1     -42.473  59.726 -57.487  1.00  0.00     0.079 A 
HETATM   10  C   UNL     1     -41.694  60.782 -57.971  1.00  0.00     0.074 A 
HETATM   11  C   UNL     1     -41.549  60.998 -59.342  1.00  0.00     0.070 A 
HETATM   12  C   UNL     1     -42.208  60.160 -60.234  1.00  0.00     0.037 A 
HETATM   13  C   UNL     1     -42.986  59.095 -59.762  1.00  0.00     0.015 A 
BRANCH   9  14
HETATM   14  O   UNL     1     -42.685  59.474 -56.155  1.00  0.00    -0.355 OA
HETATM   15  C   UNL     1     -42.718  60.605 -55.284  1.00  0.00     0.210 C 
ENDBRANCH   9  14
BRANCH  11  16
HETATM   16  O   UNL     1     -40.762  62.063 -59.672  1.00  0.00    -0.356 OA
HETATM   17  C   UNL     1     -40.158  62.787 -58.606  1.00  0.00     0.210 C 
ENDBRANCH  11  16
ENDBRANCH   3   8
ENDBRANCH   1   2
BRANCH   1  18
HETATM   18  C   UNL     1     -42.643  56.318 -54.516  1.00  0.00     0.248 C 
HETATM   19  N   UNL     1     -42.948  55.453 -53.473  1.00  0.00    -0.325 N 
HETATM   20  H   UNL     1     -43.517  54.645 -53.687  1.00  0.00     0.169 HD
HETATM   21  O   UNL     1     -41.615  56.976 -54.630  1.00  0.00    -0.271 OA
BRANCH  19  22
HETATM   22  C   UNL     1     -42.097  55.282 -52.354  1.00  0.00     0.041 A 
HETATM   23  C   UNL     1     -40.977  54.430 -52.335  1.00  0.00    -0.027 A 
HETATM   24  C   UNL     1     -40.252  54.309 -51.129  1.00  0.00     0.010 A 
HETATM   25  C   UNL     1     -40.598  55.043 -49.996  1.00  0.00     0.001 A 
HETATM   26  C   UNL     1     -41.662  55.933 -50.049  1.00  0.00     0.002 A 
HETATM   27  C   UNL     1     -42.400  56.062 -51.225  1.00  0.00     0.030 A 
BRANCH  23  28
HETATM   28  C   UNL     1     -40.385  53.763 -53.562  1.00  0.00     0.079 C 
BRANCH  28  29
HETATM   29  C   UNL     1     -40.122  52.283 -53.359  1.00  0.00    -0.054 A 
HETATM   30  C   UNL     1     -40.352  51.368 -54.397  1.00  0.00     0.007 A 
HETATM   31  C   UNL     1     -40.138  50.003 -54.199  1.00  0.00     0.001 A 
HETATM   32  C   UNL     1     -39.692  49.536 -52.964  1.00  0.00     0.000 A 
HETATM   33  C   UNL     1     -39.460  50.434 -51.925  1.00  0.00     0.001 A 
HETATM   34  C   UNL     1     -39.675  51.800 -52.120  1.00  0.00     0.007 A 
ENDBRANCH  28  29
ENDBRANCH  23  28
ENDBRANCH  19  22
ENDBRANCH   1  18
TORSDOF 8
ENDMDL
MODEL 10
REMARK VINA RESULT:      -6.5      2.451      4.013
REMARK  8 active torsions:
REMARK  status: ('A' for Active; 'I' for Inactive)
REMARK    1  A    between atoms: O_2  and  C_3 
REMARK    2  A    between atoms: C_5  and  O_6 
REMARK    3  A    between atoms: C_8  and  C_9 
REMARK    4  A    between atoms: N_10  and  C_12 
REMARK    5  A    between atoms: C_12  and  C_13 
REMARK       I    between atoms: C_13  and  N_14 
REMARK    6  A    between atoms: N_14  and  C_15 
REMARK    7  A    between atoms: C_16  and  C_17 
REMARK    8  A    between atoms: C_17  and  C_18 
ROOT
HETATM    1  C   UNL     1     -42.890  58.210 -54.070  1.00  0.00     0.338 C 
ENDROOT
BRANCH   1   2
HETATM    2  N   UNL     1     -41.690  57.744 -53.251  1.00  0.00    -0.054 N 
HETATM    3  C   UNL     1     -42.056  57.246 -51.835  1.00  0.00     0.224 C 
HETATM    4  C   UNL     1     -41.525  58.367 -50.937  1.00  0.00     0.040 C 
HETATM    5  C   UNL     1     -40.256  58.813 -51.632  1.00  0.00     0.030 C 
HETATM    6  C   UNL     1     -40.647  58.833 -53.094  1.00  0.00     0.236 C 
HETATM    7  H   UNL     1     -41.292  56.949 -53.753  1.00  0.00     0.281 HD
BRANCH   3   8
HETATM    8  C   UNL     1     -41.470  55.888 -51.462  1.00  0.00     0.006 A 
HETATM    9  C   UNL     1     -41.721  54.794 -52.320  1.00  0.00     0.079 A 
HETATM   10  C   UNL     1     -41.188  53.533 -52.032  1.00  0.00     0.074 A 
HETATM   11  C   UNL     1     -40.427  53.321 -50.882  1.00  0.00     0.070 A 
HETATM   12  C   UNL     1     -40.216  54.377 -50.003  1.00  0.00     0.037 A 
HETATM   13  C   UNL     1     -40.738  55.646 -50.284  1.00  0.00     0.015 A 
BRANCH   9  14
HETATM   14  O   UNL     1     -42.503  55.068 -53.414  1.00  0.00    -0.355 OA
HETATM   15  C   UNL     1     -42.442  54.138 -54.495  1.00  0.00     0.210 C 
ENDBRANCH   9  14
BRANCH  11  16
HETATM   16  O   UNL     1     -39.972  52.043 -50.726  1.00  0.00    -0.356 OA
HETATM   17  C   UNL     1     -39.449  51.390 -51.877  1.00  0.00     0.210 C 
ENDBRANCH  11  16
ENDBRANCH   3   8
ENDBRANCH   1   2
BRANCH   1  18
HETATM   18  C   UNL     1     -42.608  58.293 -55.571  1.00  0.00     0.248 C 
HETATM   19  N   UNL     1     -42.963  59.510 -56.139  1.00  0.00    -0.325 N 
HETATM   20  H   UNL     1     -42.954  60.325 -55.541  1.00  0.00     0.169 HD
HETATM   21  O   UNL     1     -42.045  57.367 -56.144  1.00  0.00    -0.271 OA
BRANCH  19  22
HETATM   22  C   UNL     1     -42.763  59.794 -57.511  1.00  0.00     0.041 A 
HETATM   23  C   UNL     1     -43.556  59.274 -58.551  1.00  0.00    -0.027 A 
HETATM   24  C   UNL     1     -43.203  59.591 -59.880  1.00  0.00     0.010 A 
HETATM   25  C   UNL     1     -42.131  60.434 -60.167  1.00  0.00     0.001 A 
HETATM   26  C   UNL     1     -41.400  60.997 -59.130  1.00  0.00     0.002 A 
HETATM   27  C   UNL     1     -41.721  60.690 -57.808  1.00  0.00     0.030 A 
BRANCH  23  28
HETATM   28  C   UNL     1     -44.866  58.537 -58.344  1.00  0.00     0.079 C 
BRANCH  28  29
HETATM   29  C   UNL     1     -44.922  57.216 -59.089  1.00  0.00    -0.054 A 
HETATM   30  C   UNL     1     -43.922  56.250 -58.905  1.00  0.00     0.007 A 
HETATM   31  C   UNL     1     -43.959  55.047 -59.613  1.00  0.00     0.001 A 
HETATM   32  C   UNL     1     -44.994  54.796 -60.512  1.00  0.00     0.000 A 
HETATM   33  C   UNL     1     -45.993  55.747 -60.703  1.00  0.00     0.001 A 
HETATM   34  C   UNL     1     -45.957  56.951 -59.998  1.00  0.00     0.007 A 
ENDBRANCH  28  29
ENDBRANCH  23  28
ENDBRANCH  19  22
ENDBRANCH   1  18
TORSDOF 8
ENDMDL
