MODEL 1
REMARK VINA RESULT:      -8.4      0.000      0.000
REMARK  9 active torsions:
REMARK  status: ('A' for Active; 'I' for Inactive)
REMARK    1  A    between atoms: C_2  and  C_3 
REMARK    2  A    between atoms: C_3  and  O_4 
REMARK    3  A    between atoms: O_4  and  C_5 
REMARK    4  A    between atoms: C_6  and  C_7 
REMARK    5  A    between atoms: C_7  and  N_8 
REMARK    6  A    between atoms: C_17  and  C_18 
REMARK    7  A    between atoms: C_18  and  N_19 
REMARK    8  A    between atoms: C_23  and  O_24 
REMARK    9  A    between atoms: C_23  and  C_25 
ROOT
HETATM    1  N   UNL     1     -42.646  56.212 -51.772  1.00  0.00    -0.061 N 
HETATM    2  H   UNL     1     -42.009  55.652 -51.196  1.00  0.00     0.280 HD
HETATM    3  C   UNL     1     -41.818  57.394 -52.222  1.00  0.00     0.276 C 
HETATM    4  C   UNL     1     -42.475  58.319 -53.208  1.00  0.00     0.002 A 
HETATM    5  C   UNL     1     -43.614  59.037 -52.839  1.00  0.00     0.076 A 
HETATM    6  O   UNL     1     -44.160  58.896 -51.594  1.00  0.00    -0.349 OA
HETATM    7  C   UNL     1     -44.764  57.604 -51.431  1.00  0.00     0.203 C 
HETATM    8  C   UNL     1     -43.774  56.601 -50.827  1.00  0.00     0.262 C 
HETATM    9  C   UNL     1     -41.951  58.511 -54.500  1.00  0.00     0.020 A 
HETATM   10  C   UNL     1     -42.559  59.399 -55.409  1.00  0.00    -0.032 A 
HETATM   11  C   UNL     1     -43.678  60.133 -54.987  1.00  0.00     0.011 A 
HETATM   12  C   UNL     1     -44.195  59.959 -53.703  1.00  0.00     0.038 A 
ENDROOT
BRANCH  10  13
HETATM   13  C   UNL     1     -42.057  59.536 -56.825  1.00  0.00     0.273 C 
BRANCH  13  14
HETATM   14  N   UNL     1     -42.115  58.264 -57.646  1.00  0.00    -0.067 N 
HETATM   15  H   UNL     1     -41.221  57.774 -57.497  1.00  0.00     0.280 HD
HETATM   16  C   UNL     1     -43.218  57.339 -57.193  1.00  0.00     0.238 C 
HETATM   17  C   UNL     1     -43.284  56.104 -58.080  1.00  0.00     0.071 C 
HETATM   18  C   UNL     1     -43.454  56.447 -59.574  1.00  0.00     0.089 C 
HETATM   19  C   UNL     1     -42.243  57.326 -59.946  1.00  0.00     0.071 C 
HETATM   20  C   UNL     1     -42.198  58.598 -59.121  1.00  0.00     0.238 C 
BRANCH  18  21
HETATM   21  O   UNL     1     -43.296  55.220 -60.286  1.00  0.00    -0.385 OA
HETATM   22  H   UNL     1     -44.139  54.956 -60.700  1.00  0.00     0.211 HD
ENDBRANCH  18  21
BRANCH  18  23
HETATM   23  C   UNL     1     -44.793  57.063 -59.964  1.00  0.00    -0.006 A 
HETATM   24  C   UNL     1     -44.951  58.424 -60.222  1.00  0.00     0.126 A 
HETATM   25  N   UNL     1     -46.098  59.004 -60.640  1.00  0.00    -0.272 NA
HETATM   26  C   UNL     1     -47.190  58.221 -60.726  1.00  0.00     0.116 A 
HETATM   27  C   UNL     1     -47.175  56.873 -60.431  1.00  0.00     0.020 A 
HETATM   28  C   UNL     1     -45.966  56.293 -60.043  1.00  0.00     0.013 A 
ENDBRANCH  18  23
ENDBRANCH  13  14
ENDBRANCH  10  13
BRANCH   1  29
HETATM   29  C   UNL     1     -43.091  55.272 -52.883  1.00  0.00     0.276 C 
BRANCH  29  30
HETATM   30  C   UNL     1     -41.982  54.447 -53.490  1.00  0.00     0.001 A 
HETATM   31  C   UNL     1     -41.272  53.504 -52.718  1.00  0.00     0.077 A 
HETATM   32  C   UNL     1     -40.257  52.748 -53.311  1.00  0.00     0.037 A 
HETATM   33  C   UNL     1     -39.942  52.923 -54.660  1.00  0.00     0.003 A 
HETATM   34  C   UNL     1     -40.622  53.866 -55.422  1.00  0.00     0.001 A 
HETATM   35  C   UNL     1     -41.629  54.633 -54.841  1.00  0.00     0.012 A 
BRANCH  31  36
HETATM   36  O   UNL     1     -41.649  53.410 -51.405  1.00  0.00    -0.347 OA
BRANCH  36  37
HETATM   37  C   UNL     1     -40.716  52.950 -50.423  1.00  0.00     0.202 C 
BRANCH  37  38
HETATM   38  C   UNL     1     -40.214  54.074 -49.574  1.00  0.00    -0.011 C 
HETATM   39  C   UNL     1     -40.976  54.785 -48.732  1.00  0.00     0.009 C 
ENDBRANCH  37  38
ENDBRANCH  36  37
ENDBRANCH  31  36
ENDBRANCH  29  30
ENDBRANCH   1  29
TORSDOF 9
ENDMDL
MODEL 2
REMARK VINA RESULT:      -8.2      3.500      7.654
REMARK  9 active torsions:
REMARK  status: ('A' for Active; 'I' for Inactive)
REMARK    1  A    between atoms: C_2  and  C_3 
REMARK    2  A    between atoms: C_3  and  O_4 
REMARK    3  A    between atoms: O_4  and  C_5 
REMARK    4  A    between atoms: C_6  and  C_7 
REMARK    5  A    between atoms: C_7  and  N_8 
REMARK    6  A    between atoms: C_17  and  C_18 
REMARK    7  A    between atoms: C_18  and  N_19 
REMARK    8  A    between atoms: C_23  and  O_24 
REMARK    9  A    between atoms: C_23  and  C_25 
ROOT
HETATM    1  N   UNL     1     -42.643  54.641 -54.559  1.00  0.00    -0.061 N 
HETATM    2  H   UNL     1     -42.894  53.687 -54.275  1.00  0.00     0.280 HD
HETATM    3  C   UNL     1     -43.610  55.529 -53.811  1.00  0.00     0.276 C 
HETATM    4  C   UNL     1     -43.375  57.009 -53.939  1.00  0.00     0.002 A 
HETATM    5  C   UNL     1     -43.497  57.630 -55.182  1.00  0.00     0.076 A 
HETATM    6  O   UNL     1     -43.807  56.907 -56.300  1.00  0.00    -0.349 OA
HETATM    7  C   UNL     1     -42.721  56.053 -56.689  1.00  0.00     0.203 C 
HETATM    8  C   UNL     1     -42.861  54.660 -56.065  1.00  0.00     0.262 C 
HETATM    9  C   UNL     1     -43.063  57.804 -52.820  1.00  0.00     0.020 A 
HETATM   10  C   UNL     1     -42.870  59.193 -52.944  1.00  0.00    -0.032 A 
HETATM   11  C   UNL     1     -43.041  59.787 -54.204  1.00  0.00     0.011 A 
HETATM   12  C   UNL     1     -43.364  59.008 -55.315  1.00  0.00     0.038 A 
ENDROOT
BRANCH  10  13
HETATM   13  C   UNL     1     -42.441  60.033 -51.767  1.00  0.00     0.273 C 
BRANCH  13  14
HETATM   14  N   UNL     1     -43.292  61.262 -51.518  1.00  0.00    -0.067 N 
HETATM   15  H   UNL     1     -43.184  61.870 -52.343  1.00  0.00     0.280 HD
HETATM   16  C   UNL     1     -44.758  60.928 -51.392  1.00  0.00     0.238 C 
HETATM   17  C   UNL     1     -45.572  62.176 -51.081  1.00  0.00     0.071 C 
HETATM   18  C   UNL     1     -45.080  62.911 -49.817  1.00  0.00     0.089 C 
HETATM   19  C   UNL     1     -43.605  63.269 -50.082  1.00  0.00     0.071 C 
HETATM   20  C   UNL     1     -42.762  62.031 -50.326  1.00  0.00     0.238 C 
BRANCH  18  21
HETATM   21  O   UNL     1     -45.794  64.146 -49.771  1.00  0.00    -0.385 OA
HETATM   22  H   UNL     1     -45.193  64.878 -49.535  1.00  0.00     0.211 HD
ENDBRANCH  18  21
BRANCH  18  23
HETATM   23  C   UNL     1     -45.299  62.178 -48.498  1.00  0.00    -0.006 A 
HETATM   24  C   UNL     1     -45.836  60.893 -48.428  1.00  0.00     0.126 A 
HETATM   25  N   UNL     1     -45.982  60.176 -47.293  1.00  0.00    -0.272 NA
HETATM   26  C   UNL     1     -45.668  60.785 -46.133  1.00  0.00     0.116 A 
HETATM   27  C   UNL     1     -45.192  62.079 -46.068  1.00  0.00     0.020 A 
HETATM   28  C   UNL     1     -45.011  62.779 -47.261  1.00  0.00     0.013 A 
ENDBRANCH  18  23
ENDBRANCH  13  14
ENDBRANCH  10  13
BRANCH   1  29
HETATM   29  C   UNL     1     -41.182  54.793 -54.162  1.00  0.00     0.276 C 
BRANCH  29  30
HETATM   30  C   UNL     1     -40.592  53.590 -53.465  1.00  0.00     0.001 A 
HETATM   31  C   UNL     1     -40.516  53.531 -52.057  1.00  0.00     0.077 A 
HETATM   32  C   UNL     1     -39.974  52.400 -51.442  1.00  0.00     0.037 A 
HETATM   33  C   UNL     1     -39.504  51.333 -52.211  1.00  0.00     0.003 A 
HETATM   34  C   UNL     1     -39.554  51.394 -53.599  1.00  0.00     0.001 A 
HETATM   35  C   UNL     1     -40.084  52.520 -54.226  1.00  0.00     0.012 A 
BRANCH  31  36
HETATM   36  O   UNL     1     -40.996  54.627 -51.392  1.00  0.00    -0.347 OA
BRANCH  36  37
HETATM   37  C   UNL     1     -41.817  54.459 -50.233  1.00  0.00     0.202 C 
BRANCH  37  38
HETATM   38  C   UNL     1     -41.119  54.919 -48.994  1.00  0.00    -0.011 C 
HETATM   39  C   UNL     1     -40.394  54.125 -48.194  1.00  0.00     0.009 C 
ENDBRANCH  37  38
ENDBRANCH  36  37
ENDBRANCH  31  36
ENDBRANCH  29  30
ENDBRANCH   1  29
TORSDOF 9
ENDMDL
MODEL 3
REMARK VINA RESULT:      -8.2      3.906      8.119
REMARK  9 active torsions:
REMARK  status: ('A' for Active; 'I' for Inactive)
REMARK    1  A    between atoms: C_2  and  C_3 
REMARK    2  A    between atoms: C_3  and  O_4 
REMARK    3  A    between atoms: O_4  and  C_5 
REMARK    4  A    between atoms: C_6  and  C_7 
REMARK    5  A    between atoms: C_7  and  N_8 
REMARK    6  A    between atoms: C_17  and  C_18 
REMARK    7  A    between atoms: C_18  and  N_19 
REMARK    8  A    between atoms: C_23  and  O_24 
REMARK    9  A    between atoms: C_23  and  C_25 
ROOT
HETATM    1  N   UNL     1     -42.010  54.543 -54.116  1.00  0.00    -0.061 N 
HETATM    2  H   UNL     1     -41.882  53.534 -53.975  1.00  0.00     0.280 HD
HETATM    3  C   UNL     1     -43.430  54.815 -53.676  1.00  0.00     0.276 C 
HETATM    4  C   UNL     1     -43.843  56.260 -53.647  1.00  0.00     0.002 A 
HETATM    5  C   UNL     1     -43.885  56.996 -54.831  1.00  0.00     0.076 A 
HETATM    6  O   UNL     1     -43.534  56.429 -56.024  1.00  0.00    -0.349 OA
HETATM    7  C   UNL     1     -42.124  56.170 -56.085  1.00  0.00     0.203 C 
HETATM    8  C   UNL     1     -41.800  54.749 -55.609  1.00  0.00     0.262 C 
HETATM    9  C   UNL     1     -44.224  56.893 -52.450  1.00  0.00     0.020 A 
HETATM   10  C   UNL     1     -44.635  58.241 -52.436  1.00  0.00    -0.032 A 
HETATM   11  C   UNL     1     -44.703  58.936 -53.653  1.00  0.00     0.011 A 
HETATM   12  C   UNL     1     -44.340  58.311 -54.846  1.00  0.00     0.038 A 
ENDROOT
BRANCH  10  13
HETATM   13  C   UNL     1     -44.952  58.950 -51.143  1.00  0.00     0.273 C 
BRANCH  13  14
HETATM   14  N   UNL     1     -44.774  60.454 -51.182  1.00  0.00    -0.067 N 
HETATM   15  H   UNL     1     -44.320  60.676 -52.079  1.00  0.00     0.280 HD
HETATM   16  C   UNL     1     -46.092  61.188 -51.149  1.00  0.00     0.238 C 
HETATM   17  C   UNL     1     -45.871  62.694 -51.126  1.00  0.00     0.071 C 
HETATM   18  C   UNL     1     -44.976  63.149 -49.955  1.00  0.00     0.089 C 
HETATM   19  C   UNL     1     -43.640  62.401 -50.127  1.00  0.00     0.071 C 
HETATM   20  C   UNL     1     -43.830  60.896 -50.083  1.00  0.00     0.238 C 
BRANCH  18  21
HETATM   21  O   UNL     1     -44.697  64.531 -50.180  1.00  0.00    -0.385 OA
HETATM   22  H   UNL     1     -44.865  64.766 -51.112  1.00  0.00     0.211 HD
ENDBRANCH  18  21
BRANCH  18  23
HETATM   23  C   UNL     1     -45.580  63.000 -48.563  1.00  0.00    -0.006 A 
HETATM   24  C   UNL     1     -46.878  62.536 -48.349  1.00  0.00     0.126 A 
HETATM   25  N   UNL     1     -47.431  62.318 -47.136  1.00  0.00    -0.272 NA
HETATM   26  C   UNL     1     -46.705  62.661 -46.055  1.00  0.00     0.116 A 
HETATM   27  C   UNL     1     -45.435  63.195 -46.141  1.00  0.00     0.020 A 
HETATM   28  C   UNL     1     -44.873  63.368 -47.406  1.00  0.00     0.013 A 
ENDBRANCH  18  23
ENDBRANCH  13  14
ENDBRANCH  10  13
BRANCH   1  29
HETATM   29  C   UNL     1     -40.930  55.193 -53.263  1.00  0.00     0.276 C 
BRANCH  29  30
HETATM   30  C   UNL     1     -40.859  54.683 -51.844  1.00  0.00     0.001 A 
HETATM   31  C   UNL     1     -40.526  53.339 -51.571  1.00  0.00     0.077 A 
HETATM   32  C   UNL     1     -40.457  52.900 -50.246  1.00  0.00     0.037 A 
HETATM   33  C   UNL     1     -40.719  53.780 -49.195  1.00  0.00     0.003 A 
HETATM   34  C   UNL     1     -41.070  55.100 -49.456  1.00  0.00     0.001 A 
HETATM   35  C   UNL     1     -41.151  55.548 -50.773  1.00  0.00     0.012 A 
BRANCH  31  36
HETATM   36  O   UNL     1     -40.293  52.552 -52.666  1.00  0.00    -0.347 OA
BRANCH  36  37
HETATM   37  C   UNL     1     -39.438  51.410 -52.560  1.00  0.00     0.202 C 
BRANCH  37  38
HETATM   38  C   UNL     1     -39.445  50.600 -53.817  1.00  0.00    -0.011 C 
HETATM   39  C   UNL     1     -40.554  50.168 -54.433  1.00  0.00     0.009 C 
ENDBRANCH  37  38
ENDBRANCH  36  37
ENDBRANCH  31  36
ENDBRANCH  29  30
ENDBRANCH   1  29
TORSDOF 9
ENDMDL
MODEL 4
REMARK VINA RESULT:      -7.8      2.179      8.003
REMARK  9 active torsions:
REMARK  status: ('A' for Active; 'I' for Inactive)
REMARK    1  A    between atoms: C_2  and  C_3 
REMARK    2  A    between atoms: C_3  and  O_4 
REMARK    3  A    between atoms: O_4  and  C_5 
REMARK    4  A    between atoms: C_6  and  C_7 
REMARK    5  A    between atoms: C_7  and  N_8 
REMARK    6  A    between atoms: C_17  and  C_18 
REMARK    7  A    between atoms: C_18  and  N_19 
REMARK    8  A    between atoms: C_23  and  O_24 
REMARK    9  A    between atoms: C_23  and  C_25 
ROOT
HETATM    1  N   UNL     1     -46.729  59.185 -58.825  1.00  0.00    -0.061 N 
HETATM    2  H   UNL     1     -47.500  58.766 -59.357  1.00  0.00     0.280 HD
HETATM    3  C   UNL     1     -46.707  58.423 -57.519  1.00  0.00     0.276 C 
HETATM    4  C   UNL     1     -45.568  58.744 -56.592  1.00  0.00     0.002 A 
HETATM    5  C   UNL     1     -45.451  60.023 -56.047  1.00  0.00     0.076 A 
HETATM    6  O   UNL     1     -46.349  61.005 -56.361  1.00  0.00    -0.349 OA
HETATM    7  C   UNL     1     -46.201  61.431 -57.724  1.00  0.00     0.203 C 
HETATM    8  C   UNL     1     -47.129  60.643 -58.656  1.00  0.00     0.262 C 
HETATM    9  C   UNL     1     -44.620  57.770 -56.225  1.00  0.00     0.020 A 
HETATM   10  C   UNL     1     -43.571  58.072 -55.335  1.00  0.00    -0.032 A 
HETATM   11  C   UNL     1     -43.512  59.358 -54.777  1.00  0.00     0.011 A 
HETATM   12  C   UNL     1     -44.455  60.325 -55.124  1.00  0.00     0.038 A 
ENDROOT
BRANCH  10  13
HETATM   13  C   UNL     1     -42.499  57.060 -55.014  1.00  0.00     0.273 C 
BRANCH  13  14
HETATM   14  N   UNL     1     -42.577  56.469 -53.622  1.00  0.00    -0.067 N 
HETATM   15  H   UNL     1     -43.119  57.132 -53.048  1.00  0.00     0.280 HD
HETATM   16  C   UNL     1     -43.310  55.150 -53.599  1.00  0.00     0.238 C 
HETATM   17  C   UNL     1     -43.313  54.558 -52.197  1.00  0.00     0.071 C 
HETATM   18  C   UNL     1     -41.896  54.392 -51.614  1.00  0.00     0.089 C 
HETATM   19  C   UNL     1     -41.270  55.801 -51.614  1.00  0.00     0.071 C 
HETATM   20  C   UNL     1     -41.193  56.381 -53.013  1.00  0.00     0.238 C 
BRANCH  18  21
HETATM   21  O   UNL     1     -42.067  54.026 -50.245  1.00  0.00    -0.385 OA
HETATM   22  H   UNL     1     -41.903  54.793 -49.664  1.00  0.00     0.211 HD
ENDBRANCH  18  21
BRANCH  18  23
HETATM   23  C   UNL     1     -41.021  53.340 -52.288  1.00  0.00    -0.006 A 
HETATM   24  C   UNL     1     -39.998  52.668 -51.619  1.00  0.00     0.126 A 
HETATM   25  N   UNL     1     -39.246  51.680 -52.150  1.00  0.00    -0.272 NA
HETATM   26  C   UNL     1     -39.440  51.387 -53.451  1.00  0.00     0.116 A 
HETATM   27  C   UNL     1     -40.375  52.030 -54.235  1.00  0.00     0.020 A 
HETATM   28  C   UNL     1     -41.167  53.017 -53.648  1.00  0.00     0.013 A 
ENDBRANCH  18  23
ENDBRANCH  13  14
ENDBRANCH  10  13
BRANCH   1  29
HETATM   29  C   UNL     1     -45.503  58.997 -59.706  1.00  0.00     0.276 C 
BRANCH  29  30
HETATM   30  C   UNL     1     -45.055  57.564 -59.864  1.00  0.00     0.001 A 
HETATM   31  C   UNL     1     -43.685  57.227 -59.871  1.00  0.00     0.077 A 
HETATM   32  C   UNL     1     -43.303  55.890 -60.008  1.00  0.00     0.037 A 
HETATM   33  C   UNL     1     -44.267  54.889 -60.140  1.00  0.00     0.003 A 
HETATM   34  C   UNL     1     -45.618  55.215 -60.157  1.00  0.00     0.001 A 
HETATM   35  C   UNL     1     -46.013  56.545 -60.031  1.00  0.00     0.012 A 
BRANCH  31  36
HETATM   36  O   UNL     1     -42.817  58.278 -59.742  1.00  0.00    -0.347 OA
BRANCH  36  37
HETATM   37  C   UNL     1     -41.850  58.282 -58.688  1.00  0.00     0.202 C 
BRANCH  37  38
HETATM   38  C   UNL     1     -41.796  59.607 -57.998  1.00  0.00    -0.011 C 
HETATM   39  C   UNL     1     -42.399  60.718 -58.443  1.00  0.00     0.009 C 
ENDBRANCH  37  38
ENDBRANCH  36  37
ENDBRANCH  31  36
ENDBRANCH  29  30
ENDBRANCH   1  29
TORSDOF 9
ENDMDL
MODEL 5
REMARK VINA RESULT:      -7.8      1.952      7.827
REMARK  9 active torsions:
REMARK  status: ('A' for Active; 'I' for Inactive)
REMARK    1  A    between atoms: C_2  and  C_3 
REMARK    2  A    between atoms: C_3  and  O_4 
REMARK    3  A    between atoms: O_4  and  C_5 
REMARK    4  A    between atoms: C_6  and  C_7 
REMARK    5  A    between atoms: C_7  and  N_8 
REMARK    6  A    between atoms: C_17  and  C_18 
REMARK    7  A    between atoms: C_18  and  N_19 
REMARK    8  A    between atoms: C_23  and  O_24 
REMARK    9  A    between atoms: C_23  and  C_25 
ROOT
HETATM    1  N   UNL     1     -43.762  60.094 -56.211  1.00  0.00    -0.061 N 
HETATM    2  H   UNL     1     -44.090  60.064 -57.183  1.00  0.00     0.280 HD
HETATM    3  C   UNL     1     -44.906  59.527 -55.403  1.00  0.00     0.276 C 
HETATM    4  C   UNL     1     -44.637  59.324 -53.938  1.00  0.00     0.002 A 
HETATM    5  C   UNL     1     -44.375  60.423 -53.118  1.00  0.00     0.076 A 
HETATM    6  O   UNL     1     -44.335  61.689 -53.632  1.00  0.00    -0.349 OA
HETATM    7  C   UNL     1     -43.186  61.877 -54.471  1.00  0.00     0.203 C 
HETATM    8  C   UNL     1     -43.513  61.570 -55.937  1.00  0.00     0.262 C 
HETATM    9  C   UNL     1     -44.675  58.045 -53.352  1.00  0.00     0.020 A 
HETATM   10  C   UNL     1     -44.448  57.868 -51.973  1.00  0.00    -0.032 A 
HETATM   11  C   UNL     1     -44.228  59.001 -51.176  1.00  0.00     0.011 A 
HETATM   12  C   UNL     1     -44.203  60.273 -51.746  1.00  0.00     0.038 A 
ENDROOT
BRANCH  10  13
HETATM   13  C   UNL     1     -44.393  56.490 -51.359  1.00  0.00     0.273 C 
BRANCH  13  14
HETATM   14  N   UNL     1     -43.103  56.168 -50.633  1.00  0.00    -0.067 N 
HETATM   15  H   UNL     1     -43.066  56.781 -49.806  1.00  0.00     0.280 HD
HETATM   16  C   UNL     1     -43.063  54.742 -50.140  1.00  0.00     0.238 C 
HETATM   17  C   UNL     1     -41.730  54.438 -49.473  1.00  0.00     0.071 C 
HETATM   18  C   UNL     1     -40.523  54.720 -50.391  1.00  0.00     0.089 C 
HETATM   19  C   UNL     1     -40.619  56.211 -50.772  1.00  0.00     0.071 C 
HETATM   20  C   UNL     1     -41.913  56.521 -51.502  1.00  0.00     0.238 C 
BRANCH  18  21
HETATM   21  O   UNL     1     -39.360  54.586 -49.575  1.00  0.00    -0.385 OA
HETATM   22  H   UNL     1     -38.706  54.003 -50.005  1.00  0.00     0.211 HD
ENDBRANCH  18  21
BRANCH  18  23
HETATM   23  C   UNL     1     -40.376  53.795 -51.595  1.00  0.00    -0.006 A 
HETATM   24  C   UNL     1     -39.873  52.498 -51.492  1.00  0.00     0.126 A 
HETATM   25  N   UNL     1     -39.791  51.617 -52.513  1.00  0.00    -0.272 NA
HETATM   26  C   UNL     1     -40.138  52.058 -53.738  1.00  0.00     0.116 A 
HETATM   27  C   UNL     1     -40.585  53.342 -53.977  1.00  0.00     0.020 A 
HETATM   28  C   UNL     1     -40.700  54.216 -52.895  1.00  0.00     0.013 A 
ENDBRANCH  18  23
ENDBRANCH  13  14
ENDBRANCH  10  13
BRANCH   1  29
HETATM   29  C   UNL     1     -42.489  59.260 -56.206  1.00  0.00     0.276 C 
BRANCH  29  30
HETATM   30  C   UNL     1     -42.677  57.822 -56.627  1.00  0.00     0.001 A 
HETATM   31  C   UNL     1     -43.172  57.499 -57.908  1.00  0.00     0.077 A 
HETATM   32  C   UNL     1     -43.325  56.159 -58.272  1.00  0.00     0.037 A 
HETATM   33  C   UNL     1     -42.996  55.141 -57.375  1.00  0.00     0.003 A 
HETATM   34  C   UNL     1     -42.529  55.451 -56.102  1.00  0.00     0.001 A 
HETATM   35  C   UNL     1     -42.381  56.783 -55.724  1.00  0.00     0.012 A 
BRANCH  31  36
HETATM   36  O   UNL     1     -43.472  58.565 -58.713  1.00  0.00    -0.347 OA
BRANCH  36  37
HETATM   37  C   UNL     1     -44.590  58.498 -59.603  1.00  0.00     0.202 C 
BRANCH  37  38
HETATM   38  C   UNL     1     -45.872  58.803 -58.899  1.00  0.00    -0.011 C 
HETATM   39  C   UNL     1     -46.790  57.885 -58.566  1.00  0.00     0.009 C 
ENDBRANCH  37  38
ENDBRANCH  36  37
ENDBRANCH  31  36
ENDBRANCH  29  30
ENDBRANCH   1  29
TORSDOF 9
ENDMDL
MODEL 6
REMARK VINA RESULT:      -7.8      1.866      3.393
REMARK  9 active torsions:
REMARK  status: ('A' for Active; 'I' for Inactive)
REMARK    1  A    between atoms: C_2  and  C_3 
REMARK    2  A    between atoms: C_3  and  O_4 
REMARK    3  A    between atoms: O_4  and  C_5 
REMARK    4  A    between atoms: C_6  and  C_7 
REMARK    5  A    between atoms: C_7  and  N_8 
REMARK    6  A    between atoms: C_17  and  C_18 
REMARK    7  A    between atoms: C_18  and  N_19 
REMARK    8  A    between atoms: C_23  and  O_24 
REMARK    9  A    between atoms: C_23  and  C_25 
ROOT
HETATM    1  N   UNL     1     -40.844  58.221 -51.180  1.00  0.00    -0.061 N 
HETATM    2  H   UNL     1     -39.922  57.799 -51.022  1.00  0.00     0.280 HD
HETATM    3  C   UNL     1     -40.772  58.786 -52.580  1.00  0.00     0.276 C 
HETATM    4  C   UNL     1     -42.054  59.350 -53.127  1.00  0.00     0.002 A 
HETATM    5  C   UNL     1     -42.640  60.462 -52.522  1.00  0.00     0.076 A 
HETATM    6  O   UNL     1     -42.078  61.039 -51.418  1.00  0.00    -0.349 OA
HETATM    7  C   UNL     1     -42.195  60.190 -50.267  1.00  0.00     0.203 C 
HETATM    8  C   UNL     1     -40.960  59.296 -50.109  1.00  0.00     0.262 C 
HETATM    9  C   UNL     1     -42.672  58.802 -54.267  1.00  0.00     0.020 A 
HETATM   10  C   UNL     1     -43.859  59.353 -54.787  1.00  0.00    -0.032 A 
HETATM   11  C   UNL     1     -44.396  60.496 -54.176  1.00  0.00     0.011 A 
HETATM   12  C   UNL     1     -43.782  61.052 -53.054  1.00  0.00     0.038 A 
ENDROOT
BRANCH  10  13
HETATM   13  C   UNL     1     -44.576  58.712 -55.950  1.00  0.00     0.273 C 
BRANCH  13  14
HETATM   14  N   UNL     1     -43.676  57.995 -56.936  1.00  0.00    -0.067 N 
HETATM   15  H   UNL     1     -43.249  57.206 -56.430  1.00  0.00     0.280 HD
HETATM   16  C   UNL     1     -44.446  57.421 -58.101  1.00  0.00     0.238 C 
HETATM   17  C   UNL     1     -43.503  56.765 -59.099  1.00  0.00     0.071 C 
HETATM   18  C   UNL     1     -42.405  57.722 -59.604  1.00  0.00     0.089 C 
HETATM   19  C   UNL     1     -41.639  58.188 -58.350  1.00  0.00     0.071 C 
HETATM   20  C   UNL     1     -42.548  58.907 -57.372  1.00  0.00     0.238 C 
BRANCH  18  21
HETATM   21  O   UNL     1     -41.495  56.924 -60.360  1.00  0.00    -0.385 OA
HETATM   22  H   UNL     1     -41.981  56.287 -60.917  1.00  0.00     0.211 HD
ENDBRANCH  18  21
BRANCH  18  23
HETATM   23  C   UNL     1     -42.883  58.872 -60.485  1.00  0.00    -0.006 A 
HETATM   24  C   UNL     1     -44.231  59.103 -60.759  1.00  0.00     0.126 A 
HETATM   25  N   UNL     1     -44.707  60.147 -61.471  1.00  0.00    -0.272 NA
HETATM   26  C   UNL     1     -43.805  60.975 -62.032  1.00  0.00     0.116 A 
HETATM   27  C   UNL     1     -42.443  60.811 -61.889  1.00  0.00     0.020 A 
HETATM   28  C   UNL     1     -41.981  59.748 -61.112  1.00  0.00     0.013 A 
ENDBRANCH  18  23
ENDBRANCH  13  14
ENDBRANCH  10  13
BRANCH   1  29
HETATM   29  C   UNL     1     -41.831  57.078 -50.992  1.00  0.00     0.276 C 
BRANCH  29  30
HETATM   30  C   UNL     1     -41.203  55.706 -50.945  1.00  0.00     0.001 A 
HETATM   31  C   UNL     1     -41.151  54.892 -52.096  1.00  0.00     0.077 A 
HETATM   32  C   UNL     1     -40.553  53.631 -52.024  1.00  0.00     0.037 A 
HETATM   33  C   UNL     1     -40.012  53.172 -50.821  1.00  0.00     0.003 A 
HETATM   34  C   UNL     1     -40.080  53.960 -49.677  1.00  0.00     0.001 A 
HETATM   35  C   UNL     1     -40.681  55.215 -49.733  1.00  0.00     0.012 A 
BRANCH  31  36
HETATM   36  O   UNL     1     -41.713  55.425 -53.225  1.00  0.00    -0.347 OA
BRANCH  36  37
HETATM   37  C   UNL     1     -40.965  55.473 -54.443  1.00  0.00     0.202 C 
BRANCH  37  38
HETATM   38  C   UNL     1     -41.859  55.390 -55.639  1.00  0.00    -0.011 C 
HETATM   39  C   UNL     1     -42.915  54.572 -55.740  1.00  0.00     0.009 C 
ENDBRANCH  37  38
ENDBRANCH  36  37
ENDBRANCH  31  36
ENDBRANCH  29  30
ENDBRANCH   1  29
TORSDOF 9
ENDMDL
MODEL 7
REMARK VINA RESULT:      -7.7      2.227      7.497
REMARK  9 active torsions:
REMARK  status: ('A' for Active; 'I' for Inactive)
REMARK    1  A    between atoms: C_2  and  C_3 
REMARK    2  A    between atoms: C_3  and  O_4 
REMARK    3  A    between atoms: O_4  and  C_5 
REMARK    4  A    between atoms: C_6  and  C_7 
REMARK    5  A    between atoms: C_7  and  N_8 
REMARK    6  A    between atoms: C_17  and  C_18 
REMARK    7  A    between atoms: C_18  and  N_19 
REMARK    8  A    between atoms: C_23  and  O_24 
REMARK    9  A    between atoms: C_23  and  C_25 
ROOT
HETATM    1  N   UNL     1     -46.102  59.288 -58.853  1.00  0.00    -0.061 N 
HETATM    2  H   UNL     1     -46.674  58.908 -59.616  1.00  0.00     0.280 HD
HETATM    3  C   UNL     1     -46.723  58.727 -57.594  1.00  0.00     0.276 C 
HETATM    4  C   UNL     1     -45.988  59.018 -56.315  1.00  0.00     0.002 A 
HETATM    5  C   UNL     1     -45.855  60.334 -55.871  1.00  0.00     0.076 A 
HETATM    6  O   UNL     1     -46.366  61.375 -56.595  1.00  0.00    -0.349 OA
HETATM    7  C   UNL     1     -45.631  61.575 -57.812  1.00  0.00     0.203 C 
HETATM    8  C   UNL     1     -46.260  60.797 -58.974  1.00  0.00     0.262 C 
HETATM    9  C   UNL     1     -45.451  57.986 -55.523  1.00  0.00     0.020 A 
HETATM   10  C   UNL     1     -44.787  58.265 -54.313  1.00  0.00    -0.032 A 
HETATM   11  C   UNL     1     -44.709  59.598 -53.880  1.00  0.00     0.011 A 
HETATM   12  C   UNL     1     -45.251  60.625 -54.652  1.00  0.00     0.038 A 
ENDROOT
BRANCH  10  13
HETATM   13  C   UNL     1     -44.126  57.171 -53.511  1.00  0.00     0.273 C 
BRANCH  13  14
HETATM   14  N   UNL     1     -43.103  56.353 -54.272  1.00  0.00    -0.067 N 
HETATM   15  H   UNL     1     -43.210  56.595 -55.268  1.00  0.00     0.280 HD
HETATM   16  C   UNL     1     -41.687  56.693 -53.875  1.00  0.00     0.238 C 
HETATM   17  C   UNL     1     -40.693  55.808 -54.612  1.00  0.00     0.071 C 
HETATM   18  C   UNL     1     -40.960  54.304 -54.405  1.00  0.00     0.089 C 
HETATM   19  C   UNL     1     -42.396  54.055 -54.908  1.00  0.00     0.071 C 
HETATM   20  C   UNL     1     -43.412  54.876 -54.137  1.00  0.00     0.238 C 
BRANCH  18  21
HETATM   21  O   UNL     1     -40.091  53.615 -55.304  1.00  0.00    -0.385 OA
HETATM   22  H   UNL     1     -39.948  52.698 -55.004  1.00  0.00     0.211 HD
ENDBRANCH  18  21
BRANCH  18  23
HETATM   23  C   UNL     1     -40.712  53.776 -52.995  1.00  0.00    -0.006 A 
HETATM   24  C   UNL     1     -40.994  54.520 -51.850  1.00  0.00     0.126 A 
HETATM   25  N   UNL     1     -40.860  54.070 -50.584  1.00  0.00    -0.272 NA
HETATM   26  C   UNL     1     -40.329  52.844 -50.416  1.00  0.00     0.116 A 
HETATM   27  C   UNL     1     -39.946  52.040 -51.470  1.00  0.00     0.020 A 
HETATM   28  C   UNL     1     -40.137  52.514 -52.769  1.00  0.00     0.013 A 
ENDBRANCH  18  23
ENDBRANCH  13  14
ENDBRANCH  10  13
BRANCH   1  29
HETATM   29  C   UNL     1     -44.690  58.806 -59.150  1.00  0.00     0.276 C 
BRANCH  29  30
HETATM   30  C   UNL     1     -44.565  57.316 -59.360  1.00  0.00     0.001 A 
HETATM   31  C   UNL     1     -43.828  56.516 -58.461  1.00  0.00     0.077 A 
HETATM   32  C   UNL     1     -43.739  55.138 -58.677  1.00  0.00     0.037 A 
HETATM   33  C   UNL     1     -44.371  54.552 -59.775  1.00  0.00     0.003 A 
HETATM   34  C   UNL     1     -45.080  55.337 -60.677  1.00  0.00     0.001 A 
HETATM   35  C   UNL     1     -45.168  56.713 -60.480  1.00  0.00     0.012 A 
BRANCH  31  36
HETATM   36  O   UNL     1     -43.240  57.182 -57.420  1.00  0.00    -0.347 OA
BRANCH  36  37
HETATM   37  C   UNL     1     -42.109  58.025 -57.656  1.00  0.00     0.202 C 
BRANCH  37  38
HETATM   38  C   UNL     1     -42.040  59.142 -56.665  1.00  0.00    -0.011 C 
HETATM   39  C   UNL     1     -42.126  60.442 -56.981  1.00  0.00     0.009 C 
ENDBRANCH  37  38
ENDBRANCH  36  37
ENDBRANCH  31  36
ENDBRANCH  29  30
ENDBRANCH   1  29
TORSDOF 9
ENDMDL
MODEL 8
REMARK VINA RESULT:      -7.7      2.181      3.506
REMARK  9 active torsions:
REMARK  status: ('A' for Active; 'I' for Inactive)
REMARK    1  A    between atoms: C_2  and  C_3 
REMARK    2  A    between atoms: C_3  and  O_4 
REMARK    3  A    between atoms: O_4  and  C_5 
REMARK    4  A    between atoms: C_6  and  C_7 
REMARK    5  A    between atoms: C_7  and  N_8 
REMARK    6  A    between atoms: C_17  and  C_18 
REMARK    7  A    between atoms: C_18  and  N_19 
REMARK    8  A    between atoms: C_23  and  O_24 
REMARK    9  A    between atoms: C_23  and  C_25 
ROOT
HETATM    1  N   UNL     1     -42.175  56.514 -53.026  1.00  0.00    -0.061 N 
HETATM    2  H   UNL     1     -41.290  56.350 -52.532  1.00  0.00     0.280 HD
HETATM    3  C   UNL     1     -41.783  57.278 -54.270  1.00  0.00     0.276 C 
HETATM    4  C   UNL     1     -42.886  57.534 -55.258  1.00  0.00     0.002 A 
HETATM    5  C   UNL     1     -43.972  58.333 -54.900  1.00  0.00     0.076 A 
HETATM    6  O   UNL     1     -44.063  58.875 -53.648  1.00  0.00    -0.349 OA
HETATM    7  C   UNL     1     -44.314  57.866 -52.658  1.00  0.00     0.203 C 
HETATM    8  C   UNL     1     -43.005  57.342 -52.056  1.00  0.00     0.262 C 
HETATM    9  C   UNL     1     -42.841  57.010 -56.564  1.00  0.00     0.020 A 
HETATM   10  C   UNL     1     -43.867  57.276 -57.492  1.00  0.00    -0.032 A 
HETATM   11  C   UNL     1     -44.922  58.117 -57.107  1.00  0.00     0.011 A 
HETATM   12  C   UNL     1     -44.966  58.651 -55.819  1.00  0.00     0.038 A 
ENDROOT
BRANCH  10  13
HETATM   13  C   UNL     1     -43.871  56.639 -58.860  1.00  0.00     0.273 C 
BRANCH  13  14
HETATM   14  N   UNL     1     -43.524  57.575 -59.999  1.00  0.00    -0.067 N 
HETATM   15  H   UNL     1     -43.587  57.023 -60.867  1.00  0.00     0.280 HD
HETATM   16  C   UNL     1     -44.501  58.719 -60.119  1.00  0.00     0.238 C 
HETATM   17  C   UNL     1     -44.085  59.670 -61.231  1.00  0.00     0.071 C 
HETATM   18  C   UNL     1     -42.651  60.209 -61.054  1.00  0.00     0.089 C 
HETATM   19  C   UNL     1     -41.734  58.970 -61.019  1.00  0.00     0.071 C 
HETATM   20  C   UNL     1     -42.088  58.042 -59.872  1.00  0.00     0.238 C 
BRANCH  18  21
HETATM   21  O   UNL     1     -42.336  60.911 -62.256  1.00  0.00    -0.385 OA
HETATM   22  H   UNL     1     -42.848  60.552 -63.005  1.00  0.00     0.211 HD
ENDBRANCH  18  21
BRANCH  18  23
HETATM   23  C   UNL     1     -42.440  61.153 -59.875  1.00  0.00    -0.006 A 
HETATM   24  C   UNL     1     -43.496  61.679 -59.131  1.00  0.00     0.126 A 
HETATM   25  N   UNL     1     -43.358  62.459 -58.037  1.00  0.00    -0.272 NA
HETATM   26  C   UNL     1     -42.108  62.828 -57.695  1.00  0.00     0.116 A 
HETATM   27  C   UNL     1     -40.988  62.428 -58.395  1.00  0.00     0.020 A 
HETATM   28  C   UNL     1     -41.159  61.588 -59.495  1.00  0.00     0.013 A 
ENDBRANCH  18  23
ENDBRANCH  13  14
ENDBRANCH  10  13
BRANCH   1  29
HETATM   29  C   UNL     1     -42.746  55.126 -53.271  1.00  0.00     0.276 C 
BRANCH  29  30
HETATM   30  C   UNL     1     -41.727  54.012 -53.240  1.00  0.00     0.001 A 
HETATM   31  C   UNL     1     -40.898  53.816 -52.115  1.00  0.00     0.077 A 
HETATM   32  C   UNL     1     -39.972  52.770 -52.113  1.00  0.00     0.037 A 
HETATM   33  C   UNL     1     -39.860  51.922 -53.216  1.00  0.00     0.003 A 
HETATM   34  C   UNL     1     -40.657  52.123 -54.338  1.00  0.00     0.001 A 
HETATM   35  C   UNL     1     -41.578  53.168 -54.357  1.00  0.00     0.012 A 
BRANCH  31  36
HETATM   36  O   UNL     1     -41.077  54.702 -51.087  1.00  0.00    -0.347 OA
BRANCH  36  37
HETATM   37  C   UNL     1     -41.735  54.284 -49.887  1.00  0.00     0.202 C 
BRANCH  37  38
HETATM   38  C   UNL     1     -40.985  54.719 -48.669  1.00  0.00    -0.011 C 
HETATM   39  C   UNL     1     -40.234  53.907 -47.913  1.00  0.00     0.009 C 
ENDBRANCH  37  38
ENDBRANCH  36  37
ENDBRANCH  31  36
ENDBRANCH  29  30
ENDBRANCH   1  29
TORSDOF 9
ENDMDL
MODEL 9
REMARK VINA RESULT:      -7.7      1.753      3.207
REMARK  9 active torsions:
REMARK  status: ('A' for Active; 'I' for Inactive)
REMARK    1  A    between atoms: C_2  and  C_3 
REMARK    2  A    between atoms: C_3  and  O_4 
REMARK    3  A    between atoms: O_4  and  C_5 
REMARK    4  A    between atoms: C_6  and  C_7 
REMARK    5  A    between atoms: C_7  and  N_8 
REMARK    6  A    between atoms: C_17  and  C_18 
REMARK    7  A    between atoms: C_18  and  N_19 
REMARK    8  A    between atoms: C_23  and  O_24 
REMARK    9  A    between atoms: C_23  and  C_25 
ROOT
HETATM    1  N   UNL     1     -41.957  55.603 -51.410  1.00  0.00    -0.061 N 
HETATM    2  H   UNL     1     -41.205  55.127 -50.899  1.00  0.00     0.280 HD
HETATM    3  C   UNL     1     -41.343  56.906 -51.869  1.00  0.00     0.276 C 
HETATM    4  C   UNL     1     -42.196  57.751 -52.773  1.00  0.00     0.002 A 
HETATM    5  C   UNL     1     -43.397  58.283 -52.302  1.00  0.00     0.076 A 
HETATM    6  O   UNL     1     -43.826  58.029 -51.029  1.00  0.00    -0.349 OA
HETATM    7  C   UNL     1     -44.223  56.658 -50.875  1.00  0.00     0.203 C 
HETATM    8  C   UNL     1     -43.058  55.796 -50.378  1.00  0.00     0.262 C 
HETATM    9  C   UNL     1     -41.800  58.054 -54.089  1.00  0.00     0.020 A 
HETATM   10  C   UNL     1     -42.593  58.868 -54.921  1.00  0.00    -0.032 A 
HETATM   11  C   UNL     1     -43.773  59.417 -54.397  1.00  0.00     0.011 A 
HETATM   12  C   UNL     1     -44.166  59.134 -53.089  1.00  0.00     0.038 A 
ENDROOT
BRANCH  10  13
HETATM   13  C   UNL     1     -42.220  59.116 -56.361  1.00  0.00     0.273 C 
BRANCH  13  14
HETATM   14  N   UNL     1     -43.354  59.607 -57.238  1.00  0.00    -0.067 N 
HETATM   15  H   UNL     1     -43.570  60.567 -56.933  1.00  0.00     0.280 HD
HETATM   16  C   UNL     1     -42.965  59.673 -58.695  1.00  0.00     0.238 C 
HETATM   17  C   UNL     1     -44.146  60.109 -59.549  1.00  0.00     0.071 C 
HETATM   18  C   UNL     1     -45.383  59.206 -59.366  1.00  0.00     0.089 C 
HETATM   19  C   UNL     1     -45.736  59.271 -57.867  1.00  0.00     0.071 C 
HETATM   20  C   UNL     1     -44.596  58.773 -57.000  1.00  0.00     0.238 C 
BRANCH  18  21
HETATM   21  O   UNL     1     -46.452  59.848 -60.061  1.00  0.00    -0.385 OA
HETATM   22  H   UNL     1     -46.449  59.592 -61.003  1.00  0.00     0.211 HD
ENDBRANCH  18  21
BRANCH  18  23
HETATM   23  C   UNL     1     -45.249  57.783 -59.897  1.00  0.00    -0.006 A 
HETATM   24  C   UNL     1     -44.088  57.313 -60.512  1.00  0.00     0.126 A 
HETATM   25  N   UNL     1     -43.895  56.044 -60.932  1.00  0.00    -0.272 NA
HETATM   26  C   UNL     1     -44.935  55.194 -60.830  1.00  0.00     0.116 A 
HETATM   27  C   UNL     1     -46.157  55.561 -60.303  1.00  0.00     0.020 A 
HETATM   28  C   UNL     1     -46.313  56.867 -59.838  1.00  0.00     0.013 A 
ENDBRANCH  18  23
ENDBRANCH  13  14
ENDBRANCH  10  13
BRANCH   1  29
HETATM   29  C   UNL     1     -42.340  54.639 -52.523  1.00  0.00     0.276 C 
BRANCH  29  30
HETATM   30  C   UNL     1     -41.350  53.523 -52.757  1.00  0.00     0.001 A 
HETATM   31  C   UNL     1     -41.205  52.936 -54.032  1.00  0.00     0.077 A 
HETATM   32  C   UNL     1     -40.273  51.912 -54.218  1.00  0.00     0.037 A 
HETATM   33  C   UNL     1     -39.490  51.465 -53.152  1.00  0.00     0.003 A 
HETATM   34  C   UNL     1     -39.644  52.023 -51.887  1.00  0.00     0.001 A 
HETATM   35  C   UNL     1     -40.576  53.038 -51.686  1.00  0.00     0.012 A 
BRANCH  31  36
HETATM   36  O   UNL     1     -42.020  53.436 -55.011  1.00  0.00    -0.347 OA
BRANCH  36  37
HETATM   37  C   UNL     1     -41.677  54.655 -55.675  1.00  0.00     0.202 C 
BRANCH  37  38
HETATM   38  C   UNL     1     -42.880  55.315 -56.268  1.00  0.00    -0.011 C 
HETATM   39  C   UNL     1     -42.993  55.665 -57.557  1.00  0.00     0.009 C 
ENDBRANCH  37  38
ENDBRANCH  36  37
ENDBRANCH  31  36
ENDBRANCH  29  30
ENDBRANCH   1  29
TORSDOF 9
ENDMDL
MODEL 10
REMARK VINA RESULT:      -7.5      2.290      7.761
REMARK  9 active torsions:
REMARK  status: ('A' for Active; 'I' for Inactive)
REMARK    1  A    between atoms: C_2  and  C_3 
REMARK    2  A    between atoms: C_3  and  O_4 
REMARK    3  A    between atoms: O_4  and  C_5 
REMARK    4  A    between atoms: C_6  and  C_7 
REMARK    5  A    between atoms: C_7  and  N_8 
REMARK    6  A    between atoms: C_17  and  C_18 
REMARK    7  A    between atoms: C_18  and  N_19 
REMARK    8  A    between atoms: C_23  and  O_24 
REMARK    9  A    between atoms: C_23  and  C_25 
ROOT
HETATM    1  N   UNL     1     -42.695  61.215 -57.098  1.00  0.00    -0.061 N 
HETATM    2  H   UNL     1     -42.103  61.941 -56.679  1.00  0.00     0.280 HD
HETATM    3  C   UNL     1     -41.760  60.051 -57.340  1.00  0.00     0.276 C 
HETATM    4  C   UNL     1     -42.404  58.784 -57.829  1.00  0.00     0.002 A 
HETATM    5  C   UNL     1     -43.038  58.758 -59.072  1.00  0.00     0.076 A 
HETATM    6  O   UNL     1     -43.104  59.879 -59.850  1.00  0.00    -0.349 OA
HETATM    7  C   UNL     1     -43.982  60.861 -59.279  1.00  0.00     0.203 C 
HETATM    8  C   UNL     1     -43.212  61.840 -58.385  1.00  0.00     0.262 C 
HETATM    9  C   UNL     1     -42.358  57.596 -57.075  1.00  0.00     0.020 A 
HETATM   10  C   UNL     1     -42.942  56.407 -57.553  1.00  0.00    -0.032 A 
HETATM   11  C   UNL     1     -43.534  56.410 -58.825  1.00  0.00     0.011 A 
HETATM   12  C   UNL     1     -43.571  57.579 -59.584  1.00  0.00     0.038 A 
ENDROOT
BRANCH  10  13
HETATM   13  C   UNL     1     -42.979  55.158 -56.707  1.00  0.00     0.273 C 
BRANCH  13  14
HETATM   14  N   UNL     1     -42.629  55.366 -55.248  1.00  0.00    -0.067 N 
HETATM   15  H   UNL     1     -42.966  56.307 -54.993  1.00  0.00     0.280 HD
HETATM   16  C   UNL     1     -43.327  54.378 -54.344  1.00  0.00     0.238 C 
HETATM   17  C   UNL     1     -42.903  54.578 -52.897  1.00  0.00     0.071 C 
HETATM   18  C   UNL     1     -41.376  54.495 -52.702  1.00  0.00     0.089 C 
HETATM   19  C   UNL     1     -40.773  55.588 -53.607  1.00  0.00     0.071 C 
HETATM   20  C   UNL     1     -41.126  55.367 -55.065  1.00  0.00     0.238 C 
BRANCH  18  21
HETATM   21  O   UNL     1     -41.121  54.898 -51.357  1.00  0.00    -0.385 OA
HETATM   22  H   UNL     1     -40.979  55.863 -51.311  1.00  0.00     0.211 HD
ENDBRANCH  18  21
BRANCH  18  23
HETATM   23  C   UNL     1     -40.755  53.119 -52.918  1.00  0.00    -0.006 A 
HETATM   24  C   UNL     1     -40.038  52.450 -51.926  1.00  0.00     0.126 A 
HETATM   25  N   UNL     1     -39.533  51.203 -52.045  1.00  0.00    -0.272 NA
HETATM   26  C   UNL     1     -39.654  50.598 -53.242  1.00  0.00     0.116 A 
HETATM   27  C   UNL     1     -40.282  51.186 -54.321  1.00  0.00     0.020 A 
HETATM   28  C   UNL     1     -40.832  52.458 -54.156  1.00  0.00     0.013 A 
ENDBRANCH  18  23
ENDBRANCH  13  14
ENDBRANCH  10  13
BRANCH   1  29
HETATM   29  C   UNL     1     -43.788  60.965 -56.070  1.00  0.00     0.276 C 
BRANCH  29  30
HETATM   30  C   UNL     1     -43.364  60.121 -54.893  1.00  0.00     0.001 A 
HETATM   31  C   UNL     1     -44.221  59.135 -54.359  1.00  0.00     0.077 A 
HETATM   32  C   UNL     1     -43.795  58.362 -53.276  1.00  0.00     0.037 A 
HETATM   33  C   UNL     1     -42.531  58.563 -52.718  1.00  0.00     0.003 A 
HETATM   34  C   UNL     1     -41.690  59.548 -53.223  1.00  0.00     0.001 A 
HETATM   35  C   UNL     1     -42.106  60.332 -54.297  1.00  0.00     0.012 A 
BRANCH  31  36
HETATM   36  O   UNL     1     -45.441  59.018 -54.970  1.00  0.00    -0.347 OA
BRANCH  36  37
HETATM   37  C   UNL     1     -45.749  57.850 -55.736  1.00  0.00     0.202 C 
BRANCH  37  38
HETATM   38  C   UNL     1     -46.194  58.203 -57.119  1.00  0.00    -0.011 C 
HETATM   39  C   UNL     1     -46.792  59.355 -57.451  1.00  0.00     0.009 C 
ENDBRANCH  37  38
ENDBRANCH  36  37
ENDBRANCH  31  36
ENDBRANCH  29  30
ENDBRANCH   1  29
TORSDOF 9
ENDMDL
