MODEL 1
REMARK VINA RESULT:      -7.8      0.000      0.000
REMARK  6 active torsions:
REMARK  status: ('A' for Active; 'I' for Inactive)
REMARK       I    between atoms: C_2  and  N_3 
REMARK    1  A    between atoms: N_3  and  C_4 
REMARK    2  A    between atoms: C_7  and  N_8 
REMARK       I    between atoms: N_8  and  C_9 
REMARK    3  A    between atoms: C_9  and  C_10 
REMARK    4  A    between atoms: C_10  and  S_11 
REMARK    5  A    between atoms: S_11  and  C_12 
REMARK    6  A    between atoms: C_15  and  C_16 
ROOT
HETATM    1  N   UNL     1     -41.481  57.826 -54.206  1.00  0.00    -0.327 N 
HETATM    2  C   UNL     1     -41.896  58.589 -53.130  1.00  0.00     0.231 C 
HETATM    3  O   UNL     1     -43.031  59.017 -52.939  1.00  0.00    -0.272 OA
HETATM    4  H   UNL     1     -40.540  57.432 -54.126  1.00  0.00     0.169 HD
ENDROOT
BRANCH   2   5
HETATM    5  C   UNL     1     -40.773  58.901 -52.151  1.00  0.00     0.185 C 
BRANCH   5   6
HETATM    6  S   UNL     1     -41.117  58.213 -50.507  1.00  0.00    -0.083 SA
BRANCH   6   7
HETATM    7  C   UNL     1     -41.617  56.614 -50.903  1.00  0.00     0.167 A 
HETATM    8  N   UNL     1     -42.769  56.048 -50.638  1.00  0.00    -0.235 NA
HETATM    9  C   UNL     1     -42.644  54.774 -51.140  1.00  0.00     0.149 A 
HETATM   10  C   UNL     1     -41.392  54.553 -51.693  1.00  0.00     0.062 A 
HETATM   11  N   UNL     1     -40.762  55.769 -51.539  1.00  0.00    -0.333 N 
HETATM   12  H   UNL     1     -39.829  56.013 -51.836  1.00  0.00     0.168 HD
BRANCH  10  13
HETATM   13  C   UNL     1     -40.791  53.372 -52.316  1.00  0.00    -0.008 A 
HETATM   14  C   UNL     1     -40.995  53.107 -53.678  1.00  0.00     0.014 A 
HETATM   15  C   UNL     1     -40.439  51.977 -54.283  1.00  0.00     0.001 A 
HETATM   16  C   UNL     1     -39.668  51.093 -53.535  1.00  0.00     0.000 A 
HETATM   17  C   UNL     1     -39.454  51.338 -52.181  1.00  0.00     0.001 A 
HETATM   18  C   UNL     1     -40.013  52.469 -51.576  1.00  0.00     0.014 A 
ENDBRANCH  10  13
ENDBRANCH   6   7
ENDBRANCH   5   6
ENDBRANCH   2   5
BRANCH   1  19
HETATM   19  C   UNL     1     -42.224  57.432 -55.332  1.00  0.00     0.034 A 
HETATM   20  C   UNL     1     -42.849  58.317 -56.208  1.00  0.00     0.032 A 
HETATM   21  C   UNL     1     -43.542  57.840 -57.333  1.00  0.00     0.032 A 
HETATM   22  C   UNL     1     -43.622  56.473 -57.595  1.00  0.00     0.034 A 
HETATM   23  C   UNL     1     -43.006  55.585 -56.706  1.00  0.00     0.032 A 
HETATM   24  C   UNL     1     -42.312  56.060 -55.588  1.00  0.00     0.032 A 
BRANCH  22  25
HETATM   25  N   UNL     1     -44.275  55.914 -58.712  1.00  0.00    -0.328 N 
HETATM   26  C   UNL     1     -43.772  55.760 -59.992  1.00  0.00     0.218 C 
HETATM   27  C   UNL     1     -44.748  55.082 -60.921  1.00  0.00     0.117 C 
HETATM   28  O   UNL     1     -42.676  56.124 -60.402  1.00  0.00    -0.274 OA
HETATM   29  H   UNL     1     -45.216  55.582 -58.550  1.00  0.00     0.169 HD
ENDBRANCH  22  25
ENDBRANCH   1  19
TORSDOF 6
ENDMDL
MODEL 2
REMARK VINA RESULT:      -7.8      1.198      1.676
REMARK  6 active torsions:
REMARK  status: ('A' for Active; 'I' for Inactive)
REMARK       I    between atoms: C_2  and  N_3 
REMARK    1  A    between atoms: N_3  and  C_4 
REMARK    2  A    between atoms: C_7  and  N_8 
REMARK       I    between atoms: N_8  and  C_9 
REMARK    3  A    between atoms: C_9  and  C_10 
REMARK    4  A    between atoms: C_10  and  S_11 
REMARK    5  A    between atoms: S_11  and  C_12 
REMARK    6  A    between atoms: C_15  and  C_16 
ROOT
HETATM    1  N   UNL     1     -41.570  57.056 -54.028  1.00  0.00    -0.327 N 
HETATM    2  C   UNL     1     -41.986  57.000 -52.710  1.00  0.00     0.231 C 
HETATM    3  O   UNL     1     -43.102  56.673 -52.315  1.00  0.00    -0.272 OA
HETATM    4  H   UNL     1     -40.567  57.203 -54.164  1.00  0.00     0.169 HD
ENDROOT
BRANCH   2   5
HETATM    5  C   UNL     1     -40.905  57.422 -51.725  1.00  0.00     0.185 C 
BRANCH   5   6
HETATM    6  S   UNL     1     -41.297  56.880 -50.039  1.00  0.00    -0.083 SA
BRANCH   6   7
HETATM    7  C   UNL     1     -40.841  55.221 -50.098  1.00  0.00     0.167 A 
HETATM    8  N   UNL     1     -40.477  54.456 -49.098  1.00  0.00    -0.235 NA
HETATM    9  C   UNL     1     -40.198  53.243 -49.683  1.00  0.00     0.149 A 
HETATM   10  C   UNL     1     -40.368  53.278 -51.059  1.00  0.00     0.062 A 
HETATM   11  N   UNL     1     -40.802  54.565 -51.289  1.00  0.00    -0.333 N 
HETATM   12  H   UNL     1     -41.051  54.974 -52.177  1.00  0.00     0.168 HD
BRANCH  10  13
HETATM   13  C   UNL     1     -40.172  52.263 -52.095  1.00  0.00    -0.008 A 
HETATM   14  C   UNL     1     -39.703  50.985 -51.756  1.00  0.00     0.014 A 
HETATM   15  C   UNL     1     -39.498  50.009 -52.736  1.00  0.00     0.001 A 
HETATM   16  C   UNL     1     -39.761  50.296 -54.072  1.00  0.00     0.000 A 
HETATM   17  C   UNL     1     -40.228  51.559 -54.428  1.00  0.00     0.001 A 
HETATM   18  C   UNL     1     -40.430  52.535 -53.447  1.00  0.00     0.014 A 
ENDBRANCH  10  13
ENDBRANCH   6   7
ENDBRANCH   5   6
ENDBRANCH   2   5
BRANCH   1  19
HETATM   19  C   UNL     1     -42.326  56.823 -55.190  1.00  0.00     0.034 A 
HETATM   20  C   UNL     1     -43.155  57.769 -55.789  1.00  0.00     0.032 A 
HETATM   21  C   UNL     1     -43.848  57.466 -56.972  1.00  0.00     0.032 A 
HETATM   22  C   UNL     1     -43.723  56.213 -57.571  1.00  0.00     0.034 A 
HETATM   23  C   UNL     1     -42.901  55.259 -56.960  1.00  0.00     0.032 A 
HETATM   24  C   UNL     1     -42.208  55.563 -55.783  1.00  0.00     0.032 A 
BRANCH  22  25
HETATM   25  N   UNL     1     -44.363  55.837 -58.770  1.00  0.00    -0.328 N 
HETATM   26  C   UNL     1     -43.800  55.739 -60.030  1.00  0.00     0.218 C 
HETATM   27  C   UNL     1     -44.785  55.267 -61.070  1.00  0.00     0.117 C 
HETATM   28  O   UNL     1     -42.646  56.007 -60.345  1.00  0.00    -0.274 OA
HETATM   29  H   UNL     1     -45.344  55.605 -58.690  1.00  0.00     0.169 HD
ENDBRANCH  22  25
ENDBRANCH   1  19
TORSDOF 6
ENDMDL
MODEL 3
REMARK VINA RESULT:      -7.6      0.876      1.246
REMARK  6 active torsions:
REMARK  status: ('A' for Active; 'I' for Inactive)
REMARK       I    between atoms: C_2  and  N_3 
REMARK    1  A    between atoms: N_3  and  C_4 
REMARK    2  A    between atoms: C_7  and  N_8 
REMARK       I    between atoms: N_8  and  C_9 
REMARK    3  A    between atoms: C_9  and  C_10 
REMARK    4  A    between atoms: C_10  and  S_11 
REMARK    5  A    between atoms: S_11  and  C_12 
REMARK    6  A    between atoms: C_15  and  C_16 
ROOT
HETATM    1  N   UNL     1     -42.969  58.443 -53.570  1.00  0.00    -0.327 N 
HETATM    2  C   UNL     1     -41.876  59.213 -53.215  1.00  0.00     0.231 C 
HETATM    3  O   UNL     1     -40.940  59.526 -53.946  1.00  0.00    -0.272 OA
HETATM    4  H   UNL     1     -43.723  58.408 -52.880  1.00  0.00     0.169 HD
ENDROOT
BRANCH   2   5
HETATM    5  C   UNL     1     -41.904  59.649 -51.756  1.00  0.00     0.185 C 
BRANCH   5   6
HETATM    6  S   UNL     1     -40.898  58.552 -50.718  1.00  0.00    -0.083 SA
BRANCH   6   7
HETATM    7  C   UNL     1     -41.509  57.006 -51.162  1.00  0.00     0.167 A 
HETATM    8  N   UNL     1     -42.726  56.548 -50.995  1.00  0.00    -0.235 NA
HETATM    9  C   UNL     1     -42.679  55.267 -51.493  1.00  0.00     0.149 A 
HETATM   10  C   UNL     1     -41.411  54.932 -51.945  1.00  0.00     0.062 A 
HETATM   11  N   UNL     1     -40.686  56.084 -51.732  1.00  0.00    -0.333 N 
HETATM   12  H   UNL     1     -39.714  56.241 -51.952  1.00  0.00     0.168 HD
BRANCH  10  13
HETATM   13  C   UNL     1     -40.872  53.699 -52.524  1.00  0.00    -0.008 A 
HETATM   14  C   UNL     1     -41.110  53.385 -53.870  1.00  0.00     0.014 A 
HETATM   15  C   UNL     1     -40.615  52.206 -54.434  1.00  0.00     0.001 A 
HETATM   16  C   UNL     1     -39.871  51.322 -53.659  1.00  0.00     0.000 A 
HETATM   17  C   UNL     1     -39.624  51.616 -52.320  1.00  0.00     0.001 A 
HETATM   18  C   UNL     1     -40.123  52.795 -51.757  1.00  0.00     0.014 A 
ENDBRANCH  10  13
ENDBRANCH   6   7
ENDBRANCH   5   6
ENDBRANCH   2   5
BRANCH   1  19
HETATM   19  C   UNL     1     -43.221  57.804 -54.797  1.00  0.00     0.034 A 
HETATM   20  C   UNL     1     -42.609  56.622 -55.206  1.00  0.00     0.032 A 
HETATM   21  C   UNL     1     -42.946  56.030 -56.434  1.00  0.00     0.032 A 
HETATM   22  C   UNL     1     -43.899  56.612 -57.269  1.00  0.00     0.034 A 
HETATM   23  C   UNL     1     -44.503  57.807 -56.863  1.00  0.00     0.032 A 
HETATM   24  C   UNL     1     -44.169  58.395 -55.638  1.00  0.00     0.032 A 
BRANCH  22  25
HETATM   25  N   UNL     1     -44.313  56.069 -58.503  1.00  0.00    -0.328 N 
HETATM   26  C   UNL     1     -43.551  55.893 -59.644  1.00  0.00     0.218 C 
HETATM   27  C   UNL     1     -44.325  55.242 -60.764  1.00  0.00     0.117 C 
HETATM   28  O   UNL     1     -42.382  56.222 -59.808  1.00  0.00    -0.274 OA
HETATM   29  H   UNL     1     -45.277  55.767 -58.547  1.00  0.00     0.169 HD
ENDBRANCH  22  25
ENDBRANCH   1  19
TORSDOF 6
ENDMDL
MODEL 4
REMARK VINA RESULT:      -7.4      2.166      2.808
REMARK  6 active torsions:
REMARK  status: ('A' for Active; 'I' for Inactive)
REMARK       I    between atoms: C_2  and  N_3 
REMARK    1  A    between atoms: N_3  and  C_4 
REMARK    2  A    between atoms: C_7  and  N_8 
REMARK       I    between atoms: N_8  and  C_9 
REMARK    3  A    between atoms: C_9  and  C_10 
REMARK    4  A    between atoms: C_10  and  S_11 
REMARK    5  A    between atoms: S_11  and  C_12 
REMARK    6  A    between atoms: C_15  and  C_16 
ROOT
HETATM    1  N   UNL     1     -42.720  58.048 -54.849  1.00  0.00    -0.327 N 
HETATM    2  C   UNL     1     -41.755  58.965 -54.474  1.00  0.00     0.231 C 
HETATM    3  O   UNL     1     -41.587  60.081 -54.959  1.00  0.00    -0.272 OA
HETATM    4  H   UNL     1     -42.810  57.232 -54.238  1.00  0.00     0.169 HD
ENDROOT
BRANCH   2   5
HETATM    5  C   UNL     1     -40.845  58.453 -53.365  1.00  0.00     0.185 C 
BRANCH   5   6
HETATM    6  S   UNL     1     -41.622  57.096 -52.446  1.00  0.00    -0.083 SA
BRANCH   6   7
HETATM    7  C   UNL     1     -41.036  55.723 -53.302  1.00  0.00     0.167 A 
HETATM    8  N   UNL     1     -40.749  55.639 -54.579  1.00  0.00    -0.235 NA
HETATM    9  C   UNL     1     -40.352  54.334 -54.752  1.00  0.00     0.149 A 
HETATM   10  C   UNL     1     -40.423  53.607 -53.573  1.00  0.00     0.062 A 
HETATM   11  N   UNL     1     -40.852  54.541 -52.654  1.00  0.00    -0.333 N 
HETATM   12  H   UNL     1     -41.009  54.397 -51.668  1.00  0.00     0.168 HD
BRANCH  10  13
HETATM   13  C   UNL     1     -40.134  52.205 -53.268  1.00  0.00    -0.008 A 
HETATM   14  C   UNL     1     -39.773  51.822 -51.967  1.00  0.00     0.014 A 
HETATM   15  C   UNL     1     -39.481  50.489 -51.664  1.00  0.00     0.001 A 
HETATM   16  C   UNL     1     -39.547  49.517 -52.657  1.00  0.00     0.000 A 
HETATM   17  C   UNL     1     -39.904  49.877 -53.953  1.00  0.00     0.001 A 
HETATM   18  C   UNL     1     -40.193  51.212 -54.257  1.00  0.00     0.014 A 
ENDBRANCH  10  13
ENDBRANCH   6   7
ENDBRANCH   5   6
ENDBRANCH   2   5
BRANCH   1  19
HETATM   19  C   UNL     1     -43.661  58.150 -55.889  1.00  0.00     0.034 A 
HETATM   20  C   UNL     1     -45.026  58.346 -55.694  1.00  0.00     0.032 A 
HETATM   21  C   UNL     1     -45.894  58.475 -56.791  1.00  0.00     0.032 A 
HETATM   22  C   UNL     1     -45.408  58.407 -58.096  1.00  0.00     0.034 A 
HETATM   23  C   UNL     1     -44.039  58.195 -58.290  1.00  0.00     0.032 A 
HETATM   24  C   UNL     1     -43.174  58.071 -57.197  1.00  0.00     0.032 A 
BRANCH  22  25
HETATM   25  N   UNL     1     -46.206  58.551 -59.250  1.00  0.00    -0.328 N 
HETATM   26  C   UNL     1     -46.828  57.551 -59.975  1.00  0.00     0.218 C 
HETATM   27  C   UNL     1     -47.635  58.088 -61.131  1.00  0.00     0.117 C 
HETATM   28  O   UNL     1     -46.761  56.344 -59.773  1.00  0.00    -0.274 OA
HETATM   29  H   UNL     1     -46.342  59.500 -59.573  1.00  0.00     0.169 HD
ENDBRANCH  22  25
ENDBRANCH   1  19
TORSDOF 6
ENDMDL
MODEL 5
REMARK VINA RESULT:      -7.4      2.640      6.291
REMARK  6 active torsions:
REMARK  status: ('A' for Active; 'I' for Inactive)
REMARK       I    between atoms: C_2  and  N_3 
REMARK    1  A    between atoms: N_3  and  C_4 
REMARK    2  A    between atoms: C_7  and  N_8 
REMARK       I    between atoms: N_8  and  C_9 
REMARK    3  A    between atoms: C_9  and  C_10 
REMARK    4  A    between atoms: C_10  and  S_11 
REMARK    5  A    between atoms: S_11  and  C_12 
REMARK    6  A    between atoms: C_15  and  C_16 
ROOT
HETATM    1  N   UNL     1     -41.889  57.356 -52.974  1.00  0.00    -0.327 N 
HETATM    2  C   UNL     1     -41.108  58.495 -52.902  1.00  0.00     0.231 C 
HETATM    3  O   UNL     1     -39.939  58.597 -53.266  1.00  0.00    -0.272 OA
HETATM    4  H   UNL     1     -42.882  57.493 -52.766  1.00  0.00     0.169 HD
ENDROOT
BRANCH   2   5
HETATM    5  C   UNL     1     -41.835  59.679 -52.280  1.00  0.00     0.185 C 
BRANCH   5   6
HETATM    6  S   UNL     1     -42.580  60.739 -53.549  1.00  0.00    -0.083 SA
BRANCH   6   7
HETATM    7  C   UNL     1     -43.239  59.571 -54.628  1.00  0.00     0.167 A 
HETATM    8  N   UNL     1     -44.325  58.855 -54.464  1.00  0.00    -0.235 NA
HETATM    9  C   UNL     1     -44.387  58.070 -55.592  1.00  0.00     0.149 A 
HETATM   10  C   UNL     1     -43.312  58.293 -56.440  1.00  0.00     0.062 A 
HETATM   11  N   UNL     1     -42.602  59.281 -55.794  1.00  0.00    -0.333 N 
HETATM   12  H   UNL     1     -41.753  59.727 -56.110  1.00  0.00     0.168 HD
BRANCH  10  13
HETATM   13  C   UNL     1     -42.935  57.692 -57.721  1.00  0.00    -0.008 A 
HETATM   14  C   UNL     1     -43.319  56.378 -58.028  1.00  0.00     0.014 A 
HETATM   15  C   UNL     1     -42.955  55.786 -59.240  1.00  0.00     0.001 A 
HETATM   16  C   UNL     1     -42.202  56.500 -60.167  1.00  0.00     0.000 A 
HETATM   17  C   UNL     1     -41.811  57.805 -59.880  1.00  0.00     0.001 A 
HETATM   18  C   UNL     1     -42.173  58.396 -58.665  1.00  0.00     0.014 A 
ENDBRANCH  10  13
ENDBRANCH   6   7
ENDBRANCH   5   6
ENDBRANCH   2   5
BRANCH   1  19
HETATM   19  C   UNL     1     -41.517  56.071 -53.405  1.00  0.00     0.034 A 
HETATM   20  C   UNL     1     -40.818  55.810 -54.581  1.00  0.00     0.032 A 
HETATM   21  C   UNL     1     -40.453  54.496 -54.920  1.00  0.00     0.032 A 
HETATM   22  C   UNL     1     -40.784  53.427 -54.088  1.00  0.00     0.034 A 
HETATM   23  C   UNL     1     -41.500  53.690 -52.915  1.00  0.00     0.032 A 
HETATM   24  C   UNL     1     -41.860  54.998 -52.576  1.00  0.00     0.032 A 
BRANCH  22  25
HETATM   25  N   UNL     1     -40.434  52.085 -54.342  1.00  0.00    -0.328 N 
HETATM   26  C   UNL     1     -39.662  51.252 -53.551  1.00  0.00     0.218 C 
HETATM   27  C   UNL     1     -39.533  49.863 -54.126  1.00  0.00     0.117 C 
HETATM   28  O   UNL     1     -39.100  51.544 -52.502  1.00  0.00    -0.274 OA
HETATM   29  H   UNL     1     -40.800  51.690 -55.197  1.00  0.00     0.169 HD
ENDBRANCH  22  25
ENDBRANCH   1  19
TORSDOF 6
ENDMDL
MODEL 6
REMARK VINA RESULT:      -7.1      2.762      6.938
REMARK  6 active torsions:
REMARK  status: ('A' for Active; 'I' for Inactive)
REMARK       I    between atoms: C_2  and  N_3 
REMARK    1  A    between atoms: N_3  and  C_4 
REMARK    2  A    between atoms: C_7  and  N_8 
REMARK       I    between atoms: N_8  and  C_9 
REMARK    3  A    between atoms: C_9  and  C_10 
REMARK    4  A    between atoms: C_10  and  S_11 
REMARK    5  A    between atoms: S_11  and  C_12 
REMARK    6  A    between atoms: C_15  and  C_16 
ROOT
HETATM    1  N   UNL     1     -42.140  57.280 -54.095  1.00  0.00    -0.327 N 
HETATM    2  C   UNL     1     -41.399  58.415 -53.823  1.00  0.00     0.231 C 
HETATM    3  O   UNL     1     -40.207  58.450 -53.526  1.00  0.00    -0.272 OA
HETATM    4  H   UNL     1     -43.077  57.448 -54.470  1.00  0.00     0.169 HD
ENDROOT
BRANCH   2   5
HETATM    5  C   UNL     1     -42.219  59.695 -53.898  1.00  0.00     0.185 C 
BRANCH   5   6
HETATM    6  S   UNL     1     -42.306  60.326 -55.597  1.00  0.00    -0.083 SA
BRANCH   6   7
HETATM    7  C   UNL     1     -43.615  59.410 -56.237  1.00  0.00     0.167 A 
HETATM    8  N   UNL     1     -44.848  59.363 -55.796  1.00  0.00    -0.235 NA
HETATM    9  C   UNL     1     -45.475  58.473 -56.637  1.00  0.00     0.149 A 
HETATM   10  C   UNL     1     -44.606  57.952 -57.584  1.00  0.00     0.062 A 
HETATM   11  N   UNL     1     -43.418  58.593 -57.307  1.00  0.00    -0.333 N 
HETATM   12  H   UNL     1     -42.542  58.491 -57.797  1.00  0.00     0.168 HD
BRANCH  10  13
HETATM   13  C   UNL     1     -44.797  56.971 -58.654  1.00  0.00    -0.008 A 
HETATM   14  C   UNL     1     -43.818  55.999 -58.909  1.00  0.00     0.014 A 
HETATM   15  C   UNL     1     -43.981  55.065 -59.935  1.00  0.00     0.001 A 
HETATM   16  C   UNL     1     -45.127  55.088 -60.724  1.00  0.00     0.000 A 
HETATM   17  C   UNL     1     -46.109  56.045 -60.487  1.00  0.00     0.001 A 
HETATM   18  C   UNL     1     -45.945  56.981 -59.461  1.00  0.00     0.014 A 
ENDBRANCH  10  13
ENDBRANCH   6   7
ENDBRANCH   5   6
ENDBRANCH   2   5
BRANCH   1  19
HETATM   19  C   UNL     1     -41.730  55.936 -54.030  1.00  0.00     0.034 A 
HETATM   20  C   UNL     1     -41.993  55.087 -52.957  1.00  0.00     0.032 A 
HETATM   21  C   UNL     1     -41.579  53.745 -52.989  1.00  0.00     0.032 A 
HETATM   22  C   UNL     1     -40.895  53.236 -54.093  1.00  0.00     0.034 A 
HETATM   23  C   UNL     1     -40.620  54.094 -55.163  1.00  0.00     0.032 A 
HETATM   24  C   UNL     1     -41.036  55.429 -55.132  1.00  0.00     0.032 A 
BRANCH  22  25
HETATM   25  N   UNL     1     -40.468  51.898 -54.215  1.00  0.00    -0.328 N 
HETATM   26  C   UNL     1     -39.700  51.174 -53.321  1.00  0.00     0.218 C 
HETATM   27  C   UNL     1     -39.474  49.751 -53.769  1.00  0.00     0.117 C 
HETATM   28  O   UNL     1     -39.208  51.579 -52.274  1.00  0.00    -0.274 OA
HETATM   29  H   UNL     1     -40.771  51.416 -55.051  1.00  0.00     0.169 HD
ENDBRANCH  22  25
ENDBRANCH   1  19
TORSDOF 6
ENDMDL
MODEL 7
REMARK VINA RESULT:      -7.1      3.103      4.071
REMARK  6 active torsions:
REMARK  status: ('A' for Active; 'I' for Inactive)
REMARK       I    between atoms: C_2  and  N_3 
REMARK    1  A    between atoms: N_3  and  C_4 
REMARK    2  A    between atoms: C_7  and  N_8 
REMARK       I    between atoms: N_8  and  C_9 
REMARK    3  A    between atoms: C_9  and  C_10 
REMARK    4  A    between atoms: C_10  and  S_11 
REMARK    5  A    between atoms: S_11  and  C_12 
REMARK    6  A    between atoms: C_15  and  C_16 
ROOT
HETATM    1  N   UNL     1     -44.879  57.756 -56.699  1.00  0.00    -0.327 N 
HETATM    2  C   UNL     1     -43.589  58.071 -56.316  1.00  0.00     0.231 C 
HETATM    3  O   UNL     1     -42.708  58.532 -57.038  1.00  0.00    -0.272 OA
HETATM    4  H   UNL     1     -45.520  57.526 -55.936  1.00  0.00     0.169 HD
ENDROOT
BRANCH   2   5
HETATM    5  C   UNL     1     -43.311  57.766 -54.850  1.00  0.00     0.185 C 
BRANCH   5   6
HETATM    6  S   UNL     1     -43.822  56.079 -54.418  1.00  0.00    -0.083 SA
BRANCH   6   7
HETATM    7  C   UNL     1     -42.310  55.256 -54.409  1.00  0.00     0.167 A 
HETATM    8  N   UNL     1     -41.176  55.660 -54.927  1.00  0.00    -0.235 NA
HETATM    9  C   UNL     1     -40.300  54.632 -54.669  1.00  0.00     0.149 A 
HETATM   10  C   UNL     1     -40.915  53.578 -54.010  1.00  0.00     0.062 A 
HETATM   11  N   UNL     1     -42.208  54.023 -53.842  1.00  0.00    -0.333 N 
HETATM   12  H   UNL     1     -42.964  53.537 -53.384  1.00  0.00     0.168 HD
BRANCH  10  13
HETATM   13  C   UNL     1     -40.411  52.280 -53.555  1.00  0.00    -0.008 A 
HETATM   14  C   UNL     1     -40.393  51.181 -54.428  1.00  0.00     0.014 A 
HETATM   15  C   UNL     1     -39.927  49.933 -54.004  1.00  0.00     0.001 A 
HETATM   16  C   UNL     1     -39.471  49.765 -52.701  1.00  0.00     0.000 A 
HETATM   17  C   UNL     1     -39.481  50.843 -51.820  1.00  0.00     0.001 A 
HETATM   18  C   UNL     1     -39.949  52.091 -52.244  1.00  0.00     0.014 A 
ENDBRANCH  10  13
ENDBRANCH   6   7
ENDBRANCH   5   6
ENDBRANCH   2   5
BRANCH   1  19
HETATM   19  C   UNL     1     -45.447  57.824 -57.984  1.00  0.00     0.034 A 
HETATM   20  C   UNL     1     -45.038  57.046 -59.064  1.00  0.00     0.032 A 
HETATM   21  C   UNL     1     -45.684  57.150 -60.307  1.00  0.00     0.032 A 
HETATM   22  C   UNL     1     -46.746  58.036 -60.486  1.00  0.00     0.034 A 
HETATM   23  C   UNL     1     -47.146  58.828 -59.404  1.00  0.00     0.032 A 
HETATM   24  C   UNL     1     -46.504  58.721 -58.166  1.00  0.00     0.032 A 
BRANCH  22  25
HETATM   25  N   UNL     1     -47.463  58.183 -61.691  1.00  0.00    -0.328 N 
HETATM   26  C   UNL     1     -48.329  57.274 -62.272  1.00  0.00     0.218 C 
HETATM   27  C   UNL     1     -48.948  57.795 -63.546  1.00  0.00     0.117 C 
HETATM   28  O   UNL     1     -48.597  56.149 -61.868  1.00  0.00    -0.274 OA
HETATM   29  H   UNL     1     -47.332  59.061 -62.175  1.00  0.00     0.169 HD
ENDBRANCH  22  25
ENDBRANCH   1  19
TORSDOF 6
ENDMDL
MODEL 8
REMARK VINA RESULT:      -7.1      1.820      1.955
REMARK  6 active torsions:
REMARK  status: ('A' for Active; 'I' for Inactive)
REMARK       I    between atoms: C_2  and  N_3 
REMARK    1  A    between atoms: N_3  and  C_4 
REMARK    2  A    between atoms: C_7  and  N_8 
REMARK       I    between atoms: N_8  and  C_9 
REMARK    3  A    between atoms: C_9  and  C_10 
REMARK    4  A    between atoms: C_10  and  S_11 
REMARK    5  A    between atoms: S_11  and  C_12 
REMARK    6  A    between atoms: C_15  and  C_16 
ROOT
HETATM    1  N   UNL     1     -42.411  57.825 -53.612  1.00  0.00    -0.327 N 
HETATM    2  C   UNL     1     -41.335  58.665 -53.388  1.00  0.00     0.231 C 
HETATM    3  O   UNL     1     -40.983  59.598 -54.105  1.00  0.00    -0.272 OA
HETATM    4  H   UNL     1     -42.647  57.200 -52.837  1.00  0.00     0.169 HD
ENDROOT
BRANCH   2   5
HETATM    5  C   UNL     1     -40.557  58.315 -52.128  1.00  0.00     0.185 C 
BRANCH   5   6
HETATM    6  S   UNL     1     -41.654  57.683 -50.828  1.00  0.00    -0.083 SA
BRANCH   6   7
HETATM    7  C   UNL     1     -41.094  56.063 -50.664  1.00  0.00     0.167 A 
HETATM    8  N   UNL     1     -40.656  55.475 -49.578  1.00  0.00    -0.235 NA
HETATM    9  C   UNL     1     -40.314  54.208 -49.993  1.00  0.00     0.149 A 
HETATM   10  C   UNL     1     -40.520  54.033 -51.353  1.00  0.00     0.062 A 
HETATM   11  N   UNL     1     -41.041  55.245 -51.750  1.00  0.00    -0.333 N 
HETATM   12  H   UNL     1     -41.339  55.505 -52.679  1.00  0.00     0.168 HD
BRANCH  10  13
HETATM   13  C   UNL     1     -40.285  52.892 -52.240  1.00  0.00    -0.008 A 
HETATM   14  C   UNL     1     -40.633  52.966 -53.597  1.00  0.00     0.014 A 
HETATM   15  C   UNL     1     -40.427  51.880 -54.453  1.00  0.00     0.001 A 
HETATM   16  C   UNL     1     -39.869  50.703 -53.965  1.00  0.00     0.000 A 
HETATM   17  C   UNL     1     -39.518  50.610 -52.621  1.00  0.00     0.001 A 
HETATM   18  C   UNL     1     -39.727  51.696 -51.764  1.00  0.00     0.014 A 
ENDBRANCH  10  13
ENDBRANCH   6   7
ENDBRANCH   5   6
ENDBRANCH   2   5
BRANCH   1  19
HETATM   19  C   UNL     1     -43.284  57.802 -54.714  1.00  0.00     0.034 A 
HETATM   20  C   UNL     1     -44.516  58.451 -54.752  1.00  0.00     0.032 A 
HETATM   21  C   UNL     1     -45.312  58.409 -55.908  1.00  0.00     0.032 A 
HETATM   22  C   UNL     1     -44.888  57.715 -57.040  1.00  0.00     0.034 A 
HETATM   23  C   UNL     1     -43.657  57.051 -56.996  1.00  0.00     0.032 A 
HETATM   24  C   UNL     1     -42.862  57.097 -55.845  1.00  0.00     0.032 A 
BRANCH  22  25
HETATM   25  N   UNL     1     -45.613  57.644 -58.248  1.00  0.00    -0.328 N 
HETATM   26  C   UNL     1     -45.777  58.642 -59.191  1.00  0.00     0.218 C 
HETATM   27  C   UNL     1     -46.588  58.189 -60.380  1.00  0.00     0.117 C 
HETATM   28  O   UNL     1     -45.358  59.792 -59.129  1.00  0.00    -0.274 OA
HETATM   29  H   UNL     1     -46.053  56.755 -58.443  1.00  0.00     0.169 HD
ENDBRANCH  22  25
ENDBRANCH   1  19
TORSDOF 6
ENDMDL
MODEL 9
REMARK VINA RESULT:      -7.0      3.045      3.784
REMARK  6 active torsions:
REMARK  status: ('A' for Active; 'I' for Inactive)
REMARK       I    between atoms: C_2  and  N_3 
REMARK    1  A    between atoms: N_3  and  C_4 
REMARK    2  A    between atoms: C_7  and  N_8 
REMARK       I    between atoms: N_8  and  C_9 
REMARK    3  A    between atoms: C_9  and  C_10 
REMARK    4  A    between atoms: C_10  and  S_11 
REMARK    5  A    between atoms: S_11  and  C_12 
REMARK    6  A    between atoms: C_15  and  C_16 
ROOT
HETATM    1  N   UNL     1     -42.456  58.658 -55.099  1.00  0.00    -0.327 N 
HETATM    2  C   UNL     1     -41.711  58.981 -53.979  1.00  0.00     0.231 C 
HETATM    3  O   UNL     1     -40.938  59.929 -53.870  1.00  0.00    -0.272 OA
HETATM    4  H   UNL     1     -43.158  57.927 -54.962  1.00  0.00     0.169 HD
ENDROOT
BRANCH   2   5
HETATM    5  C   UNL     1     -41.912  58.004 -52.828  1.00  0.00     0.185 C 
BRANCH   5   6
HETATM    6  S   UNL     1     -42.961  56.608 -53.321  1.00  0.00    -0.083 SA
BRANCH   6   7
HETATM    7  C   UNL     1     -41.785  55.461 -53.836  1.00  0.00     0.167 A 
HETATM    8  N   UNL     1     -40.945  55.571 -54.836  1.00  0.00    -0.235 NA
HETATM    9  C   UNL     1     -40.254  54.382 -54.831  1.00  0.00     0.149 A 
HETATM   10  C   UNL     1     -40.697  53.527 -53.832  1.00  0.00     0.062 A 
HETATM   11  N   UNL     1     -41.673  54.264 -53.198  1.00  0.00    -0.333 N 
HETATM   12  H   UNL     1     -42.223  53.986 -52.399  1.00  0.00     0.168 HD
BRANCH  10  13
HETATM   13  C   UNL     1     -40.295  52.171 -53.455  1.00  0.00    -0.008 A 
HETATM   14  C   UNL     1     -39.862  51.897 -52.148  1.00  0.00     0.014 A 
HETATM   15  C   UNL     1     -39.462  50.610 -51.777  1.00  0.00     0.001 A 
HETATM   16  C   UNL     1     -39.491  49.576 -52.707  1.00  0.00     0.000 A 
HETATM   17  C   UNL     1     -39.917  49.827 -54.008  1.00  0.00     0.001 A 
HETATM   18  C   UNL     1     -40.315  51.116 -54.379  1.00  0.00     0.014 A 
ENDBRANCH  10  13
ENDBRANCH   6   7
ENDBRANCH   5   6
ENDBRANCH   2   5
BRANCH   1  19
HETATM   19  C   UNL     1     -42.449  59.283 -56.359  1.00  0.00     0.034 A 
HETATM   20  C   UNL     1     -42.744  60.628 -56.568  1.00  0.00     0.032 A 
HETATM   21  C   UNL     1     -42.678  61.183 -57.857  1.00  0.00     0.032 A 
HETATM   22  C   UNL     1     -42.319  60.399 -58.953  1.00  0.00     0.034 A 
HETATM   23  C   UNL     1     -42.037  59.045 -58.742  1.00  0.00     0.032 A 
HETATM   24  C   UNL     1     -42.099  58.494 -57.458  1.00  0.00     0.032 A 
BRANCH  22  25
HETATM   25  N   UNL     1     -42.204  60.882 -60.272  1.00  0.00    -0.328 N 
HETATM   26  C   UNL     1     -41.291  61.802 -60.756  1.00  0.00     0.218 C 
HETATM   27  C   UNL     1     -41.444  62.048 -62.237  1.00  0.00     0.117 C 
HETATM   28  O   UNL     1     -40.438  62.403 -60.113  1.00  0.00    -0.274 OA
HETATM   29  H   UNL     1     -42.863  60.501 -60.938  1.00  0.00     0.169 HD
ENDBRANCH  22  25
ENDBRANCH   1  19
TORSDOF 6
ENDMDL
MODEL 10
REMARK VINA RESULT:      -6.9      5.696      8.878
REMARK  6 active torsions:
REMARK  status: ('A' for Active; 'I' for Inactive)
REMARK       I    between atoms: C_2  and  N_3 
REMARK    1  A    between atoms: N_3  and  C_4 
REMARK    2  A    between atoms: C_7  and  N_8 
REMARK       I    between atoms: N_8  and  C_9 
REMARK    3  A    between atoms: C_9  and  C_10 
REMARK    4  A    between atoms: C_10  and  S_11 
REMARK    5  A    between atoms: S_11  and  C_12 
REMARK    6  A    between atoms: C_15  and  C_16 
ROOT
HETATM    1  N   UNL     1     -44.000  60.915 -49.979  1.00  0.00    -0.327 N 
HETATM    2  C   UNL     1     -44.799  60.089 -50.749  1.00  0.00     0.231 C 
HETATM    3  O   UNL     1     -46.014  59.946 -50.637  1.00  0.00    -0.272 OA
HETATM    4  H   UNL     1     -43.037  61.024 -50.309  1.00  0.00     0.169 HD
ENDROOT
BRANCH   2   5
HETATM    5  C   UNL     1     -44.016  59.305 -51.792  1.00  0.00     0.185 C 
BRANCH   5   6
HETATM    6  S   UNL     1     -44.662  57.620 -51.976  1.00  0.00    -0.083 SA
BRANCH   6   7
HETATM    7  C   UNL     1     -43.269  56.677 -51.608  1.00  0.00     0.167 A 
HETATM    8  N   UNL     1     -42.371  56.905 -50.680  1.00  0.00    -0.235 NA
HETATM    9  C   UNL     1     -41.467  55.879 -50.824  1.00  0.00     0.149 A 
HETATM   10  C   UNL     1     -41.805  55.031 -51.868  1.00  0.00     0.062 A 
HETATM   11  N   UNL     1     -42.983  55.567 -52.340  1.00  0.00    -0.333 N 
HETATM   12  H   UNL     1     -43.552  55.215 -53.096  1.00  0.00     0.168 HD
BRANCH  10  13
HETATM   13  C   UNL     1     -41.151  53.839 -52.412  1.00  0.00    -0.008 A 
HETATM   14  C   UNL     1     -40.233  53.116 -51.633  1.00  0.00     0.014 A 
HETATM   15  C   UNL     1     -39.591  51.985 -52.143  1.00  0.00     0.001 A 
HETATM   16  C   UNL     1     -39.857  51.556 -53.439  1.00  0.00     0.000 A 
HETATM   17  C   UNL     1     -40.763  52.259 -54.227  1.00  0.00     0.001 A 
HETATM   18  C   UNL     1     -41.404  53.394 -53.718  1.00  0.00     0.014 A 
ENDBRANCH  10  13
ENDBRANCH   6   7
ENDBRANCH   5   6
ENDBRANCH   2   5
BRANCH   1  19
HETATM   19  C   UNL     1     -44.371  61.707 -48.878  1.00  0.00     0.034 A 
HETATM   20  C   UNL     1     -44.506  63.092 -48.919  1.00  0.00     0.032 A 
HETATM   21  C   UNL     1     -44.917  63.805 -47.780  1.00  0.00     0.032 A 
HETATM   22  C   UNL     1     -45.197  63.141 -46.587  1.00  0.00     0.034 A 
HETATM   23  C   UNL     1     -45.047  61.751 -46.544  1.00  0.00     0.032 A 
HETATM   24  C   UNL     1     -44.641  61.041 -47.679  1.00  0.00     0.032 A 
BRANCH  22  25
HETATM   25  N   UNL     1     -45.640  63.777 -45.409  1.00  0.00    -0.328 N 
HETATM   26  C   UNL     1     -46.930  64.164 -45.094  1.00  0.00     0.218 C 
HETATM   27  C   UNL     1     -47.032  64.782 -43.721  1.00  0.00     0.117 C 
HETATM   28  O   UNL     1     -47.923  64.067 -45.805  1.00  0.00    -0.274 OA
HETATM   29  H   UNL     1     -44.927  63.959 -44.714  1.00  0.00     0.169 HD
ENDBRANCH  22  25
ENDBRANCH   1  19
TORSDOF 6
ENDMDL
