MODEL 1
REMARK VINA RESULT:      -8.7      0.000      0.000
REMARK  9 active torsions:
REMARK  status: ('A' for Active; 'I' for Inactive)
REMARK    1  A    between atoms: O_2  and  C_3 
REMARK    2  A    between atoms: C_6  and  N_7 
REMARK    3  A    between atoms: N_10  and  C_12 
REMARK    4  A    between atoms: C_12  and  C_13 
REMARK    5  A    between atoms: C_13  and  C_14 
REMARK    6  A    between atoms: C_14  and  N_15 
REMARK       I    between atoms: N_15  and  C_16 
REMARK    7  A    between atoms: C_16  and  C_17 
REMARK    8  A    between atoms: C_17  and  C_18 
REMARK    9  A    between atoms: C_18  and  C_19 
ROOT
HETATM    1  N   UNL     1     -42.007  56.974 -57.747  1.00  0.00    -0.361 N 
HETATM    2  C   UNL     1     -42.967  55.983 -57.707  1.00  0.00     0.217 C 
HETATM    3  O   UNL     1     -43.824  55.848 -58.578  1.00  0.00    -0.274 OA
HETATM    4  H   UNL     1     -41.482  57.148 -56.897  1.00  0.00     0.162 HD
ENDROOT
BRANCH   1   5
HETATM    5  C   UNL     1     -42.137  58.076 -58.677  1.00  0.00     0.124 C 
BRANCH   5   6
HETATM    6  C   UNL     1     -42.074  59.435 -57.981  1.00  0.00     0.047 C 
BRANCH   6   7
HETATM    7  C   UNL     1     -43.269  60.291 -58.377  1.00  0.00     0.236 C 
BRANCH   7   8
HETATM    8  N   UNL     1     -43.911  60.899 -57.148  1.00  0.00    -0.068 N 
HETATM    9  C   UNL     1     -45.258  60.252 -56.786  1.00  0.00     0.254 C 
HETATM   10  C   UNL     1     -45.871  60.947 -55.550  1.00  0.00     0.150 C 
HETATM   11  N   UNL     1     -44.930  60.967 -54.415  1.00  0.00    -0.378 N 
HETATM   12  C   UNL     1     -43.615  61.566 -54.729  1.00  0.00     0.150 C 
HETATM   13  C   UNL     1     -42.969  60.856 -55.938  1.00  0.00     0.254 C 
HETATM   14  H   UNL     1     -44.095  61.892 -57.341  1.00  0.00     0.280 HD
BRANCH  11  15
HETATM   15  C   UNL     1     -44.950  59.953 -53.454  1.00  0.00     0.030 A 
HETATM   16  C   UNL     1     -44.473  58.657 -53.689  1.00  0.00     0.032 A 
HETATM   17  C   UNL     1     -44.508  57.671 -52.692  1.00  0.00     0.039 A 
HETATM   18  C   UNL     1     -45.035  57.942 -51.433  1.00  0.00     0.068 A 
HETATM   19  C   UNL     1     -45.549  59.208 -51.186  1.00  0.00     0.039 A 
HETATM   20  C   UNL     1     -45.509  60.191 -52.186  1.00  0.00     0.032 A 
BRANCH  18  21
HETATM   21  O   UNL     1     -45.001  56.896 -50.556  1.00  0.00    -0.356 OA
HETATM   22  C   UNL     1     -44.105  55.832 -50.855  1.00  0.00     0.210 C 
ENDBRANCH  18  21
ENDBRANCH  11  15
ENDBRANCH   7   8
ENDBRANCH   6   7
ENDBRANCH   5   6
ENDBRANCH   1   5
BRANCH   2  23
HETATM   23  C   UNL     1     -42.911  55.099 -56.480  1.00  0.00     0.105 C 
BRANCH  23  24
HETATM   24  C   UNL     1     -42.472  55.837 -55.209  1.00  0.00     0.046 C 
BRANCH  24  25
HETATM   25  C   UNL     1     -41.112  55.436 -54.633  1.00  0.00     0.203 A 
HETATM   26  N   UNL     1     -40.851  53.996 -54.841  1.00  0.00    -0.257 NA
HETATM   27  C   UNL     1     -40.575  53.547 -53.654  1.00  0.00     0.147 A 
HETATM   28  N   UNL     1     -40.629  54.426 -52.609  1.00  0.00    -0.239 N 
HETATM   29  C   UNL     1     -40.221  52.152 -53.378  1.00  0.00     0.037 A 
HETATM   30  C   UNL     1     -40.417  54.072 -51.273  1.00  0.00     0.187 A 
HETATM   31  C   UNL     1     -40.979  55.651 -53.137  1.00  0.00     0.257 A 
HETATM   32  S   UNL     1     -40.555  55.062 -49.926  1.00  0.00    -0.040 SA
HETATM   33  N   UNL     1     -40.066  52.760 -51.045  1.00  0.00    -0.332 N 
HETATM   34  C   UNL     1     -39.963  51.798 -52.056  1.00  0.00     0.048 A 
HETATM   35  H   UNL     1     -39.886  52.491 -50.084  1.00  0.00     0.168 HD
HETATM   36  C   UNL     1     -39.609  50.487 -51.741  1.00  0.00     0.030 A 
HETATM   37  C   UNL     1     -39.517  49.535 -52.760  1.00  0.00     0.002 A 
HETATM   38  C   UNL     1     -39.778  49.892 -54.085  1.00  0.00     0.001 A 
HETATM   39  C   UNL     1     -40.131  51.204 -54.399  1.00  0.00     0.017 A 
HETATM   40  O   UNL     1     -41.189  56.721 -52.581  1.00  0.00    -0.270 OA
ENDBRANCH  24  25
ENDBRANCH  23  24
ENDBRANCH   2  23
TORSDOF 9
ENDMDL
MODEL 2
REMARK VINA RESULT:      -8.5      2.233      2.879
REMARK  9 active torsions:
REMARK  status: ('A' for Active; 'I' for Inactive)
REMARK    1  A    between atoms: O_2  and  C_3 
REMARK    2  A    between atoms: C_6  and  N_7 
REMARK    3  A    between atoms: N_10  and  C_12 
REMARK    4  A    between atoms: C_12  and  C_13 
REMARK    5  A    between atoms: C_13  and  C_14 
REMARK    6  A    between atoms: C_14  and  N_15 
REMARK       I    between atoms: N_15  and  C_16 
REMARK    7  A    between atoms: C_16  and  C_17 
REMARK    8  A    between atoms: C_17  and  C_18 
REMARK    9  A    between atoms: C_18  and  C_19 
ROOT
HETATM    1  N   UNL     1     -42.903  57.258 -56.896  1.00  0.00    -0.361 N 
HETATM    2  C   UNL     1     -42.992  55.949 -57.325  1.00  0.00     0.217 C 
HETATM    3  O   UNL     1     -43.172  55.643 -58.501  1.00  0.00    -0.274 OA
HETATM    4  H   UNL     1     -42.970  57.426 -55.898  1.00  0.00     0.162 HD
ENDROOT
BRANCH   1   5
HETATM    5  C   UNL     1     -43.298  58.340 -57.774  1.00  0.00     0.124 C 
BRANCH   5   6
HETATM    6  C   UNL     1     -44.330  59.264 -57.129  1.00  0.00     0.047 C 
BRANCH   6   7
HETATM    7  C   UNL     1     -45.111  58.521 -56.054  1.00  0.00     0.236 C 
BRANCH   7   8
HETATM    8  N   UNL     1     -44.955  59.211 -54.716  1.00  0.00    -0.068 N 
HETATM    9  C   UNL     1     -44.701  58.235 -53.557  1.00  0.00     0.254 C 
HETATM   10  C   UNL     1     -44.591  59.004 -52.222  1.00  0.00     0.150 C 
HETATM   11  N   UNL     1     -43.578  60.074 -52.293  1.00  0.00    -0.378 N 
HETATM   12  C   UNL     1     -43.778  61.024 -53.407  1.00  0.00     0.150 C 
HETATM   13  C   UNL     1     -43.850  60.275 -54.755  1.00  0.00     0.254 C 
HETATM   14  H   UNL     1     -45.831  59.706 -54.507  1.00  0.00     0.280 HD
BRANCH  11  15
HETATM   15  C   UNL     1     -42.261  59.836 -51.893  1.00  0.00     0.030 A 
HETATM   16  C   UNL     1     -41.258  59.390 -52.763  1.00  0.00     0.032 A 
HETATM   17  C   UNL     1     -39.947  59.169 -52.319  1.00  0.00     0.039 A 
HETATM   18  C   UNL     1     -39.596  59.372 -50.988  1.00  0.00     0.068 A 
HETATM   19  C   UNL     1     -40.580  59.778 -50.096  1.00  0.00     0.039 A 
HETATM   20  C   UNL     1     -41.890  60.000 -50.547  1.00  0.00     0.032 A 
BRANCH  18  21
HETATM   21  O   UNL     1     -38.286  59.127 -50.693  1.00  0.00    -0.356 OA
HETATM   22  C   UNL     1     -37.717  59.868 -49.619  1.00  0.00     0.210 C 
ENDBRANCH  18  21
ENDBRANCH  11  15
ENDBRANCH   7   8
ENDBRANCH   6   7
ENDBRANCH   5   6
ENDBRANCH   1   5
BRANCH   2  23
HETATM   23  C   UNL     1     -42.895  54.916 -56.223  1.00  0.00     0.105 C 
BRANCH  23  24
HETATM   24  C   UNL     1     -42.631  55.517 -54.837  1.00  0.00     0.046 C 
BRANCH  24  25
HETATM   25  C   UNL     1     -41.277  55.185 -54.206  1.00  0.00     0.203 A 
HETATM   26  N   UNL     1     -40.869  53.800 -54.521  1.00  0.00    -0.257 NA
HETATM   27  C   UNL     1     -40.626  53.268 -53.361  1.00  0.00     0.147 A 
HETATM   28  N   UNL     1     -40.825  54.037 -52.250  1.00  0.00    -0.239 N 
HETATM   29  C   UNL     1     -40.159  51.890 -53.185  1.00  0.00     0.037 A 
HETATM   30  C   UNL     1     -40.662  53.581 -50.938  1.00  0.00     0.187 A 
HETATM   31  C   UNL     1     -41.256  55.271 -52.691  1.00  0.00     0.257 A 
HETATM   32  S   UNL     1     -40.974  54.425 -49.522  1.00  0.00    -0.040 SA
HETATM   33  N   UNL     1     -40.203  52.289 -50.802  1.00  0.00    -0.332 N 
HETATM   34  C   UNL     1     -39.950  51.438 -51.884  1.00  0.00     0.048 A 
HETATM   35  H   UNL     1     -40.058  51.948 -49.858  1.00  0.00     0.168 HD
HETATM   36  C   UNL     1     -39.494  50.140 -51.661  1.00  0.00     0.030 A 
HETATM   37  C   UNL     1     -39.251  49.299 -52.750  1.00  0.00     0.002 A 
HETATM   38  C   UNL     1     -39.464  49.753 -54.054  1.00  0.00     0.001 A 
HETATM   39  C   UNL     1     -39.919  51.053 -54.276  1.00  0.00     0.017 A 
HETATM   40  O   UNL     1     -41.599  56.261 -52.060  1.00  0.00    -0.270 OA
ENDBRANCH  24  25
ENDBRANCH  23  24
ENDBRANCH   2  23
TORSDOF 9
ENDMDL
MODEL 3
REMARK VINA RESULT:      -8.4      2.939      7.506
REMARK  9 active torsions:
REMARK  status: ('A' for Active; 'I' for Inactive)
REMARK    1  A    between atoms: O_2  and  C_3 
REMARK    2  A    between atoms: C_6  and  N_7 
REMARK    3  A    between atoms: N_10  and  C_12 
REMARK    4  A    between atoms: C_12  and  C_13 
REMARK    5  A    between atoms: C_13  and  C_14 
REMARK    6  A    between atoms: C_14  and  N_15 
REMARK       I    between atoms: N_15  and  C_16 
REMARK    7  A    between atoms: C_16  and  C_17 
REMARK    8  A    between atoms: C_17  and  C_18 
REMARK    9  A    between atoms: C_18  and  C_19 
ROOT
HETATM    1  N   UNL     1     -42.127  60.492 -53.942  1.00  0.00    -0.361 N 
HETATM    2  C   UNL     1     -43.006  61.474 -53.529  1.00  0.00     0.217 C 
HETATM    3  O   UNL     1     -43.028  61.910 -52.380  1.00  0.00    -0.274 OA
HETATM    4  H   UNL     1     -42.316  60.044 -54.832  1.00  0.00     0.162 HD
ENDROOT
BRANCH   1   5
HETATM    5  C   UNL     1     -41.378  59.729 -52.966  1.00  0.00     0.124 C 
BRANCH   5   6
HETATM    6  C   UNL     1     -41.957  58.332 -52.752  1.00  0.00     0.047 C 
BRANCH   6   7
HETATM    7  C   UNL     1     -42.890  58.321 -51.549  1.00  0.00     0.236 C 
BRANCH   7   8
HETATM    8  N   UNL     1     -42.625  57.106 -50.687  1.00  0.00    -0.068 N 
HETATM    9  C   UNL     1     -43.424  55.868 -51.123  1.00  0.00     0.254 C 
HETATM   10  C   UNL     1     -43.134  54.681 -50.177  1.00  0.00     0.150 C 
HETATM   11  N   UNL     1     -41.687  54.412 -50.071  1.00  0.00    -0.378 N 
HETATM   12  C   UNL     1     -40.881  55.585 -49.671  1.00  0.00     0.150 C 
HETATM   13  C   UNL     1     -41.129  56.768 -50.631  1.00  0.00     0.254 C 
HETATM   14  H   UNL     1     -42.912  57.327 -49.725  1.00  0.00     0.280 HD
BRANCH  11  15
HETATM   15  C   UNL     1     -41.073  53.478 -50.908  1.00  0.00     0.030 A 
HETATM   16  C   UNL     1     -40.386  52.352 -50.436  1.00  0.00     0.032 A 
HETATM   17  C   UNL     1     -39.788  51.436 -51.314  1.00  0.00     0.039 A 
HETATM   18  C   UNL     1     -39.843  51.623 -52.692  1.00  0.00     0.068 A 
HETATM   19  C   UNL     1     -40.485  52.751 -53.185  1.00  0.00     0.039 A 
HETATM   20  C   UNL     1     -41.083  53.662 -52.302  1.00  0.00     0.032 A 
BRANCH  18  21
HETATM   21  O   UNL     1     -39.227  50.653 -53.430  1.00  0.00    -0.356 OA
HETATM   22  C   UNL     1     -39.951  50.125 -54.534  1.00  0.00     0.210 C 
ENDBRANCH  18  21
ENDBRANCH  11  15
ENDBRANCH   7   8
ENDBRANCH   6   7
ENDBRANCH   5   6
ENDBRANCH   1   5
BRANCH   2  23
HETATM   23  C   UNL     1     -43.973  61.944 -54.593  1.00  0.00     0.105 C 
BRANCH  23  24
HETATM   24  C   UNL     1     -43.513  61.635 -56.023  1.00  0.00     0.046 C 
BRANCH  24  25
HETATM   25  C   UNL     1     -44.205  60.457 -56.713  1.00  0.00     0.203 A 
HETATM   26  N   UNL     1     -44.246  59.272 -55.830  1.00  0.00    -0.257 NA
HETATM   27  C   UNL     1     -43.714  58.325 -56.543  1.00  0.00     0.147 A 
HETATM   28  N   UNL     1     -43.261  58.642 -57.792  1.00  0.00    -0.239 N 
HETATM   29  C   UNL     1     -43.567  56.945 -56.073  1.00  0.00     0.037 A 
HETATM   30  C   UNL     1     -42.614  57.742 -58.645  1.00  0.00     0.187 A 
HETATM   31  C   UNL     1     -43.518  59.984 -57.981  1.00  0.00     0.257 A 
HETATM   32  S   UNL     1     -41.947  58.069 -60.149  1.00  0.00    -0.040 SA
HETATM   33  N   UNL     1     -42.509  56.447 -58.187  1.00  0.00    -0.332 N 
HETATM   34  C   UNL     1     -42.965  56.029 -56.933  1.00  0.00     0.048 A 
HETATM   35  H   UNL     1     -42.062  55.776 -58.802  1.00  0.00     0.168 HD
HETATM   36  C   UNL     1     -42.813  54.700 -56.540  1.00  0.00     0.030 A 
HETATM   37  C   UNL     1     -43.268  54.297 -55.282  1.00  0.00     0.002 A 
HETATM   38  C   UNL     1     -43.870  55.218 -54.421  1.00  0.00     0.001 A 
HETATM   39  C   UNL     1     -44.022  56.547 -54.814  1.00  0.00     0.017 A 
HETATM   40  O   UNL     1     -43.251  60.715 -58.925  1.00  0.00    -0.270 OA
ENDBRANCH  24  25
ENDBRANCH  23  24
ENDBRANCH   2  23
TORSDOF 9
ENDMDL
MODEL 4
REMARK VINA RESULT:      -8.4      1.489      4.425
REMARK  9 active torsions:
REMARK  status: ('A' for Active; 'I' for Inactive)
REMARK    1  A    between atoms: O_2  and  C_3 
REMARK    2  A    between atoms: C_6  and  N_7 
REMARK    3  A    between atoms: N_10  and  C_12 
REMARK    4  A    between atoms: C_12  and  C_13 
REMARK    5  A    between atoms: C_13  and  C_14 
REMARK    6  A    between atoms: C_14  and  N_15 
REMARK       I    between atoms: N_15  and  C_16 
REMARK    7  A    between atoms: C_16  and  C_17 
REMARK    8  A    between atoms: C_17  and  C_18 
REMARK    9  A    between atoms: C_18  and  C_19 
ROOT
HETATM    1  N   UNL     1     -44.058  57.635 -53.053  1.00  0.00    -0.361 N 
HETATM    2  C   UNL     1     -44.321  56.990 -54.244  1.00  0.00     0.217 C 
HETATM    3  O   UNL     1     -45.076  57.448 -55.099  1.00  0.00    -0.274 OA
HETATM    4  H   UNL     1     -43.603  57.097 -52.323  1.00  0.00     0.162 HD
ENDROOT
BRANCH   1   5
HETATM    5  C   UNL     1     -44.879  58.751 -52.632  1.00  0.00     0.124 C 
BRANCH   5   6
HETATM    6  C   UNL     1     -44.191  60.096 -52.859  1.00  0.00     0.047 C 
BRANCH   6   7
HETATM    7  C   UNL     1     -45.063  61.001 -53.719  1.00  0.00     0.236 C 
BRANCH   7   8
HETATM    8  N   UNL     1     -44.407  61.246 -55.061  1.00  0.00    -0.068 N 
HETATM    9  C   UNL     1     -43.108  60.447 -55.254  1.00  0.00     0.254 C 
HETATM   10  C   UNL     1     -42.476  60.776 -56.625  1.00  0.00     0.150 C 
HETATM   11  N   UNL     1     -43.434  60.572 -57.728  1.00  0.00    -0.378 N 
HETATM   12  C   UNL     1     -44.705  61.310 -57.569  1.00  0.00     0.150 C 
HETATM   13  C   UNL     1     -45.371  60.963 -56.221  1.00  0.00     0.254 C 
HETATM   14  H   UNL     1     -44.161  62.241 -55.120  1.00  0.00     0.280 HD
BRANCH  11  15
HETATM   15  C   UNL     1     -43.490  59.353 -58.407  1.00  0.00     0.030 A 
HETATM   16  C   UNL     1     -42.649  58.270 -58.121  1.00  0.00     0.032 A 
HETATM   17  C   UNL     1     -42.745  57.061 -58.826  1.00  0.00     0.039 A 
HETATM   18  C   UNL     1     -43.673  56.900 -59.850  1.00  0.00     0.068 A 
HETATM   19  C   UNL     1     -44.494  57.970 -60.180  1.00  0.00     0.039 A 
HETATM   20  C   UNL     1     -44.395  59.176 -59.469  1.00  0.00     0.032 A 
BRANCH  18  21
HETATM   21  O   UNL     1     -43.665  55.672 -60.447  1.00  0.00    -0.356 OA
HETATM   22  C   UNL     1     -44.911  55.175 -60.920  1.00  0.00     0.210 C 
ENDBRANCH  18  21
ENDBRANCH  11  15
ENDBRANCH   7   8
ENDBRANCH   6   7
ENDBRANCH   5   6
ENDBRANCH   1   5
BRANCH   2  23
HETATM   23  C   UNL     1     -43.640  55.647 -54.399  1.00  0.00     0.105 C 
BRANCH  23  24
HETATM   24  C   UNL     1     -42.434  55.675 -55.345  1.00  0.00     0.046 C 
BRANCH  24  25
HETATM   25  C   UNL     1     -41.084  55.304 -54.727  1.00  0.00     0.203 A 
HETATM   26  N   UNL     1     -40.802  53.862 -54.892  1.00  0.00    -0.257 NA
HETATM   27  C   UNL     1     -40.551  53.446 -53.686  1.00  0.00     0.147 A 
HETATM   28  N   UNL     1     -40.639  54.351 -52.667  1.00  0.00    -0.239 N 
HETATM   29  C   UNL     1     -40.189  52.062 -53.367  1.00  0.00     0.037 A 
HETATM   30  C   UNL     1     -40.456  54.034 -51.316  1.00  0.00     0.187 A 
HETATM   31  C   UNL     1     -40.990  55.558 -53.234  1.00  0.00     0.257 A 
HETATM   32  S   UNL     1     -40.637  55.056 -49.999  1.00  0.00    -0.040 SA
HETATM   33  N   UNL     1     -40.096  52.732 -51.047  1.00  0.00    -0.332 N 
HETATM   34  C   UNL     1     -39.959  51.746 -52.030  1.00  0.00     0.048 A 
HETATM   35  H   UNL     1     -39.937  52.489 -50.076  1.00  0.00     0.168 HD
HETATM   36  C   UNL     1     -39.599  50.447 -51.674  1.00  0.00     0.030 A 
HETATM   37  C   UNL     1     -39.472  49.471 -52.665  1.00  0.00     0.002 A 
HETATM   38  C   UNL     1     -39.705  49.791 -54.004  1.00  0.00     0.001 A 
HETATM   39  C   UNL     1     -40.064  51.090 -54.361  1.00  0.00     0.017 A 
HETATM   40  O   UNL     1     -41.225  56.639 -52.710  1.00  0.00    -0.270 OA
ENDBRANCH  24  25
ENDBRANCH  23  24
ENDBRANCH   2  23
TORSDOF 9
ENDMDL
MODEL 5
REMARK VINA RESULT:      -8.4      1.803      2.199
REMARK  9 active torsions:
REMARK  status: ('A' for Active; 'I' for Inactive)
REMARK    1  A    between atoms: O_2  and  C_3 
REMARK    2  A    between atoms: C_6  and  N_7 
REMARK    3  A    between atoms: N_10  and  C_12 
REMARK    4  A    between atoms: C_12  and  C_13 
REMARK    5  A    between atoms: C_13  and  C_14 
REMARK    6  A    between atoms: C_14  and  N_15 
REMARK       I    between atoms: N_15  and  C_16 
REMARK    7  A    between atoms: C_16  and  C_17 
REMARK    8  A    between atoms: C_17  and  C_18 
REMARK    9  A    between atoms: C_18  and  C_19 
ROOT
HETATM    1  N   UNL     1     -42.904  55.649 -56.372  1.00  0.00    -0.361 N 
HETATM    2  C   UNL     1     -43.351  54.677 -55.499  1.00  0.00     0.217 C 
HETATM    3  O   UNL     1     -43.600  53.527 -55.852  1.00  0.00    -0.274 OA
HETATM    4  H   UNL     1     -42.929  56.610 -56.049  1.00  0.00     0.162 HD
ENDROOT
BRANCH   1   5
HETATM    5  C   UNL     1     -42.975  55.432 -57.802  1.00  0.00     0.124 C 
BRANCH   5   6
HETATM    6  C   UNL     1     -42.920  56.739 -58.591  1.00  0.00     0.047 C 
BRANCH   6   7
HETATM    7  C   UNL     1     -44.319  57.314 -58.765  1.00  0.00     0.236 C 
BRANCH   7   8
HETATM    8  N   UNL     1     -44.459  58.603 -57.984  1.00  0.00    -0.068 N 
HETATM    9  C   UNL     1     -45.415  58.485 -56.786  1.00  0.00     0.254 C 
HETATM   10  C   UNL     1     -45.539  59.844 -56.063  1.00  0.00     0.150 C 
HETATM   11  N   UNL     1     -44.218  60.379 -55.681  1.00  0.00    -0.378 N 
HETATM   12  C   UNL     1     -43.263  60.491 -56.804  1.00  0.00     0.150 C 
HETATM   13  C   UNL     1     -43.097  59.130 -57.514  1.00  0.00     0.254 C 
HETATM   14  H   UNL     1     -44.849  59.317 -58.612  1.00  0.00     0.280 HD
BRANCH  11  15
HETATM   15  C   UNL     1     -43.682  60.120 -54.418  1.00  0.00     0.030 A 
HETATM   16  C   UNL     1     -42.318  60.233 -54.120  1.00  0.00     0.032 A 
HETATM   17  C   UNL     1     -41.823  59.968 -52.835  1.00  0.00     0.039 A 
HETATM   18  C   UNL     1     -42.672  59.565 -51.809  1.00  0.00     0.068 A 
HETATM   19  C   UNL     1     -44.023  59.407 -52.086  1.00  0.00     0.039 A 
HETATM   20  C   UNL     1     -44.512  59.677 -53.374  1.00  0.00     0.032 A 
BRANCH  18  21
HETATM   21  O   UNL     1     -42.062  59.347 -50.607  1.00  0.00    -0.356 OA
HETATM   22  C   UNL     1     -40.706  59.762 -50.487  1.00  0.00     0.210 C 
ENDBRANCH  18  21
ENDBRANCH  11  15
ENDBRANCH   7   8
ENDBRANCH   6   7
ENDBRANCH   5   6
ENDBRANCH   1   5
BRANCH   2  23
HETATM   23  C   UNL     1     -43.554  55.151 -54.076  1.00  0.00     0.105 C 
BRANCH  23  24
HETATM   24  C   UNL     1     -42.536  56.207 -53.628  1.00  0.00     0.046 C 
BRANCH  24  25
HETATM   25  C   UNL     1     -41.170  55.679 -53.185  1.00  0.00     0.203 A 
HETATM   26  N   UNL     1     -40.880  54.368 -53.803  1.00  0.00    -0.257 NA
HETATM   27  C   UNL     1     -40.599  53.596 -52.796  1.00  0.00     0.147 A 
HETATM   28  N   UNL     1     -40.671  54.130 -51.541  1.00  0.00    -0.239 N 
HETATM   29  C   UNL     1     -40.219  52.187 -52.938  1.00  0.00     0.037 A 
HETATM   30  C   UNL     1     -40.455  53.405 -50.364  1.00  0.00     0.187 A 
HETATM   31  C   UNL     1     -41.044  55.450 -51.690  1.00  0.00     0.257 A 
HETATM   32  S   UNL     1     -40.614  53.955 -48.788  1.00  0.00    -0.040 SA
HETATM   33  N   UNL     1     -40.079  52.090 -50.528  1.00  0.00    -0.332 N 
HETATM   34  C   UNL     1     -39.956  51.467 -51.775  1.00  0.00     0.048 A 
HETATM   35  H   UNL     1     -39.896  51.555 -49.686  1.00  0.00     0.168 HD
HETATM   36  C   UNL     1     -39.578  50.128 -51.854  1.00  0.00     0.030 A 
HETATM   37  C   UNL     1     -39.465  49.517 -53.105  1.00  0.00     0.002 A 
HETATM   38  C   UNL     1     -39.731  50.241 -54.270  1.00  0.00     0.001 A 
HETATM   39  C   UNL     1     -40.108  51.582 -54.191  1.00  0.00     0.017 A 
HETATM   40  O   UNL     1     -41.275  56.306 -50.847  1.00  0.00    -0.270 OA
ENDBRANCH  24  25
ENDBRANCH  23  24
ENDBRANCH   2  23
TORSDOF 9
ENDMDL
MODEL 6
REMARK VINA RESULT:      -8.3      2.339      5.291
REMARK  9 active torsions:
REMARK  status: ('A' for Active; 'I' for Inactive)
REMARK    1  A    between atoms: O_2  and  C_3 
REMARK    2  A    between atoms: C_6  and  N_7 
REMARK    3  A    between atoms: N_10  and  C_12 
REMARK    4  A    between atoms: C_12  and  C_13 
REMARK    5  A    between atoms: C_13  and  C_14 
REMARK    6  A    between atoms: C_14  and  N_15 
REMARK       I    between atoms: N_15  and  C_16 
REMARK    7  A    between atoms: C_16  and  C_17 
REMARK    8  A    between atoms: C_17  and  C_18 
REMARK    9  A    between atoms: C_18  and  C_19 
ROOT
HETATM    1  N   UNL     1     -44.542  59.373 -52.908  1.00  0.00    -0.361 N 
HETATM    2  C   UNL     1     -43.778  58.912 -51.855  1.00  0.00     0.217 C 
HETATM    3  O   UNL     1     -42.865  59.565 -51.356  1.00  0.00    -0.274 OA
HETATM    4  H   UNL     1     -45.122  58.697 -53.394  1.00  0.00     0.162 HD
ENDROOT
BRANCH   1   5
HETATM    5  C   UNL     1     -44.119  60.537 -53.659  1.00  0.00     0.124 C 
BRANCH   5   6
HETATM    6  C   UNL     1     -43.841  60.213 -55.126  1.00  0.00     0.047 C 
BRANCH   6   7
HETATM    7  C   UNL     1     -42.358  59.946 -55.339  1.00  0.00     0.236 C 
BRANCH   7   8
HETATM    8  N   UNL     1     -42.162  58.740 -56.232  1.00  0.00    -0.068 N 
HETATM    9  C   UNL     1     -43.085  57.564 -55.873  1.00  0.00     0.254 C 
HETATM   10  C   UNL     1     -42.803  56.359 -56.797  1.00  0.00     0.150 C 
HETATM   11  N   UNL     1     -42.894  56.734 -58.221  1.00  0.00    -0.378 N 
HETATM   12  C   UNL     1     -42.034  57.874 -58.603  1.00  0.00     0.150 C 
HETATM   13  C   UNL     1     -42.331  59.101 -57.714  1.00  0.00     0.254 C 
HETATM   14  H   UNL     1     -41.196  58.410 -56.119  1.00  0.00     0.280 HD
BRANCH  11  15
HETATM   15  C   UNL     1     -44.092  56.582 -58.923  1.00  0.00     0.030 A 
HETATM   16  C   UNL     1     -44.304  55.583 -59.882  1.00  0.00     0.032 A 
HETATM   17  C   UNL     1     -45.525  55.464 -60.560  1.00  0.00     0.039 A 
HETATM   18  C   UNL     1     -46.571  56.349 -60.314  1.00  0.00     0.068 A 
HETATM   19  C   UNL     1     -46.375  57.371 -59.396  1.00  0.00     0.039 A 
HETATM   20  C   UNL     1     -45.151  57.484 -58.719  1.00  0.00     0.032 A 
BRANCH  18  21
HETATM   21  O   UNL     1     -47.706  56.115 -61.036  1.00  0.00    -0.356 OA
HETATM   22  C   UNL     1     -48.225  57.202 -61.793  1.00  0.00     0.210 C 
ENDBRANCH  18  21
ENDBRANCH  11  15
ENDBRANCH   7   8
ENDBRANCH   6   7
ENDBRANCH   5   6
ENDBRANCH   1   5
BRANCH   2  23
HETATM   23  C   UNL     1     -44.124  57.514 -51.389  1.00  0.00     0.105 C 
BRANCH  23  24
HETATM   24  C   UNL     1     -43.628  56.411 -52.331  1.00  0.00     0.046 C 
BRANCH  24  25
HETATM   25  C   UNL     1     -42.134  56.085 -52.258  1.00  0.00     0.203 A 
HETATM   26  N   UNL     1     -41.801  54.921 -53.106  1.00  0.00    -0.257 NA
HETATM   27  C   UNL     1     -41.189  54.105 -52.302  1.00  0.00     0.147 A 
HETATM   28  N   UNL     1     -41.054  54.477 -50.994  1.00  0.00    -0.239 N 
HETATM   29  C   UNL     1     -40.647  52.810 -52.722  1.00  0.00     0.037 A 
HETATM   30  C   UNL     1     -40.473  53.677 -50.005  1.00  0.00     0.187 A 
HETATM   31  C   UNL     1     -41.641  55.719 -50.870  1.00  0.00     0.257 A 
HETATM   32  S   UNL     1     -40.351  54.014 -48.367  1.00  0.00    -0.040 SA
HETATM   33  N   UNL     1     -39.954  52.474 -50.432  1.00  0.00    -0.332 N 
HETATM   34  C   UNL     1     -40.025  52.024 -51.754  1.00  0.00     0.048 A 
HETATM   35  H   UNL     1     -39.508  51.891 -49.732  1.00  0.00     0.168 HD
HETATM   36  C   UNL     1     -39.481  50.789 -52.103  1.00  0.00     0.030 A 
HETATM   37  C   UNL     1     -39.565  50.348 -53.426  1.00  0.00     0.002 A 
HETATM   38  C   UNL     1     -40.191  51.138 -54.394  1.00  0.00     0.001 A 
HETATM   39  C   UNL     1     -40.735  52.374 -54.045  1.00  0.00     0.017 A 
HETATM   40  O   UNL     1     -41.800  56.424 -49.883  1.00  0.00    -0.270 OA
ENDBRANCH  24  25
ENDBRANCH  23  24
ENDBRANCH   2  23
TORSDOF 9
ENDMDL
MODEL 7
REMARK VINA RESULT:      -8.1      3.188      8.500
REMARK  9 active torsions:
REMARK  status: ('A' for Active; 'I' for Inactive)
REMARK    1  A    between atoms: O_2  and  C_3 
REMARK    2  A    between atoms: C_6  and  N_7 
REMARK    3  A    between atoms: N_10  and  C_12 
REMARK    4  A    between atoms: C_12  and  C_13 
REMARK    5  A    between atoms: C_13  and  C_14 
REMARK    6  A    between atoms: C_14  and  N_15 
REMARK       I    between atoms: N_15  and  C_16 
REMARK    7  A    between atoms: C_16  and  C_17 
REMARK    8  A    between atoms: C_17  and  C_18 
REMARK    9  A    between atoms: C_18  and  C_19 
ROOT
HETATM    1  N   UNL     1     -42.555  58.433 -54.040  1.00  0.00    -0.361 N 
HETATM    2  C   UNL     1     -42.209  57.220 -54.601  1.00  0.00     0.217 C 
HETATM    3  O   UNL     1     -41.130  56.670 -54.392  1.00  0.00    -0.274 OA
HETATM    4  H   UNL     1     -43.360  58.912 -54.427  1.00  0.00     0.162 HD
ENDROOT
BRANCH   1   5
HETATM    5  C   UNL     1     -41.547  59.252 -53.399  1.00  0.00     0.124 C 
BRANCH   5   6
HETATM    6  C   UNL     1     -41.466  59.003 -51.894  1.00  0.00     0.047 C 
BRANCH   6   7
HETATM    7  C   UNL     1     -42.827  58.594 -51.349  1.00  0.00     0.236 C 
BRANCH   7   8
HETATM    8  N   UNL     1     -42.739  57.246 -50.668  1.00  0.00    -0.068 N 
HETATM    9  C   UNL     1     -43.520  56.144 -51.401  1.00  0.00     0.254 C 
HETATM   10  C   UNL     1     -43.417  54.809 -50.630  1.00  0.00     0.150 C 
HETATM   11  N   UNL     1     -42.013  54.434 -50.378  1.00  0.00    -0.378 N 
HETATM   12  C   UNL     1     -41.223  55.476 -49.689  1.00  0.00     0.150 C 
HETATM   13  C   UNL     1     -41.281  56.808 -50.469  1.00  0.00     0.254 C 
HETATM   14  H   UNL     1     -43.149  57.333 -49.730  1.00  0.00     0.280 HD
BRANCH  11  15
HETATM   15  C   UNL     1     -41.326  53.603 -51.266  1.00  0.00     0.030 A 
HETATM   16  C   UNL     1     -40.361  52.671 -50.863  1.00  0.00     0.032 A 
HETATM   17  C   UNL     1     -39.700  51.853 -51.789  1.00  0.00     0.039 A 
HETATM   18  C   UNL     1     -39.969  51.948 -53.151  1.00  0.00     0.068 A 
HETATM   19  C   UNL     1     -40.894  52.890 -53.582  1.00  0.00     0.039 A 
HETATM   20  C   UNL     1     -41.554  53.704 -52.650  1.00  0.00     0.032 A 
BRANCH  18  21
HETATM   21  O   UNL     1     -39.261  51.088 -53.940  1.00  0.00    -0.356 OA
HETATM   22  C   UNL     1     -39.877  49.845 -54.256  1.00  0.00     0.210 C 
ENDBRANCH  18  21
ENDBRANCH  11  15
ENDBRANCH   7   8
ENDBRANCH   6   7
ENDBRANCH   5   6
ENDBRANCH   1   5
BRANCH   2  23
HETATM   23  C   UNL     1     -43.250  56.636 -55.532  1.00  0.00     0.105 C 
BRANCH  23  24
HETATM   24  C   UNL     1     -42.696  55.563 -56.477  1.00  0.00     0.046 C 
BRANCH  24  25
HETATM   25  C   UNL     1     -42.556  55.967 -57.947  1.00  0.00     0.203 A 
HETATM   26  N   UNL     1     -42.380  57.429 -58.082  1.00  0.00    -0.257 NA
HETATM   27  C   UNL     1     -43.310  57.786 -58.915  1.00  0.00     0.147 A 
HETATM   28  N   UNL     1     -44.157  56.821 -59.382  1.00  0.00    -0.239 N 
HETATM   29  C   UNL     1     -43.502  59.166 -59.371  1.00  0.00     0.037 A 
HETATM   30  C   UNL     1     -45.238  57.068 -60.234  1.00  0.00     0.187 A 
HETATM   31  C   UNL     1     -43.761  55.631 -58.805  1.00  0.00     0.257 A 
HETATM   32  S   UNL     1     -46.377  55.963 -60.777  1.00  0.00    -0.040 SA
HETATM   33  N   UNL     1     -45.382  58.369 -60.662  1.00  0.00    -0.332 N 
HETATM   34  C   UNL     1     -44.548  59.416 -60.256  1.00  0.00     0.048 A 
HETATM   35  H   UNL     1     -46.147  58.563 -61.299  1.00  0.00     0.168 HD
HETATM   36  C   UNL     1     -44.766  60.709 -60.730  1.00  0.00     0.030 A 
HETATM   37  C   UNL     1     -43.930  61.746 -60.311  1.00  0.00     0.002 A 
HETATM   38  C   UNL     1     -42.883  61.493 -59.421  1.00  0.00     0.001 A 
HETATM   39  C   UNL     1     -42.665  60.200 -58.948  1.00  0.00     0.017 A 
HETATM   40  O   UNL     1     -44.246  54.512 -58.892  1.00  0.00    -0.270 OA
ENDBRANCH  24  25
ENDBRANCH  23  24
ENDBRANCH   2  23
TORSDOF 9
ENDMDL
MODEL 8
REMARK VINA RESULT:      -8.1      2.372      5.334
REMARK  9 active torsions:
REMARK  status: ('A' for Active; 'I' for Inactive)
REMARK    1  A    between atoms: O_2  and  C_3 
REMARK    2  A    between atoms: C_6  and  N_7 
REMARK    3  A    between atoms: N_10  and  C_12 
REMARK    4  A    between atoms: C_12  and  C_13 
REMARK    5  A    between atoms: C_13  and  C_14 
REMARK    6  A    between atoms: C_14  and  N_15 
REMARK       I    between atoms: N_15  and  C_16 
REMARK    7  A    between atoms: C_16  and  C_17 
REMARK    8  A    between atoms: C_17  and  C_18 
REMARK    9  A    between atoms: C_18  and  C_19 
ROOT
HETATM    1  N   UNL     1     -42.350  59.228 -50.572  1.00  0.00    -0.361 N 
HETATM    2  C   UNL     1     -41.132  58.950 -51.158  1.00  0.00     0.217 C 
HETATM    3  O   UNL     1     -40.540  59.749 -51.879  1.00  0.00    -0.274 OA
HETATM    4  H   UNL     1     -42.865  58.449 -50.175  1.00  0.00     0.162 HD
ENDROOT
BRANCH   1   5
HETATM    5  C   UNL     1     -43.123  60.373 -51.007  1.00  0.00     0.124 C 
BRANCH   5   6
HETATM    6  C   UNL     1     -44.166  60.004 -52.060  1.00  0.00     0.047 C 
BRANCH   6   7
HETATM    7  C   UNL     1     -44.106  60.974 -53.231  1.00  0.00     0.236 C 
BRANCH   7   8
HETATM    8  N   UNL     1     -43.180  60.446 -54.306  1.00  0.00    -0.068 N 
HETATM    9  C   UNL     1     -43.023  58.917 -54.273  1.00  0.00     0.254 C 
HETATM   10  C   UNL     1     -42.038  58.455 -55.369  1.00  0.00     0.150 C 
HETATM   11  N   UNL     1     -42.431  58.955 -56.700  1.00  0.00    -0.378 N 
HETATM   12  C   UNL     1     -42.610  60.420 -56.768  1.00  0.00     0.150 C 
HETATM   13  C   UNL     1     -43.624  60.895 -55.705  1.00  0.00     0.254 C 
HETATM   14  H   UNL     1     -42.247  60.848 -54.151  1.00  0.00     0.280 HD
BRANCH  11  15
HETATM   15  C   UNL     1     -43.231  58.180 -57.544  1.00  0.00     0.030 A 
HETATM   16  C   UNL     1     -42.913  56.869 -57.920  1.00  0.00     0.032 A 
HETATM   17  C   UNL     1     -43.748  56.125 -58.766  1.00  0.00     0.039 A 
HETATM   18  C   UNL     1     -44.920  56.673 -59.279  1.00  0.00     0.068 A 
HETATM   19  C   UNL     1     -45.240  57.984 -58.953  1.00  0.00     0.039 A 
HETATM   20  C   UNL     1     -44.401  58.722 -58.103  1.00  0.00     0.032 A 
BRANCH  18  21
HETATM   21  O   UNL     1     -45.643  55.839 -60.082  1.00  0.00    -0.356 OA
HETATM   22  C   UNL     1     -44.910  54.995 -60.963  1.00  0.00     0.210 C 
ENDBRANCH  18  21
ENDBRANCH  11  15
ENDBRANCH   7   8
ENDBRANCH   6   7
ENDBRANCH   5   6
ENDBRANCH   1   5
BRANCH   2  23
HETATM   23  C   UNL     1     -40.600  57.561 -50.878  1.00  0.00     0.105 C 
BRANCH  23  24
HETATM   24  C   UNL     1     -41.383  56.808 -49.795  1.00  0.00     0.046 C 
BRANCH  24  25
HETATM   25  C   UNL     1     -42.107  55.539 -50.248  1.00  0.00     0.203 A 
HETATM   26  N   UNL     1     -41.149  54.442 -50.503  1.00  0.00    -0.257 NA
HETATM   27  C   UNL     1     -41.423  54.054 -51.712  1.00  0.00     0.147 A 
HETATM   28  N   UNL     1     -42.406  54.718 -52.390  1.00  0.00    -0.239 N 
HETATM   29  C   UNL     1     -40.729  52.953 -52.386  1.00  0.00     0.037 A 
HETATM   30  C   UNL     1     -42.766  54.451 -53.715  1.00  0.00     0.187 A 
HETATM   31  C   UNL     1     -42.888  55.692 -51.540  1.00  0.00     0.257 A 
HETATM   32  S   UNL     1     -43.890  55.274 -54.648  1.00  0.00    -0.040 SA
HETATM   33  N   UNL     1     -42.112  53.398 -54.316  1.00  0.00    -0.332 N 
HETATM   34  C   UNL     1     -41.111  52.648 -53.690  1.00  0.00     0.048 A 
HETATM   35  H   UNL     1     -42.377  53.175 -55.269  1.00  0.00     0.168 HD
HETATM   36  C   UNL     1     -40.491  51.601 -54.371  1.00  0.00     0.030 A 
HETATM   37  C   UNL     1     -39.488  50.864 -53.736  1.00  0.00     0.002 A 
HETATM   38  C   UNL     1     -39.106  51.174 -52.429  1.00  0.00     0.001 A 
HETATM   39  C   UNL     1     -39.726  52.221 -51.747  1.00  0.00     0.017 A 
HETATM   40  O   UNL     1     -43.737  56.553 -51.725  1.00  0.00    -0.270 OA
ENDBRANCH  24  25
ENDBRANCH  23  24
ENDBRANCH   2  23
TORSDOF 9
ENDMDL
MODEL 9
REMARK VINA RESULT:      -8.0      2.300      5.327
REMARK  9 active torsions:
REMARK  status: ('A' for Active; 'I' for Inactive)
REMARK    1  A    between atoms: O_2  and  C_3 
REMARK    2  A    between atoms: C_6  and  N_7 
REMARK    3  A    between atoms: N_10  and  C_12 
REMARK    4  A    between atoms: C_12  and  C_13 
REMARK    5  A    between atoms: C_13  and  C_14 
REMARK    6  A    between atoms: C_14  and  N_15 
REMARK       I    between atoms: N_15  and  C_16 
REMARK    7  A    between atoms: C_16  and  C_17 
REMARK    8  A    between atoms: C_17  and  C_18 
REMARK    9  A    between atoms: C_18  and  C_19 
ROOT
HETATM    1  N   UNL     1     -42.001  59.570 -52.806  1.00  0.00    -0.361 N 
HETATM    2  C   UNL     1     -40.818  58.935 -52.484  1.00  0.00     0.217 C 
HETATM    3  O   UNL     1     -39.760  59.157 -53.068  1.00  0.00    -0.274 OA
HETATM    4  H   UNL     1     -42.857  59.179 -52.428  1.00  0.00     0.162 HD
ENDROOT
BRANCH   1   5
HETATM    5  C   UNL     1     -42.109  60.326 -54.037  1.00  0.00     0.124 C 
BRANCH   5   6
HETATM    6  C   UNL     1     -43.562  60.555 -54.451  1.00  0.00     0.047 C 
BRANCH   6   7
HETATM    7  C   UNL     1     -43.750  61.977 -54.961  1.00  0.00     0.236 C 
BRANCH   7   8
HETATM    8  N   UNL     1     -43.929  61.979 -56.464  1.00  0.00    -0.068 N 
HETATM    9  C   UNL     1     -42.689  61.481 -57.223  1.00  0.00     0.254 C 
HETATM   10  C   UNL     1     -42.930  61.547 -58.747  1.00  0.00     0.150 C 
HETATM   11  N   UNL     1     -44.157  60.827 -59.135  1.00  0.00    -0.378 N 
HETATM   12  C   UNL     1     -45.370  61.266 -58.414  1.00  0.00     0.150 C 
HETATM   13  C   UNL     1     -45.161  61.168 -56.887  1.00  0.00     0.254 C 
HETATM   14  H   UNL     1     -44.099  62.947 -56.765  1.00  0.00     0.280 HD
BRANCH  11  15
HETATM   15  C   UNL     1     -44.104  59.487 -59.527  1.00  0.00     0.030 A 
HETATM   16  C   UNL     1     -45.223  58.644 -59.549  1.00  0.00     0.032 A 
HETATM   17  C   UNL     1     -45.124  57.306 -59.955  1.00  0.00     0.039 A 
HETATM   18  C   UNL     1     -43.902  56.760 -60.337  1.00  0.00     0.068 A 
HETATM   19  C   UNL     1     -42.771  57.563 -60.289  1.00  0.00     0.039 A 
HETATM   20  C   UNL     1     -42.876  58.903 -59.884  1.00  0.00     0.032 A 
BRANCH  18  21
HETATM   21  O   UNL     1     -43.949  55.450 -60.716  1.00  0.00    -0.356 OA
HETATM   22  C   UNL     1     -44.736  54.574 -59.917  1.00  0.00     0.210 C 
ENDBRANCH  18  21
ENDBRANCH  11  15
ENDBRANCH   7   8
ENDBRANCH   6   7
ENDBRANCH   5   6
ENDBRANCH   1   5
BRANCH   2  23
HETATM   23  C   UNL     1     -40.935  57.906 -51.380  1.00  0.00     0.105 C 
BRANCH  23  24
HETATM   24  C   UNL     1     -42.383  57.567 -51.005  1.00  0.00     0.046 C 
BRANCH  24  25
HETATM   25  C   UNL     1     -42.940  56.264 -51.581  1.00  0.00     0.203 A 
HETATM   26  N   UNL     1     -42.021  55.134 -51.326  1.00  0.00    -0.257 NA
HETATM   27  C   UNL     1     -41.820  54.617 -52.501  1.00  0.00     0.147 A 
HETATM   28  N   UNL     1     -42.419  55.212 -53.574  1.00  0.00    -0.239 N 
HETATM   29  C   UNL     1     -40.979  53.438 -52.732  1.00  0.00     0.037 A 
HETATM   30  C   UNL     1     -42.244  54.803 -54.900  1.00  0.00     0.187 A 
HETATM   31  C   UNL     1     -43.142  56.281 -53.085  1.00  0.00     0.257 A 
HETATM   32  S   UNL     1     -42.864  55.530 -56.278  1.00  0.00    -0.040 SA
HETATM   33  N   UNL     1     -41.466  53.681 -55.086  1.00  0.00    -0.332 N 
HETATM   34  C   UNL     1     -40.834  52.994 -54.044  1.00  0.00     0.048 A 
HETATM   35  H   UNL     1     -41.347  53.356 -56.039  1.00  0.00     0.168 HD
HETATM   36  C   UNL     1     -40.056  51.870 -54.317  1.00  0.00     0.030 A 
HETATM   37  C   UNL     1     -39.425  51.197 -53.268  1.00  0.00     0.002 A 
HETATM   38  C   UNL     1     -39.570  51.646 -51.953  1.00  0.00     0.001 A 
HETATM   39  C   UNL     1     -40.350  52.770 -51.680  1.00  0.00     0.017 A 
HETATM   40  O   UNL     1     -43.801  57.126 -53.675  1.00  0.00    -0.270 OA
ENDBRANCH  24  25
ENDBRANCH  23  24
ENDBRANCH   2  23
TORSDOF 9
ENDMDL
MODEL 10
REMARK VINA RESULT:      -8.0      3.838      5.110
REMARK  9 active torsions:
REMARK  status: ('A' for Active; 'I' for Inactive)
REMARK    1  A    between atoms: O_2  and  C_3 
REMARK    2  A    between atoms: C_6  and  N_7 
REMARK    3  A    between atoms: N_10  and  C_12 
REMARK    4  A    between atoms: C_12  and  C_13 
REMARK    5  A    between atoms: C_13  and  C_14 
REMARK    6  A    between atoms: C_14  and  N_15 
REMARK       I    between atoms: N_15  and  C_16 
REMARK    7  A    between atoms: C_16  and  C_17 
REMARK    8  A    between atoms: C_17  and  C_18 
REMARK    9  A    between atoms: C_18  and  C_19 
ROOT
HETATM    1  N   UNL     1     -43.836  57.474 -53.523  1.00  0.00    -0.361 N 
HETATM    2  C   UNL     1     -43.480  58.008 -54.745  1.00  0.00     0.217 C 
HETATM    3  O   UNL     1     -43.847  59.119 -55.121  1.00  0.00    -0.274 OA
HETATM    4  H   UNL     1     -43.674  56.482 -53.384  1.00  0.00     0.162 HD
ENDROOT
BRANCH   1   5
HETATM    5  C   UNL     1     -44.892  58.084 -52.742  1.00  0.00     0.124 C 
BRANCH   5   6
HETATM    6  C   UNL     1     -44.475  58.331 -51.293  1.00  0.00     0.047 C 
BRANCH   6   7
HETATM    7  C   UNL     1     -43.471  59.472 -51.217  1.00  0.00     0.236 C 
BRANCH   7   8
HETATM    8  N   UNL     1     -44.180  60.781 -50.942  1.00  0.00    -0.068 N 
HETATM    9  C   UNL     1     -45.480  60.608 -50.140  1.00  0.00     0.254 C 
HETATM   10  C   UNL     1     -46.167  61.976 -49.932  1.00  0.00     0.150 C 
HETATM   11  N   UNL     1     -45.251  62.957 -49.320  1.00  0.00    -0.378 N 
HETATM   12  C   UNL     1     -43.981  63.138 -50.053  1.00  0.00     0.150 C 
HETATM   13  C   UNL     1     -43.260  61.785 -50.234  1.00  0.00     0.254 C 
HETATM   14  H   UNL     1     -44.436  61.203 -51.843  1.00  0.00     0.280 HD
BRANCH  11  15
HETATM   15  C   UNL     1     -45.212  63.128 -47.934  1.00  0.00     0.030 A 
HETATM   16  C   UNL     1     -44.737  64.290 -47.312  1.00  0.00     0.032 A 
HETATM   17  C   UNL     1     -44.721  64.420 -45.916  1.00  0.00     0.039 A 
HETATM   18  C   UNL     1     -45.164  63.389 -45.094  1.00  0.00     0.068 A 
HETATM   19  C   UNL     1     -45.605  62.211 -45.683  1.00  0.00     0.039 A 
HETATM   20  C   UNL     1     -45.621  62.088 -47.081  1.00  0.00     0.032 A 
BRANCH  18  21
HETATM   21  O   UNL     1     -45.101  63.650 -43.755  1.00  0.00    -0.356 OA
HETATM   22  C   UNL     1     -43.846  63.451 -43.117  1.00  0.00     0.210 C 
ENDBRANCH  18  21
ENDBRANCH  11  15
ENDBRANCH   7   8
ENDBRANCH   6   7
ENDBRANCH   5   6
ENDBRANCH   1   5
BRANCH   2  23
HETATM   23  C   UNL     1     -42.635  57.098 -55.610  1.00  0.00     0.105 C 
BRANCH  23  24
HETATM   24  C   UNL     1     -42.501  55.674 -55.057  1.00  0.00     0.046 C 
BRANCH  24  25
HETATM   25  C   UNL     1     -41.128  55.297 -54.495  1.00  0.00     0.203 A 
HETATM   26  N   UNL     1     -40.832  53.868 -54.728  1.00  0.00    -0.257 NA
HETATM   27  C   UNL     1     -40.539  53.406 -53.550  1.00  0.00     0.147 A 
HETATM   28  N   UNL     1     -40.608  54.266 -52.491  1.00  0.00    -0.239 N 
HETATM   29  C   UNL     1     -40.149  52.015 -53.300  1.00  0.00     0.037 A 
HETATM   30  C   UNL     1     -40.380  53.895 -51.161  1.00  0.00     0.187 A 
HETATM   31  C   UNL     1     -40.992  55.491 -52.996  1.00  0.00     0.257 A 
HETATM   32  S   UNL     1     -40.534  54.859 -49.797  1.00  0.00    -0.040 SA
HETATM   33  N   UNL     1     -39.995  52.588 -50.958  1.00  0.00    -0.332 N 
HETATM   34  C   UNL     1     -39.874  51.646 -51.985  1.00  0.00     0.048 A 
HETATM   35  H   UNL     1     -39.803  52.308 -50.002  1.00  0.00     0.168 HD
HETATM   36  C   UNL     1     -39.486  50.340 -51.694  1.00  0.00     0.030 A 
HETATM   37  C   UNL     1     -39.376  49.407 -52.729  1.00  0.00     0.002 A 
HETATM   38  C   UNL     1     -39.654  49.779 -54.047  1.00  0.00     0.001 A 
HETATM   39  C   UNL     1     -40.041  51.087 -54.337  1.00  0.00     0.017 A 
HETATM   40  O   UNL     1     -41.225  56.545 -52.420  1.00  0.00    -0.270 OA
ENDBRANCH  24  25
ENDBRANCH  23  24
ENDBRANCH   2  23
TORSDOF 9
ENDMDL
