MODEL 1
REMARK VINA RESULT:      -7.5      0.000      0.000
REMARK  6 active torsions:
REMARK  status: ('A' for Active; 'I' for Inactive)
REMARK    1  A    between atoms: O_2  and  C_3 
REMARK    2  A    between atoms: C_3  and  C_4 
REMARK    3  A    between atoms: C_4  and  N_5 
REMARK       I    between atoms: N_5  and  C_6 
REMARK    4  A    between atoms: C_6  and  C_7 
REMARK    5  A    between atoms: C_12  and  C_13 
REMARK    6  A    between atoms: C_20  and  C_21 
ROOT
HETATM    1  C   UNL     1     -42.753  56.892 -56.227  1.00  0.00     0.165 A 
HETATM    2  N   UNL     1     -41.759  56.238 -55.574  1.00  0.00    -0.163 NA
HETATM    3  N   UNL     1     -42.262  56.017 -54.347  1.00  0.00    -0.238 N 
HETATM    4  C   UNL     1     -43.487  56.594 -54.143  1.00  0.00     0.141 A 
HETATM    5  N   UNL     1     -44.063  56.604 -52.912  1.00  0.00    -0.365 N 
HETATM    6  C   UNL     1     -43.253  56.322 -51.725  1.00  0.00     0.118 C 
HETATM    7  C   UNL     1     -42.338  55.131 -52.050  1.00  0.00     0.066 C 
HETATM    8  C   UNL     1     -41.468  55.406 -53.294  1.00  0.00     0.221 C 
HETATM    9  C   UNL     1     -43.852  57.112 -55.359  1.00  0.00     0.092 A 
HETATM   10 BR   UNL     1     -45.442  58.026 -55.744  1.00  0.00    -0.044 Br
HETATM   11  H   UNL     1     -44.869  57.207 -52.745  1.00  0.00     0.162 HD
ENDROOT
BRANCH   1  12
HETATM   12  C   UNL     1     -42.580  57.304 -57.631  1.00  0.00     0.273 C 
HETATM   13  N   UNL     1     -42.554  56.238 -58.505  1.00  0.00    -0.353 N 
HETATM   14  H   UNL     1     -42.812  55.336 -58.109  1.00  0.00     0.162 HD
HETATM   15  O   UNL     1     -42.462  58.469 -57.994  1.00  0.00    -0.266 OA
BRANCH  13  16
HETATM   16  C   UNL     1     -42.548  56.392 -59.943  1.00  0.00     0.149 C 
BRANCH  16  17
HETATM   17  C   UNL     1     -43.959  56.629 -60.480  1.00  0.00     0.186 C 
BRANCH  17  18
HETATM   18  O   UNL     1     -44.406  55.450 -61.160  1.00  0.00    -0.394 OA
HETATM   19  C   UNL     1     -45.144  54.597 -60.295  1.00  0.00     0.201 C 
ENDBRANCH  17  18
ENDBRANCH  16  17
ENDBRANCH  13  16
ENDBRANCH   1  12
BRANCH   8  20
HETATM   20  C   UNL     1     -40.827  54.114 -53.755  1.00  0.00     0.409 C 
HETATM   21  F   UNL     1     -41.722  53.263 -54.303  1.00  0.00    -0.169 F 
HETATM   22  F   UNL     1     -39.822  54.297 -54.636  1.00  0.00    -0.169 F 
HETATM   23  F   UNL     1     -40.282  53.469 -52.688  1.00  0.00    -0.169 F 
ENDBRANCH   8  20
BRANCH   6  24
HETATM   24  C   UNL     1     -42.497  57.537 -51.197  1.00  0.00    -0.035 A 
HETATM   25  C   UNL     1     -41.231  57.454 -50.591  1.00  0.00     0.009 A 
HETATM   26  C   UNL     1     -40.585  58.595 -50.108  1.00  0.00     0.001 A 
HETATM   27  C   UNL     1     -41.186  59.844 -50.231  1.00  0.00     0.000 A 
HETATM   28  C   UNL     1     -42.429  59.954 -50.843  1.00  0.00     0.001 A 
HETATM   29  C   UNL     1     -43.076  58.813 -51.327  1.00  0.00     0.009 A 
ENDBRANCH   6  24
TORSDOF 6
ENDMDL
MODEL 2
REMARK VINA RESULT:      -7.3      4.020      7.518
REMARK  6 active torsions:
REMARK  status: ('A' for Active; 'I' for Inactive)
REMARK    1  A    between atoms: O_2  and  C_3 
REMARK    2  A    between atoms: C_3  and  C_4 
REMARK    3  A    between atoms: C_4  and  N_5 
REMARK       I    between atoms: N_5  and  C_6 
REMARK    4  A    between atoms: C_6  and  C_7 
REMARK    5  A    between atoms: C_12  and  C_13 
REMARK    6  A    between atoms: C_20  and  C_21 
ROOT
HETATM    1  C   UNL     1     -44.326  58.339 -50.964  1.00  0.00     0.165 A 
HETATM    2  N   UNL     1     -44.379  56.992 -51.114  1.00  0.00    -0.163 NA
HETATM    3  N   UNL     1     -43.229  56.685 -51.737  1.00  0.00    -0.238 N 
HETATM    4  C   UNL     1     -42.489  57.781 -52.097  1.00  0.00     0.141 A 
HETATM    5  N   UNL     1     -41.381  57.657 -52.874  1.00  0.00    -0.365 N 
HETATM    6  C   UNL     1     -41.153  56.423 -53.629  1.00  0.00     0.118 C 
HETATM    7  C   UNL     1     -41.488  55.239 -52.708  1.00  0.00     0.066 C 
HETATM    8  C   UNL     1     -42.929  55.329 -52.166  1.00  0.00     0.221 C 
HETATM    9  C   UNL     1     -43.146  58.856 -51.555  1.00  0.00     0.092 A 
HETATM   10 BR   UNL     1     -42.629  60.652 -51.683  1.00  0.00    -0.044 Br
HETATM   11  H   UNL     1     -40.970  58.493 -53.290  1.00  0.00     0.162 HD
ENDROOT
BRANCH   1  12
HETATM   12  C   UNL     1     -45.426  59.061 -50.299  1.00  0.00     0.273 C 
HETATM   13  N   UNL     1     -44.989  59.907 -49.304  1.00  0.00    -0.353 N 
HETATM   14  H   UNL     1     -43.982  60.053 -49.257  1.00  0.00     0.162 HD
HETATM   15  O   UNL     1     -46.610  58.922 -50.588  1.00  0.00    -0.266 OA
BRANCH  13  16
HETATM   16  C   UNL     1     -45.859  60.834 -48.613  1.00  0.00     0.149 C 
BRANCH  16  17
HETATM   17  C   UNL     1     -46.020  60.453 -47.142  1.00  0.00     0.186 C 
BRANCH  17  18
HETATM   18  O   UNL     1     -46.610  59.150 -47.057  1.00  0.00    -0.394 OA
HETATM   19  C   UNL     1     -46.984  58.833 -45.724  1.00  0.00     0.201 C 
ENDBRANCH  17  18
ENDBRANCH  16  17
ENDBRANCH  13  16
ENDBRANCH   1  12
BRANCH   8  20
HETATM   20  C   UNL     1     -43.105  54.334 -51.038  1.00  0.00     0.409 C 
HETATM   21  F   UNL     1     -42.764  54.853 -49.837  1.00  0.00    -0.169 F 
HETATM   22  F   UNL     1     -44.358  53.842 -50.947  1.00  0.00    -0.169 F 
HETATM   23  F   UNL     1     -42.292  53.263 -51.243  1.00  0.00    -0.169 F 
ENDBRANCH   8  20
BRANCH   6  24
HETATM   24  C   UNL     1     -41.891  56.376 -54.963  1.00  0.00    -0.035 A 
HETATM   25  C   UNL     1     -42.304  57.527 -55.657  1.00  0.00     0.009 A 
HETATM   26  C   UNL     1     -42.992  57.432 -56.870  1.00  0.00     0.001 A 
HETATM   27  C   UNL     1     -43.272  56.185 -57.419  1.00  0.00     0.000 A 
HETATM   28  C   UNL     1     -42.857  55.032 -56.761  1.00  0.00     0.001 A 
HETATM   29  C   UNL     1     -42.168  55.127 -55.549  1.00  0.00     0.009 A 
ENDBRANCH   6  24
TORSDOF 6
ENDMDL
MODEL 3
REMARK VINA RESULT:      -6.8      3.714      6.061
REMARK  6 active torsions:
REMARK  status: ('A' for Active; 'I' for Inactive)
REMARK    1  A    between atoms: O_2  and  C_3 
REMARK    2  A    between atoms: C_3  and  C_4 
REMARK    3  A    between atoms: C_4  and  N_5 
REMARK       I    between atoms: N_5  and  C_6 
REMARK    4  A    between atoms: C_6  and  C_7 
REMARK    5  A    between atoms: C_12  and  C_13 
REMARK    6  A    between atoms: C_20  and  C_21 
ROOT
HETATM    1  C   UNL     1     -42.796  58.643 -53.590  1.00  0.00     0.165 A 
HETATM    2  N   UNL     1     -42.326  58.104 -54.743  1.00  0.00    -0.163 NA
HETATM    3  N   UNL     1     -42.860  56.871 -54.771  1.00  0.00    -0.238 N 
HETATM    4  C   UNL     1     -43.561  56.549 -53.639  1.00  0.00     0.141 A 
HETATM    5  N   UNL     1     -44.030  55.290 -53.437  1.00  0.00    -0.365 N 
HETATM    6  C   UNL     1     -43.503  54.179 -54.232  1.00  0.00     0.118 C 
HETATM    7  C   UNL     1     -43.400  54.651 -55.691  1.00  0.00     0.066 C 
HETATM    8  C   UNL     1     -42.530  55.918 -55.819  1.00  0.00     0.221 C 
HETATM    9  C   UNL     1     -43.586  57.698 -52.889  1.00  0.00     0.092 A 
HETATM   10 BR   UNL     1     -44.408  57.914 -51.219  1.00  0.00    -0.044 Br
HETATM   11  H   UNL     1     -44.366  55.028 -52.510  1.00  0.00     0.162 HD
ENDROOT
BRANCH   1  12
HETATM   12  C   UNL     1     -42.432  60.018 -53.205  1.00  0.00     0.273 C 
HETATM   13  N   UNL     1     -43.284  60.967 -53.727  1.00  0.00    -0.353 N 
HETATM   14  H   UNL     1     -44.130  60.607 -54.167  1.00  0.00     0.162 HD
HETATM   15  O   UNL     1     -41.468  60.300 -52.501  1.00  0.00    -0.266 OA
BRANCH  13  16
HETATM   16  C   UNL     1     -43.227  62.367 -53.369  1.00  0.00     0.149 C 
BRANCH  16  17
HETATM   17  C   UNL     1     -44.166  62.680 -52.204  1.00  0.00     0.186 C 
BRANCH  17  18
HETATM   18  O   UNL     1     -45.349  61.883 -52.328  1.00  0.00    -0.394 OA
HETATM   19  C   UNL     1     -45.855  61.499 -51.057  1.00  0.00     0.201 C 
ENDBRANCH  17  18
ENDBRANCH  16  17
ENDBRANCH  13  16
ENDBRANCH   1  12
BRANCH   8  20
HETATM   20  C   UNL     1     -42.712  56.518 -57.197  1.00  0.00     0.409 C 
HETATM   21  F   UNL     1     -41.822  57.503 -57.451  1.00  0.00    -0.169 F 
HETATM   22  F   UNL     1     -42.636  55.610 -58.192  1.00  0.00    -0.169 F 
HETATM   23  F   UNL     1     -43.948  57.079 -57.290  1.00  0.00    -0.169 F 
ENDBRANCH   8  20
BRANCH   6  24
HETATM   24  C   UNL     1     -42.199  53.602 -53.692  1.00  0.00    -0.035 A 
HETATM   25  C   UNL     1     -41.344  52.785 -54.452  1.00  0.00     0.009 A 
HETATM   26  C   UNL     1     -40.166  52.267 -53.906  1.00  0.00     0.001 A 
HETATM   27  C   UNL     1     -39.814  52.563 -52.593  1.00  0.00     0.000 A 
HETATM   28  C   UNL     1     -40.634  53.385 -51.827  1.00  0.00     0.001 A 
HETATM   29  C   UNL     1     -41.811  53.904 -52.373  1.00  0.00     0.009 A 
ENDBRANCH   6  24
TORSDOF 6
ENDMDL
MODEL 4
REMARK VINA RESULT:      -6.8      3.065      4.443
REMARK  6 active torsions:
REMARK  status: ('A' for Active; 'I' for Inactive)
REMARK    1  A    between atoms: O_2  and  C_3 
REMARK    2  A    between atoms: C_3  and  C_4 
REMARK    3  A    between atoms: C_4  and  N_5 
REMARK       I    between atoms: N_5  and  C_6 
REMARK    4  A    between atoms: C_6  and  C_7 
REMARK    5  A    between atoms: C_12  and  C_13 
REMARK    6  A    between atoms: C_20  and  C_21 
ROOT
HETATM    1  C   UNL     1     -44.612  58.329 -56.010  1.00  0.00     0.165 A 
HETATM    2  N   UNL     1     -44.916  57.879 -54.766  1.00  0.00    -0.163 NA
HETATM    3  N   UNL     1     -43.736  57.865 -54.124  1.00  0.00    -0.238 N 
HETATM    4  C   UNL     1     -42.669  58.176 -54.925  1.00  0.00     0.141 A 
HETATM    5  N   UNL     1     -41.392  58.052 -54.476  1.00  0.00    -0.365 N 
HETATM    6  C   UNL     1     -41.114  57.262 -53.276  1.00  0.00     0.118 C 
HETATM    7  C   UNL     1     -42.186  57.603 -52.228  1.00  0.00     0.066 C 
HETATM    8  C   UNL     1     -43.609  57.355 -52.767  1.00  0.00     0.221 C 
HETATM    9  C   UNL     1     -43.215  58.539 -56.131  1.00  0.00     0.092 A 
HETATM   10 BR   UNL     1     -42.274  59.088 -57.654  1.00  0.00    -0.044 Br
HETATM   11  H   UNL     1     -40.624  58.095 -55.146  1.00  0.00     0.162 HD
ENDROOT
BRANCH   1  12
HETATM   12  C   UNL     1     -45.668  58.495 -57.024  1.00  0.00     0.273 C 
HETATM   13  N   UNL     1     -45.710  57.460 -57.932  1.00  0.00    -0.353 N 
HETATM   14  H   UNL     1     -45.134  56.650 -57.706  1.00  0.00     0.162 HD
HETATM   15  O   UNL     1     -46.429  59.455 -57.068  1.00  0.00    -0.266 OA
BRANCH  13  16
HETATM   16  C   UNL     1     -46.752  57.318 -58.925  1.00  0.00     0.149 C 
BRANCH  16  17
HETATM   17  C   UNL     1     -46.304  56.414 -60.073  1.00  0.00     0.186 C 
BRANCH  17  18
HETATM   18  O   UNL     1     -45.005  55.888 -59.777  1.00  0.00    -0.394 OA
HETATM   19  C   UNL     1     -44.955  54.481 -59.971  1.00  0.00     0.201 C 
ENDBRANCH  17  18
ENDBRANCH  16  17
ENDBRANCH  13  16
ENDBRANCH   1  12
BRANCH   8  20
HETATM   20  C   UNL     1     -44.618  57.991 -51.836  1.00  0.00     0.409 C 
HETATM   21  F   UNL     1     -45.496  58.784 -52.491  1.00  0.00    -0.169 F 
HETATM   22  F   UNL     1     -45.318  57.095 -51.109  1.00  0.00    -0.169 F 
HETATM   23  F   UNL     1     -43.974  58.786 -50.939  1.00  0.00    -0.169 F 
ENDBRANCH   8  20
BRANCH   6  24
HETATM   24  C   UNL     1     -40.988  55.765 -53.544  1.00  0.00    -0.035 A 
HETATM   25  C   UNL     1     -41.297  54.782 -52.588  1.00  0.00     0.009 A 
HETATM   26  C   UNL     1     -41.150  53.422 -52.876  1.00  0.00     0.001 A 
HETATM   27  C   UNL     1     -40.701  53.018 -54.129  1.00  0.00     0.000 A 
HETATM   28  C   UNL     1     -40.407  53.971 -55.098  1.00  0.00     0.001 A 
HETATM   29  C   UNL     1     -40.555  55.331 -54.810  1.00  0.00     0.009 A 
ENDBRANCH   6  24
TORSDOF 6
ENDMDL
MODEL 5
REMARK VINA RESULT:      -6.8      1.427      2.132
REMARK  6 active torsions:
REMARK  status: ('A' for Active; 'I' for Inactive)
REMARK    1  A    between atoms: O_2  and  C_3 
REMARK    2  A    between atoms: C_3  and  C_4 
REMARK    3  A    between atoms: C_4  and  N_5 
REMARK       I    between atoms: N_5  and  C_6 
REMARK    4  A    between atoms: C_6  and  C_7 
REMARK    5  A    between atoms: C_12  and  C_13 
REMARK    6  A    between atoms: C_20  and  C_21 
ROOT
HETATM    1  C   UNL     1     -42.973  56.400 -56.155  1.00  0.00     0.165 A 
HETATM    2  N   UNL     1     -42.031  55.694 -55.480  1.00  0.00    -0.163 NA
HETATM    3  N   UNL     1     -42.484  55.670 -54.215  1.00  0.00    -0.238 N 
HETATM    4  C   UNL     1     -43.613  56.419 -54.020  1.00  0.00     0.141 A 
HETATM    5  N   UNL     1     -44.110  56.632 -52.772  1.00  0.00    -0.365 N 
HETATM    6  C   UNL     1     -43.272  56.373 -51.600  1.00  0.00     0.118 C 
HETATM    7  C   UNL     1     -42.532  55.046 -51.832  1.00  0.00     0.066 C 
HETATM    8  C   UNL     1     -41.710  55.074 -53.137  1.00  0.00     0.221 C 
HETATM    9  C   UNL     1     -43.983  56.851 -55.269  1.00  0.00     0.092 A 
HETATM   10 BR   UNL     1     -45.467  57.918 -55.680  1.00  0.00    -0.044 Br
HETATM   11  H   UNL     1     -44.822  57.349 -52.637  1.00  0.00     0.162 HD
ENDROOT
BRANCH   1  12
HETATM   12  C   UNL     1     -42.834  56.637 -57.603  1.00  0.00     0.273 C 
HETATM   13  N   UNL     1     -42.129  57.784 -57.895  1.00  0.00    -0.353 N 
HETATM   14  H   UNL     1     -41.663  58.230 -57.107  1.00  0.00     0.162 HD
HETATM   15  O   UNL     1     -43.301  55.901 -58.466  1.00  0.00    -0.266 OA
BRANCH  13  16
HETATM   16  C   UNL     1     -41.730  58.149 -59.237  1.00  0.00     0.149 C 
BRANCH  16  17
HETATM   17  C   UNL     1     -42.765  59.060 -59.895  1.00  0.00     0.186 C 
BRANCH  17  18
HETATM   18  O   UNL     1     -42.097  60.182 -60.483  1.00  0.00    -0.394 OA
HETATM   19  C   UNL     1     -41.651  61.101 -59.496  1.00  0.00     0.201 C 
ENDBRANCH  17  18
ENDBRANCH  16  17
ENDBRANCH  13  16
ENDBRANCH   1  12
BRANCH   8  20
HETATM   20  C   UNL     1     -41.263  53.669 -53.481  1.00  0.00     0.409 C 
HETATM   21  F   UNL     1     -41.059  52.910 -52.381  1.00  0.00    -0.169 F 
HETATM   22  F   UNL     1     -42.120  53.016 -54.293  1.00  0.00    -0.169 F 
HETATM   23  F   UNL     1     -40.076  53.717 -54.144  1.00  0.00    -0.169 F 
ENDBRANCH   8  20
BRANCH   6  24
HETATM   24  C   UNL     1     -42.340  57.528 -51.246  1.00  0.00    -0.035 A 
HETATM   25  C   UNL     1     -41.029  57.344 -50.774  1.00  0.00     0.009 A 
HETATM   26  C   UNL     1     -40.219  58.435 -50.447  1.00  0.00     0.001 A 
HETATM   27  C   UNL     1     -40.700  59.732 -50.594  1.00  0.00     0.000 A 
HETATM   28  C   UNL     1     -41.987  59.940 -51.077  1.00  0.00     0.001 A 
HETATM   29  C   UNL     1     -42.797  58.849 -51.405  1.00  0.00     0.009 A 
ENDBRANCH   6  24
TORSDOF 6
ENDMDL
MODEL 6
REMARK VINA RESULT:      -6.8      4.530      6.292
REMARK  6 active torsions:
REMARK  status: ('A' for Active; 'I' for Inactive)
REMARK    1  A    between atoms: O_2  and  C_3 
REMARK    2  A    between atoms: C_3  and  C_4 
REMARK    3  A    between atoms: C_4  and  N_5 
REMARK       I    between atoms: N_5  and  C_6 
REMARK    4  A    between atoms: C_6  and  C_7 
REMARK    5  A    between atoms: C_12  and  C_13 
REMARK    6  A    between atoms: C_20  and  C_21 
ROOT
HETATM    1  C   UNL     1     -41.650  55.556 -51.039  1.00  0.00     0.165 A 
HETATM    2  N   UNL     1     -41.184  56.810 -51.267  1.00  0.00    -0.163 NA
HETATM    3  N   UNL     1     -42.270  57.591 -51.140  1.00  0.00    -0.238 N 
HETATM    4  C   UNL     1     -43.432  56.892 -50.952  1.00  0.00     0.141 A 
HETATM    5  N   UNL     1     -44.639  57.517 -50.964  1.00  0.00    -0.365 N 
HETATM    6  C   UNL     1     -44.757  58.865 -51.521  1.00  0.00     0.118 C 
HETATM    7  C   UNL     1     -43.557  59.688 -51.023  1.00  0.00     0.066 C 
HETATM    8  C   UNL     1     -42.217  59.022 -51.396  1.00  0.00     0.221 C 
HETATM    9  C   UNL     1     -43.050  55.581 -50.822  1.00  0.00     0.092 A 
HETATM   10 BR   UNL     1     -44.184  54.118 -50.532  1.00  0.00    -0.044 Br
HETATM   11  H   UNL     1     -45.489  56.955 -51.024  1.00  0.00     0.162 HD
ENDROOT
BRANCH   1  12
HETATM   12  C   UNL     1     -40.736  54.400 -51.081  1.00  0.00     0.273 C 
HETATM   13  N   UNL     1     -40.920  53.608 -52.193  1.00  0.00    -0.353 N 
HETATM   14  H   UNL     1     -41.532  53.991 -52.912  1.00  0.00     0.162 HD
HETATM   15  O   UNL     1     -39.901  54.156 -50.216  1.00  0.00    -0.266 OA
BRANCH  13  16
HETATM   16  C   UNL     1     -40.047  52.508 -52.536  1.00  0.00     0.149 C 
BRANCH  16  17
HETATM   17  C   UNL     1     -40.055  52.242 -54.041  1.00  0.00     0.186 C 
BRANCH  17  18
HETATM   18  O   UNL     1     -40.701  50.990 -54.293  1.00  0.00    -0.394 OA
HETATM   19  C   UNL     1     -39.758  49.949 -54.508  1.00  0.00     0.201 C 
ENDBRANCH  17  18
ENDBRANCH  16  17
ENDBRANCH  13  16
ENDBRANCH   1  12
BRANCH   8  20
HETATM   20  C   UNL     1     -41.094  59.686 -50.627  1.00  0.00     0.409 C 
HETATM   21  F   UNL     1     -39.910  59.606 -51.275  1.00  0.00    -0.169 F 
HETATM   22  F   UNL     1     -41.333  60.982 -50.339  1.00  0.00    -0.169 F 
HETATM   23  F   UNL     1     -40.925  59.057 -49.433  1.00  0.00    -0.169 F 
ENDBRANCH   8  20
BRANCH   6  24
HETATM   24  C   UNL     1     -44.916  58.890 -53.038  1.00  0.00    -0.035 A 
HETATM   25  C   UNL     1     -44.843  57.737 -53.840  1.00  0.00     0.009 A 
HETATM   26  C   UNL     1     -44.979  57.813 -55.229  1.00  0.00     0.001 A 
HETATM   27  C   UNL     1     -45.201  59.041 -55.843  1.00  0.00     0.000 A 
HETATM   28  C   UNL     1     -45.296  60.193 -55.071  1.00  0.00     0.001 A 
HETATM   29  C   UNL     1     -45.160  60.117 -53.681  1.00  0.00     0.009 A 
ENDBRANCH   6  24
TORSDOF 6
ENDMDL
MODEL 7
REMARK VINA RESULT:      -6.6      3.491      5.651
REMARK  6 active torsions:
REMARK  status: ('A' for Active; 'I' for Inactive)
REMARK    1  A    between atoms: O_2  and  C_3 
REMARK    2  A    between atoms: C_3  and  C_4 
REMARK    3  A    between atoms: C_4  and  N_5 
REMARK       I    between atoms: N_5  and  C_6 
REMARK    4  A    between atoms: C_6  and  C_7 
REMARK    5  A    between atoms: C_12  and  C_13 
REMARK    6  A    between atoms: C_20  and  C_21 
ROOT
HETATM    1  C   UNL     1     -42.810  58.744 -53.593  1.00  0.00     0.165 A 
HETATM    2  N   UNL     1     -42.341  58.201 -54.745  1.00  0.00    -0.163 NA
HETATM    3  N   UNL     1     -42.867  56.965 -54.764  1.00  0.00    -0.238 N 
HETATM    4  C   UNL     1     -43.561  56.645 -53.627  1.00  0.00     0.141 A 
HETATM    5  N   UNL     1     -44.020  55.383 -53.414  1.00  0.00    -0.365 N 
HETATM    6  C   UNL     1     -43.490  54.271 -54.206  1.00  0.00     0.118 C 
HETATM    7  C   UNL     1     -43.396  54.735 -55.668  1.00  0.00     0.066 C 
HETATM    8  C   UNL     1     -42.535  56.007 -55.807  1.00  0.00     0.221 C 
HETATM    9  C   UNL     1     -43.590  57.797 -52.883  1.00  0.00     0.092 A 
HETATM   10 BR   UNL     1     -44.406  58.019 -51.211  1.00  0.00    -0.044 Br
HETATM   11  H   UNL     1     -44.350  55.125 -52.484  1.00  0.00     0.162 HD
ENDROOT
BRANCH   1  12
HETATM   12  C   UNL     1     -42.453  60.124 -53.218  1.00  0.00     0.273 C 
HETATM   13  N   UNL     1     -43.182  61.072 -53.902  1.00  0.00    -0.353 N 
HETATM   14  H   UNL     1     -43.968  60.719 -54.446  1.00  0.00     0.162 HD
HETATM   15  O   UNL     1     -41.593  60.408 -52.392  1.00  0.00    -0.266 OA
BRANCH  13  16
HETATM   16  C   UNL     1     -43.124  62.486 -53.600  1.00  0.00     0.149 C 
BRANCH  16  17
HETATM   17  C   UNL     1     -43.410  63.330 -54.841  1.00  0.00     0.186 C 
BRANCH  17  18
HETATM   18  O   UNL     1     -43.807  62.468 -55.914  1.00  0.00    -0.394 OA
HETATM   19  C   UNL     1     -43.110  62.773 -57.114  1.00  0.00     0.201 C 
ENDBRANCH  17  18
ENDBRANCH  16  17
ENDBRANCH  13  16
ENDBRANCH   1  12
BRANCH   8  20
HETATM   20  C   UNL     1     -42.727  56.597 -57.188  1.00  0.00     0.409 C 
HETATM   21  F   UNL     1     -43.944  57.168 -57.339  1.00  0.00    -0.169 F 
HETATM   22  F   UNL     1     -41.788  57.507 -57.520  1.00  0.00    -0.169 F 
HETATM   23  F   UNL     1     -42.645  55.610 -58.121  1.00  0.00    -0.169 F 
ENDBRANCH   8  20
BRANCH   6  24
HETATM   24  C   UNL     1     -42.179  53.707 -53.668  1.00  0.00    -0.035 A 
HETATM   25  C   UNL     1     -41.687  53.991 -52.382  1.00  0.00     0.009 A 
HETATM   26  C   UNL     1     -40.471  53.461 -51.940  1.00  0.00     0.001 A 
HETATM   27  C   UNL     1     -39.727  52.629 -52.770  1.00  0.00     0.000 A 
HETATM   28  C   UNL     1     -40.202  52.319 -54.040  1.00  0.00     0.001 A 
HETATM   29  C   UNL     1     -41.418  52.847 -54.482  1.00  0.00     0.009 A 
ENDBRANCH   6  24
TORSDOF 6
ENDMDL
MODEL 8
REMARK VINA RESULT:      -6.5      3.712      7.227
REMARK  6 active torsions:
REMARK  status: ('A' for Active; 'I' for Inactive)
REMARK    1  A    between atoms: O_2  and  C_3 
REMARK    2  A    between atoms: C_3  and  C_4 
REMARK    3  A    between atoms: C_4  and  N_5 
REMARK       I    between atoms: N_5  and  C_6 
REMARK    4  A    between atoms: C_6  and  C_7 
REMARK    5  A    between atoms: C_12  and  C_13 
REMARK    6  A    between atoms: C_20  and  C_21 
ROOT
HETATM    1  C   UNL     1     -44.215  58.342 -51.102  1.00  0.00     0.165 A 
HETATM    2  N   UNL     1     -44.269  56.991 -51.226  1.00  0.00    -0.163 NA
HETATM    3  N   UNL     1     -43.134  56.675 -51.872  1.00  0.00    -0.238 N 
HETATM    4  C   UNL     1     -42.405  57.765 -52.269  1.00  0.00     0.141 A 
HETATM    5  N   UNL     1     -41.316  57.628 -53.071  1.00  0.00    -0.365 N 
HETATM    6  C   UNL     1     -41.105  56.381 -53.808  1.00  0.00     0.118 C 
HETATM    7  C   UNL     1     -41.415  55.213 -52.859  1.00  0.00     0.066 C 
HETATM    8  C   UNL     1     -42.843  55.311 -52.283  1.00  0.00     0.221 C 
HETATM    9  C   UNL     1     -43.050  58.849 -51.731  1.00  0.00     0.092 A 
HETATM   10 BR   UNL     1     -42.539  60.643 -51.904  1.00  0.00    -0.044 Br
HETATM   11  H   UNL     1     -40.917  58.457 -53.512  1.00  0.00     0.162 HD
ENDROOT
BRANCH   1  12
HETATM   12  C   UNL     1     -45.299  59.074 -50.423  1.00  0.00     0.273 C 
HETATM   13  N   UNL     1     -44.837  59.970 -49.484  1.00  0.00    -0.353 N 
HETATM   14  H   UNL     1     -43.831  60.133 -49.486  1.00  0.00     0.162 HD
HETATM   15  O   UNL     1     -46.490  58.904 -50.657  1.00  0.00    -0.266 OA
BRANCH  13  16
HETATM   16  C   UNL     1     -45.694  60.912 -48.799  1.00  0.00     0.149 C 
BRANCH  16  17
HETATM   17  C   UNL     1     -44.961  62.223 -48.514  1.00  0.00     0.186 C 
BRANCH  17  18
HETATM   18  O   UNL     1     -44.657  62.869 -49.756  1.00  0.00    -0.394 OA
HETATM   19  C   UNL     1     -43.529  63.725 -49.636  1.00  0.00     0.201 C 
ENDBRANCH  17  18
ENDBRANCH  16  17
ENDBRANCH  13  16
ENDBRANCH   1  12
BRANCH   8  20
HETATM   20  C   UNL     1     -42.990  54.337 -51.134  1.00  0.00     0.409 C 
HETATM   21  F   UNL     1     -42.698  54.902 -49.940  1.00  0.00    -0.169 F 
HETATM   22  F   UNL     1     -44.218  53.785 -51.051  1.00  0.00    -0.169 F 
HETATM   23  F   UNL     1     -42.120  53.304 -51.296  1.00  0.00    -0.169 F 
ENDBRANCH   8  20
BRANCH   6  24
HETATM   24  C   UNL     1     -41.875  56.309 -55.123  1.00  0.00    -0.035 A 
HETATM   25  C   UNL     1     -42.201  55.099 -55.761  1.00  0.00     0.009 A 
HETATM   26  C   UNL     1     -42.894  55.086 -56.974  1.00  0.00     0.001 A 
HETATM   27  C   UNL     1     -43.285  56.281 -57.570  1.00  0.00     0.000 A 
HETATM   28  C   UNL     1     -42.991  57.490 -56.949  1.00  0.00     0.001 A 
HETATM   29  C   UNL     1     -42.298  57.503 -55.735  1.00  0.00     0.009 A 
ENDBRANCH   6  24
TORSDOF 6
ENDMDL
MODEL 9
REMARK VINA RESULT:      -6.5      3.557      5.212
REMARK  6 active torsions:
REMARK  status: ('A' for Active; 'I' for Inactive)
REMARK    1  A    between atoms: O_2  and  C_3 
REMARK    2  A    between atoms: C_3  and  C_4 
REMARK    3  A    between atoms: C_4  and  N_5 
REMARK       I    between atoms: N_5  and  C_6 
REMARK    4  A    between atoms: C_6  and  C_7 
REMARK    5  A    between atoms: C_12  and  C_13 
REMARK    6  A    between atoms: C_20  and  C_21 
ROOT
HETATM    1  C   UNL     1     -42.304  57.906 -53.805  1.00  0.00     0.165 A 
HETATM    2  N   UNL     1     -41.351  56.992 -54.119  1.00  0.00    -0.163 NA
HETATM    3  N   UNL     1     -41.840  55.832 -53.649  1.00  0.00    -0.238 N 
HETATM    4  C   UNL     1     -43.009  55.972 -52.949  1.00  0.00     0.141 A 
HETATM    5  N   UNL     1     -43.553  54.925 -52.273  1.00  0.00    -0.365 N 
HETATM    6  C   UNL     1     -42.740  53.743 -51.983  1.00  0.00     0.118 C 
HETATM    7  C   UNL     1     -41.931  53.404 -53.245  1.00  0.00     0.066 C 
HETATM    8  C   UNL     1     -41.072  54.599 -53.708  1.00  0.00     0.221 C 
HETATM    9  C   UNL     1     -43.360  57.291 -53.088  1.00  0.00     0.092 A 
HETATM   10 BR   UNL     1     -44.880  58.116 -52.366  1.00  0.00    -0.044 Br
HETATM   11  H   UNL     1     -44.302  55.102 -51.604  1.00  0.00     0.162 HD
ENDROOT
BRANCH   1  12
HETATM   12  C   UNL     1     -42.132  59.323 -54.173  1.00  0.00     0.273 C 
HETATM   13  N   UNL     1     -42.992  60.162 -53.500  1.00  0.00    -0.353 N 
HETATM   14  H   UNL     1     -43.513  59.739 -52.733  1.00  0.00     0.162 HD
HETATM   15  O   UNL     1     -41.318  59.721 -54.999  1.00  0.00    -0.266 OA
BRANCH  13  16
HETATM   16  C   UNL     1     -42.913  61.604 -53.574  1.00  0.00     0.149 C 
BRANCH  16  17
HETATM   17  C   UNL     1     -43.317  62.251 -52.250  1.00  0.00     0.186 C 
BRANCH  17  18
HETATM   18  O   UNL     1     -43.616  63.633 -52.475  1.00  0.00    -0.394 OA
HETATM   19  C   UNL     1     -42.899  64.148 -53.588  1.00  0.00     0.201 C 
ENDBRANCH  17  18
ENDBRANCH  16  17
ENDBRANCH  13  16
ENDBRANCH   1  12
BRANCH   8  20
HETATM   20  C   UNL     1     -40.549  54.332 -55.103  1.00  0.00     0.409 C 
HETATM   21  F   UNL     1     -40.273  53.025 -55.309  1.00  0.00    -0.169 F 
HETATM   22  F   UNL     1     -41.383  54.748 -56.078  1.00  0.00    -0.169 F 
HETATM   23  F   UNL     1     -39.383  55.008 -55.290  1.00  0.00    -0.169 F 
ENDBRANCH   8  20
BRANCH   6  24
HETATM   24  C   UNL     1     -41.876  53.885 -50.734  1.00  0.00    -0.035 A 
HETATM   25  C   UNL     1     -40.938  52.918 -50.330  1.00  0.00     0.009 A 
HETATM   26  C   UNL     1     -40.181  53.087 -49.168  1.00  0.00     0.001 A 
HETATM   27  C   UNL     1     -40.337  54.230 -48.392  1.00  0.00     0.000 A 
HETATM   28  C   UNL     1     -41.244  55.210 -48.780  1.00  0.00     0.001 A 
HETATM   29  C   UNL     1     -42.001  55.042 -49.943  1.00  0.00     0.009 A 
ENDBRANCH   6  24
TORSDOF 6
ENDMDL
MODEL 10
REMARK VINA RESULT:      -6.4     17.021     19.217
REMARK  6 active torsions:
REMARK  status: ('A' for Active; 'I' for Inactive)
REMARK    1  A    between atoms: O_2  and  C_3 
REMARK    2  A    between atoms: C_3  and  C_4 
REMARK    3  A    between atoms: C_4  and  N_5 
REMARK       I    between atoms: N_5  and  C_6 
REMARK    4  A    between atoms: C_6  and  C_7 
REMARK    5  A    between atoms: C_12  and  C_13 
REMARK    6  A    between atoms: C_20  and  C_21 
ROOT
HETATM    1  C   UNL     1     -36.199  39.409 -53.051  1.00  0.00     0.165 A 
HETATM    2  N   UNL     1     -35.196  39.242 -53.950  1.00  0.00    -0.163 NA
HETATM    3  N   UNL     1     -35.336  40.275 -54.796  1.00  0.00    -0.238 N 
HETATM    4  C   UNL     1     -36.448  41.038 -54.553  1.00  0.00     0.141 A 
HETATM    5  N   UNL     1     -36.825  42.024 -55.410  1.00  0.00    -0.365 N 
HETATM    6  C   UNL     1     -36.275  42.062 -56.766  1.00  0.00     0.118 C 
HETATM    7  C   UNL     1     -34.769  41.766 -56.673  1.00  0.00     0.066 C 
HETATM    8  C   UNL     1     -34.497  40.419 -55.975  1.00  0.00     0.221 C 
HETATM    9  C   UNL     1     -36.987  40.536 -53.396  1.00  0.00     0.092 A 
HETATM   10 BR   UNL     1     -38.525  41.160 -52.527  1.00  0.00    -0.044 Br
HETATM   11  H   UNL     1     -37.754  42.435 -55.315  1.00  0.00     0.162 HD
ENDROOT
BRANCH   1  12
HETATM   12  C   UNL     1     -36.371  38.460 -51.937  1.00  0.00     0.273 C 
HETATM   13  N   UNL     1     -35.906  38.951 -50.736  1.00  0.00    -0.353 N 
HETATM   14  H   UNL     1     -35.657  39.939 -50.729  1.00  0.00     0.162 HD
HETATM   15  O   UNL     1     -36.867  37.346 -52.057  1.00  0.00    -0.266 OA
BRANCH  13  16
HETATM   16  C   UNL     1     -36.101  38.272 -49.474  1.00  0.00     0.149 C 
BRANCH  16  17
HETATM   17  C   UNL     1     -37.291  38.853 -48.711  1.00  0.00     0.186 C 
BRANCH  17  18
HETATM   18  O   UNL     1     -37.123  38.594 -47.313  1.00  0.00    -0.394 OA
HETATM   19  C   UNL     1     -35.798  38.178 -47.014  1.00  0.00     0.201 C 
ENDBRANCH  17  18
ENDBRANCH  16  17
ENDBRANCH  13  16
ENDBRANCH   1  12
BRANCH   8  20
HETATM   20  C   UNL     1     -33.026  40.320 -55.628  1.00  0.00     0.409 C 
HETATM   21  F   UNL     1     -32.230  40.726 -56.642  1.00  0.00    -0.169 F 
HETATM   22  F   UNL     1     -32.688  41.011 -54.521  1.00  0.00    -0.169 F 
HETATM   23  F   UNL     1     -32.703  39.022 -55.378  1.00  0.00    -0.169 F 
ENDBRANCH   8  20
BRANCH   6  24
HETATM   24  C   UNL     1     -37.007  41.155 -57.750  1.00  0.00    -0.035 A 
HETATM   25  C   UNL     1     -37.905  40.149 -57.351  1.00  0.00     0.009 A 
HETATM   26  C   UNL     1     -38.540  39.332 -58.291  1.00  0.00     0.001 A 
HETATM   27  C   UNL     1     -38.298  39.511 -59.649  1.00  0.00     0.000 A 
HETATM   28  C   UNL     1     -37.429  40.511 -60.070  1.00  0.00     0.001 A 
HETATM   29  C   UNL     1     -36.794  41.329 -59.130  1.00  0.00     0.009 A 
ENDBRANCH   6  24
TORSDOF 6
ENDMDL
