MODEL 1
REMARK VINA RESULT:      -8.6      0.000      0.000
REMARK  8 active torsions:
REMARK  status: ('A' for Active; 'I' for Inactive)
REMARK    1  A    between atoms: O_2  and  C_3 
REMARK    2  A    between atoms: C_6  and  C_7 
REMARK    3  A    between atoms: C_7  and  N_8 
REMARK       I    between atoms: N_8  and  C_9 
REMARK    4  A    between atoms: C_9  and  C_10 
REMARK    5  A    between atoms: C_10  and  C_11 
REMARK    6  A    between atoms: C_11  and  N_12 
REMARK    7  A    between atoms: N_12  and  S_13 
REMARK    8  A    between atoms: S_13  and  C_14 
ROOT
HETATM    1  N   UNL     1     -43.077  56.944 -52.186  1.00  0.00    -0.315 N 
HETATM    2  H   UNL     1     -43.468  56.070 -51.837  1.00  0.00     0.172 HD
ENDROOT
BRANCH   1   3
HETATM    3  C   UNL     1     -43.787  57.670 -53.249  1.00  0.00     0.141 C 
BRANCH   3   4
HETATM    4  C   UNL     1     -44.251  56.679 -54.303  1.00  0.00     0.123 C 
BRANCH   4   5
HETATM    5  C   UNL     1     -43.693  57.046 -55.655  1.00  0.00     0.219 C 
HETATM    6  N   UNL     1     -43.463  55.984 -56.495  1.00  0.00    -0.357 N 
HETATM    7  H   UNL     1     -43.675  55.039 -56.202  1.00  0.00     0.162 HD
HETATM    8  O   UNL     1     -43.453  58.213 -55.950  1.00  0.00    -0.274 OA
BRANCH   6   9
HETATM    9  C   UNL     1     -43.029  56.178 -57.863  1.00  0.00     0.161 C 
BRANCH   9  10
HETATM   10  C   UNL     1     -44.152  56.075 -58.864  1.00  0.00    -0.040 A 
HETATM   11  C   UNL     1     -45.062  57.135 -58.999  1.00  0.00     0.011 A 
HETATM   12  C   UNL     1     -46.055  57.111 -59.986  1.00  0.00     0.037 A 
HETATM   13  C   UNL     1     -46.145  56.031 -60.860  1.00  0.00     0.068 A 
HETATM   14  C   UNL     1     -45.257  54.964 -60.723  1.00  0.00     0.037 A 
HETATM   15  C   UNL     1     -44.258  54.991 -59.745  1.00  0.00     0.011 A 
BRANCH  13  16
HETATM   16  O   UNL     1     -47.055  55.900 -61.874  1.00  0.00    -0.356 OA
HETATM   17  C   UNL     1     -48.101  56.864 -61.906  1.00  0.00     0.210 C 
ENDBRANCH  13  16
ENDBRANCH   9  10
ENDBRANCH   6   9
ENDBRANCH   4   5
ENDBRANCH   3   4
ENDBRANCH   1   3
BRANCH   1  18
HETATM   18  S   UNL     1     -41.398  56.884 -52.234  1.00  0.00     0.258 S 
HETATM   19  O   UNL     1     -40.997  57.804 -53.275  1.00  0.00    -0.201 OA
HETATM   20  O   UNL     1     -40.917  57.013 -50.876  1.00  0.00    -0.201 OA
BRANCH  18  21
HETATM   21  C   UNL     1     -41.062  55.247 -52.816  1.00  0.00     0.080 A 
HETATM   22  C   UNL     1     -40.817  54.217 -51.905  1.00  0.00     0.034 A 
HETATM   23  C   UNL     1     -40.474  52.913 -52.338  1.00  0.00    -0.030 A 
HETATM   24  C   UNL     1     -40.421  52.655 -53.715  1.00  0.00     0.041 A 
HETATM   25  C   UNL     1     -40.230  51.914 -51.239  1.00  0.00     0.041 C 
HETATM   26  N   UNL     1     -40.107  51.436 -54.338  1.00  0.00    -0.327 N 
HETATM   27  C   UNL     1     -40.686  53.709 -54.617  1.00  0.00     0.031 A 
HETATM   28  C   UNL     1     -39.778  50.194 -53.912  1.00  0.00     0.222 C 
HETATM   29  H   UNL     1     -40.100  51.448 -55.353  1.00  0.00     0.169 HD
HETATM   30  O   UNL     1     -39.561  49.337 -54.777  1.00  0.00    -0.273 OA
HETATM   31  C   UNL     1     -39.744  49.807 -52.463  1.00  0.00     0.103 C 
HETATM   32  C   UNL     1     -39.178  50.867 -51.549  1.00  0.00     0.014 C 
HETATM   33  C   UNL     1     -40.997  54.999 -54.179  1.00  0.00     0.027 A 
ENDBRANCH  18  21
ENDBRANCH   1  18
TORSDOF 8
ENDMDL
MODEL 2
REMARK VINA RESULT:      -8.6      2.118      7.702
REMARK  8 active torsions:
REMARK  status: ('A' for Active; 'I' for Inactive)
REMARK    1  A    between atoms: O_2  and  C_3 
REMARK    2  A    between atoms: C_6  and  C_7 
REMARK    3  A    between atoms: C_7  and  N_8 
REMARK       I    between atoms: N_8  and  C_9 
REMARK    4  A    between atoms: C_9  and  C_10 
REMARK    5  A    between atoms: C_10  and  C_11 
REMARK    6  A    between atoms: C_11  and  N_12 
REMARK    7  A    between atoms: N_12  and  S_13 
REMARK    8  A    between atoms: S_13  and  C_14 
ROOT
HETATM    1  N   UNL     1     -42.958  58.723 -52.829  1.00  0.00    -0.315 N 
HETATM    2  H   UNL     1     -43.201  59.701 -52.983  1.00  0.00     0.172 HD
ENDROOT
BRANCH   1   3
HETATM    3  C   UNL     1     -43.223  58.119 -51.515  1.00  0.00     0.141 C 
BRANCH   3   4
HETATM    4  C   UNL     1     -44.133  56.916 -51.696  1.00  0.00     0.123 C 
BRANCH   4   5
HETATM    5  C   UNL     1     -43.564  55.712 -50.988  1.00  0.00     0.219 C 
HETATM    6  N   UNL     1     -42.216  55.518 -51.166  1.00  0.00    -0.357 N 
HETATM    7  H   UNL     1     -41.671  56.161 -51.726  1.00  0.00     0.162 HD
HETATM    8  O   UNL     1     -44.278  54.965 -50.326  1.00  0.00    -0.274 OA
BRANCH   6   9
HETATM    9  C   UNL     1     -41.500  54.469 -50.469  1.00  0.00     0.161 C 
BRANCH   9  10
HETATM   10  C   UNL     1     -40.938  53.419 -51.393  1.00  0.00    -0.040 A 
HETATM   11  C   UNL     1     -41.192  53.495 -52.771  1.00  0.00     0.011 A 
HETATM   12  C   UNL     1     -40.604  52.593 -53.664  1.00  0.00     0.037 A 
HETATM   13  C   UNL     1     -39.742  51.605 -53.193  1.00  0.00     0.068 A 
HETATM   14  C   UNL     1     -39.496  51.509 -51.823  1.00  0.00     0.037 A 
HETATM   15  C   UNL     1     -40.075  52.417 -50.931  1.00  0.00     0.011 A 
BRANCH  13  16
HETATM   16  O   UNL     1     -39.092  50.680 -53.964  1.00  0.00    -0.356 OA
HETATM   17  C   UNL     1     -39.919  49.788 -54.702  1.00  0.00     0.210 C 
ENDBRANCH  13  16
ENDBRANCH   9  10
ENDBRANCH   6   9
ENDBRANCH   4   5
ENDBRANCH   3   4
ENDBRANCH   1   3
BRANCH   1  18
HETATM   18  S   UNL     1     -41.539  58.313 -53.632  1.00  0.00     0.258 S 
HETATM   19  O   UNL     1     -40.985  59.555 -54.119  1.00  0.00    -0.201 OA
HETATM   20  O   UNL     1     -40.789  57.429 -52.767  1.00  0.00    -0.201 OA
BRANCH  18  21
HETATM   21  C   UNL     1     -42.113  57.401 -55.036  1.00  0.00     0.080 A 
HETATM   22  C   UNL     1     -42.363  58.059 -56.242  1.00  0.00     0.034 A 
HETATM   23  C   UNL     1     -42.892  57.373 -57.363  1.00  0.00    -0.030 A 
HETATM   24  C   UNL     1     -43.128  55.995 -57.256  1.00  0.00     0.041 A 
HETATM   25  C   UNL     1     -43.116  58.217 -58.588  1.00  0.00     0.041 C 
HETATM   26  N   UNL     1     -43.640  55.142 -58.248  1.00  0.00    -0.327 N 
HETATM   27  C   UNL     1     -42.855  55.349 -56.030  1.00  0.00     0.031 A 
HETATM   28  C   UNL     1     -44.051  55.294 -59.529  1.00  0.00     0.222 C 
HETATM   29  H   UNL     1     -43.762  54.172 -57.977  1.00  0.00     0.169 HD
HETATM   30  O   UNL     1     -44.457  54.285 -60.117  1.00  0.00    -0.273 OA
HETATM   31  C   UNL     1     -43.962  56.596 -60.269  1.00  0.00     0.103 C 
HETATM   32  C   UNL     1     -44.304  57.809 -59.438  1.00  0.00     0.014 C 
HETATM   33  C   UNL     1     -42.359  56.041 -54.922  1.00  0.00     0.027 A 
ENDBRANCH  18  21
ENDBRANCH   1  18
TORSDOF 8
ENDMDL
MODEL 3
REMARK VINA RESULT:      -8.5      1.684      2.650
REMARK  8 active torsions:
REMARK  status: ('A' for Active; 'I' for Inactive)
REMARK    1  A    between atoms: O_2  and  C_3 
REMARK    2  A    between atoms: C_6  and  C_7 
REMARK    3  A    between atoms: C_7  and  N_8 
REMARK       I    between atoms: N_8  and  C_9 
REMARK    4  A    between atoms: C_9  and  C_10 
REMARK    5  A    between atoms: C_10  and  C_11 
REMARK    6  A    between atoms: C_11  and  N_12 
REMARK    7  A    between atoms: N_12  and  S_13 
REMARK    8  A    between atoms: S_13  and  C_14 
ROOT
HETATM    1  N   UNL     1     -42.992  56.683 -51.103  1.00  0.00    -0.315 N 
HETATM    2  H   UNL     1     -43.299  55.767 -51.427  1.00  0.00     0.172 HD
ENDROOT
BRANCH   1   3
HETATM    3  C   UNL     1     -43.706  57.881 -51.568  1.00  0.00     0.141 C 
BRANCH   3   4
HETATM    4  C   UNL     1     -44.580  57.509 -52.754  1.00  0.00     0.123 C 
BRANCH   4   5
HETATM    5  C   UNL     1     -43.798  56.689 -53.750  1.00  0.00     0.219 C 
HETATM    6  N   UNL     1     -42.896  57.399 -54.503  1.00  0.00    -0.357 N 
HETATM    7  H   UNL     1     -42.779  58.395 -54.367  1.00  0.00     0.162 HD
HETATM    8  O   UNL     1     -43.989  55.483 -53.872  1.00  0.00    -0.274 OA
BRANCH   6   9
HETATM    9  C   UNL     1     -41.995  56.742 -55.428  1.00  0.00     0.161 C 
BRANCH   9  10
HETATM   10  C   UNL     1     -42.542  56.656 -56.830  1.00  0.00    -0.040 A 
HETATM   11  C   UNL     1     -42.993  55.424 -57.327  1.00  0.00     0.011 A 
HETATM   12  C   UNL     1     -43.596  55.331 -58.586  1.00  0.00     0.037 A 
HETATM   13  C   UNL     1     -43.768  56.474 -59.365  1.00  0.00     0.068 A 
HETATM   14  C   UNL     1     -43.307  57.701 -58.888  1.00  0.00     0.037 A 
HETATM   15  C   UNL     1     -42.714  57.797 -57.625  1.00  0.00     0.011 A 
BRANCH  13  16
HETATM   16  O   UNL     1     -44.357  56.517 -60.599  1.00  0.00    -0.356 OA
HETATM   17  C   UNL     1     -44.946  55.304 -61.054  1.00  0.00     0.210 C 
ENDBRANCH  13  16
ENDBRANCH   9  10
ENDBRANCH   6   9
ENDBRANCH   4   5
ENDBRANCH   3   4
ENDBRANCH   1   3
BRANCH   1  18
HETATM   18  S   UNL     1     -41.319  56.749 -50.956  1.00  0.00     0.258 S 
HETATM   19  O   UNL     1     -40.855  57.572 -52.050  1.00  0.00    -0.201 OA
HETATM   20  O   UNL     1     -41.014  57.068 -49.578  1.00  0.00    -0.201 OA
BRANCH  18  21
HETATM   21  C   UNL     1     -40.812  55.087 -51.292  1.00  0.00     0.080 A 
HETATM   22  C   UNL     1     -40.866  54.589 -52.596  1.00  0.00     0.034 A 
HETATM   23  C   UNL     1     -40.538  53.243 -52.888  1.00  0.00    -0.030 A 
HETATM   24  C   UNL     1     -40.114  52.413 -51.840  1.00  0.00     0.041 A 
HETATM   25  C   UNL     1     -40.652  52.852 -54.336  1.00  0.00     0.041 C 
HETATM   26  N   UNL     1     -39.743  51.061 -51.925  1.00  0.00    -0.327 N 
HETATM   27  C   UNL     1     -40.055  52.943 -50.532  1.00  0.00     0.031 A 
HETATM   28  C   UNL     1     -39.657  50.147 -52.921  1.00  0.00     0.222 C 
HETATM   29  H   UNL     1     -39.483  50.618 -51.050  1.00  0.00     0.169 HD
HETATM   30  O   UNL     1     -39.279  49.011 -52.615  1.00  0.00    -0.273 OA
HETATM   31  C   UNL     1     -39.922  50.477 -54.360  1.00  0.00     0.103 C 
HETATM   32  C   UNL     1     -41.082  51.418 -54.580  1.00  0.00     0.014 C 
HETATM   33  C   UNL     1     -40.408  54.265 -50.251  1.00  0.00     0.027 A 
ENDBRANCH  18  21
ENDBRANCH   1  18
TORSDOF 8
ENDMDL
MODEL 4
REMARK VINA RESULT:      -8.2      2.593      7.546
REMARK  8 active torsions:
REMARK  status: ('A' for Active; 'I' for Inactive)
REMARK    1  A    between atoms: O_2  and  C_3 
REMARK    2  A    between atoms: C_6  and  C_7 
REMARK    3  A    between atoms: C_7  and  N_8 
REMARK       I    between atoms: N_8  and  C_9 
REMARK    4  A    between atoms: C_9  and  C_10 
REMARK    5  A    between atoms: C_10  and  C_11 
REMARK    6  A    between atoms: C_11  and  N_12 
REMARK    7  A    between atoms: N_12  and  S_13 
REMARK    8  A    between atoms: S_13  and  C_14 
ROOT
HETATM    1  N   UNL     1     -41.705  59.855 -52.035  1.00  0.00    -0.315 N 
HETATM    2  H   UNL     1     -41.267  60.772 -52.112  1.00  0.00     0.172 HD
ENDROOT
BRANCH   1   3
HETATM    3  C   UNL     1     -42.761  59.650 -51.033  1.00  0.00     0.141 C 
BRANCH   3   4
HETATM    4  C   UNL     1     -44.060  59.307 -51.745  1.00  0.00     0.123 C 
BRANCH   4   5
HETATM    5  C   UNL     1     -44.238  57.811 -51.827  1.00  0.00     0.219 C 
HETATM    6  N   UNL     1     -43.851  57.119 -50.705  1.00  0.00    -0.357 N 
HETATM    7  H   UNL     1     -43.489  57.607 -49.896  1.00  0.00     0.162 HD
HETATM    8  O   UNL     1     -44.679  57.276 -52.839  1.00  0.00    -0.274 OA
BRANCH   6   9
HETATM    9  C   UNL     1     -44.056  55.690 -50.586  1.00  0.00     0.161 C 
BRANCH   9  10
HETATM   10  C   UNL     1     -42.806  54.887 -50.843  1.00  0.00    -0.040 A 
HETATM   11  C   UNL     1     -41.825  54.787 -49.845  1.00  0.00     0.011 A 
HETATM   12  C   UNL     1     -40.702  53.970 -50.016  1.00  0.00     0.037 A 
HETATM   13  C   UNL     1     -40.549  53.230 -51.187  1.00  0.00     0.068 A 
HETATM   14  C   UNL     1     -41.509  53.336 -52.193  1.00  0.00     0.037 A 
HETATM   15  C   UNL     1     -42.637  54.143 -52.019  1.00  0.00     0.011 A 
BRANCH  13  16
HETATM   16  O   UNL     1     -39.510  52.384 -51.465  1.00  0.00    -0.356 OA
HETATM   17  C   UNL     1     -39.610  51.647 -52.678  1.00  0.00     0.210 C 
ENDBRANCH  13  16
ENDBRANCH   9  10
ENDBRANCH   6   9
ENDBRANCH   4   5
ENDBRANCH   3   4
ENDBRANCH   1   3
BRANCH   1  18
HETATM   18  S   UNL     1     -40.591  58.623 -52.295  1.00  0.00     0.258 S 
HETATM   19  O   UNL     1     -39.343  59.277 -52.616  1.00  0.00    -0.201 OA
HETATM   20  O   UNL     1     -40.704  57.693 -51.192  1.00  0.00    -0.201 OA
BRANCH  18  21
HETATM   21  C   UNL     1     -41.179  57.845 -53.772  1.00  0.00     0.080 A 
HETATM   22  C   UNL     1     -41.932  58.574 -54.694  1.00  0.00     0.034 A 
HETATM   23  C   UNL     1     -42.478  57.965 -55.850  1.00  0.00    -0.030 A 
HETATM   24  C   UNL     1     -42.216  56.606 -56.080  1.00  0.00     0.041 A 
HETATM   25  C   UNL     1     -43.274  58.876 -56.744  1.00  0.00     0.041 C 
HETATM   26  N   UNL     1     -42.660  55.827 -57.161  1.00  0.00    -0.327 N 
HETATM   27  C   UNL     1     -41.440  55.893 -55.139  1.00  0.00     0.031 A 
HETATM   28  C   UNL     1     -43.414  56.051 -58.263  1.00  0.00     0.222 C 
HETATM   29  H   UNL     1     -42.384  54.851 -57.145  1.00  0.00     0.169 HD
HETATM   30  O   UNL     1     -43.606  55.095 -59.022  1.00  0.00    -0.273 OA
HETATM   31  C   UNL     1     -43.949  57.405 -58.628  1.00  0.00     0.103 C 
HETATM   32  C   UNL     1     -44.441  58.217 -57.455  1.00  0.00     0.014 C 
HETATM   33  C   UNL     1     -40.929  56.498 -53.988  1.00  0.00     0.027 A 
ENDBRANCH  18  21
ENDBRANCH   1  18
TORSDOF 8
ENDMDL
MODEL 5
REMARK VINA RESULT:      -8.2      1.915      2.650
REMARK  8 active torsions:
REMARK  status: ('A' for Active; 'I' for Inactive)
REMARK    1  A    between atoms: O_2  and  C_3 
REMARK    2  A    between atoms: C_6  and  C_7 
REMARK    3  A    between atoms: C_7  and  N_8 
REMARK       I    between atoms: N_8  and  C_9 
REMARK    4  A    between atoms: C_9  and  C_10 
REMARK    5  A    between atoms: C_10  and  C_11 
REMARK    6  A    between atoms: C_11  and  N_12 
REMARK    7  A    between atoms: N_12  and  S_13 
REMARK    8  A    between atoms: S_13  and  C_14 
ROOT
HETATM    1  N   UNL     1     -41.993  57.497 -51.938  1.00  0.00    -0.315 N 
HETATM    2  H   UNL     1     -42.260  58.294 -51.362  1.00  0.00     0.172 HD
ENDROOT
BRANCH   1   3
HETATM    3  C   UNL     1     -40.961  57.674 -52.970  1.00  0.00     0.141 C 
BRANCH   3   4
HETATM    4  C   UNL     1     -40.778  59.158 -53.239  1.00  0.00     0.123 C 
BRANCH   4   5
HETATM    5  C   UNL     1     -41.826  59.653 -54.204  1.00  0.00     0.219 C 
HETATM    6  N   UNL     1     -42.066  58.826 -55.273  1.00  0.00    -0.357 N 
HETATM    7  H   UNL     1     -41.569  57.951 -55.371  1.00  0.00     0.162 HD
HETATM    8  O   UNL     1     -42.393  60.729 -54.033  1.00  0.00    -0.274 OA
BRANCH   6   9
HETATM    9  C   UNL     1     -43.116  59.107 -56.231  1.00  0.00     0.161 C 
BRANCH   9  10
HETATM   10  C   UNL     1     -43.329  57.993 -57.224  1.00  0.00    -0.040 A 
HETATM   11  C   UNL     1     -42.760  56.732 -56.988  1.00  0.00     0.011 A 
HETATM   12  C   UNL     1     -43.020  55.652 -57.839  1.00  0.00     0.037 A 
HETATM   13  C   UNL     1     -43.865  55.814 -58.935  1.00  0.00     0.068 A 
HETATM   14  C   UNL     1     -44.421  57.068 -59.189  1.00  0.00     0.037 A 
HETATM   15  C   UNL     1     -44.171  58.145 -58.334  1.00  0.00     0.011 A 
BRANCH  13  16
HETATM   16  O   UNL     1     -44.212  54.836 -59.826  1.00  0.00    -0.356 OA
HETATM   17  C   UNL     1     -44.981  55.254 -60.948  1.00  0.00     0.210 C 
ENDBRANCH  13  16
ENDBRANCH   9  10
ENDBRANCH   6   9
ENDBRANCH   4   5
ENDBRANCH   3   4
ENDBRANCH   1   3
BRANCH   1  18
HETATM   18  S   UNL     1     -43.320  56.525 -52.285  1.00  0.00     0.258 S 
HETATM   19  O   UNL     1     -43.957  56.254 -51.016  1.00  0.00    -0.201 OA
HETATM   20  O   UNL     1     -44.036  57.138 -53.382  1.00  0.00    -0.201 OA
BRANCH  18  21
HETATM   21  C   UNL     1     -42.586  55.014 -52.843  1.00  0.00     0.080 A 
HETATM   22  C   UNL     1     -41.826  54.239 -51.965  1.00  0.00     0.034 A 
HETATM   23  C   UNL     1     -41.165  53.065 -52.399  1.00  0.00    -0.030 A 
HETATM   24  C   UNL     1     -41.318  52.661 -53.733  1.00  0.00     0.041 A 
HETATM   25  C   UNL     1     -40.376  52.341 -51.340  1.00  0.00     0.041 C 
HETATM   26  N   UNL     1     -40.753  51.533 -54.349  1.00  0.00    -0.327 N 
HETATM   27  C   UNL     1     -42.103  53.455 -54.599  1.00  0.00     0.031 A 
HETATM   28  C   UNL     1     -39.945  50.522 -53.950  1.00  0.00     0.222 C 
HETATM   29  H   UNL     1     -40.962  51.416 -55.335  1.00  0.00     0.169 HD
HETATM   30  O   UNL     1     -39.640  49.673 -54.795  1.00  0.00    -0.273 OA
HETATM   31  C   UNL     1     -39.481  50.354 -52.533  1.00  0.00     0.103 C 
HETATM   32  C   UNL     1     -39.124  51.646 -51.838  1.00  0.00     0.014 C 
HETATM   33  C   UNL     1     -42.728  54.627 -54.168  1.00  0.00     0.027 A 
ENDBRANCH  18  21
ENDBRANCH   1  18
TORSDOF 8
ENDMDL
MODEL 6
REMARK VINA RESULT:      -8.1      1.827      2.545
REMARK  8 active torsions:
REMARK  status: ('A' for Active; 'I' for Inactive)
REMARK    1  A    between atoms: O_2  and  C_3 
REMARK    2  A    between atoms: C_6  and  C_7 
REMARK    3  A    between atoms: C_7  and  N_8 
REMARK       I    between atoms: N_8  and  C_9 
REMARK    4  A    between atoms: C_9  and  C_10 
REMARK    5  A    between atoms: C_10  and  C_11 
REMARK    6  A    between atoms: C_11  and  N_12 
REMARK    7  A    between atoms: N_12  and  S_13 
REMARK    8  A    between atoms: S_13  and  C_14 
ROOT
HETATM    1  N   UNL     1     -42.987  56.464 -50.697  1.00  0.00    -0.315 N 
HETATM    2  H   UNL     1     -43.013  55.804 -49.921  1.00  0.00     0.172 HD
ENDROOT
BRANCH   1   3
HETATM    3  C   UNL     1     -44.116  56.504 -51.639  1.00  0.00     0.141 C 
BRANCH   3   4
HETATM    4  C   UNL     1     -44.938  57.755 -51.375  1.00  0.00     0.123 C 
BRANCH   4   5
HETATM    5  C   UNL     1     -44.984  58.626 -52.605  1.00  0.00     0.219 C 
HETATM    6  N   UNL     1     -44.266  58.154 -53.677  1.00  0.00    -0.357 N 
HETATM    7  H   UNL     1     -43.764  57.278 -53.617  1.00  0.00     0.162 HD
HETATM    8  O   UNL     1     -45.608  59.683 -52.615  1.00  0.00    -0.274 OA
BRANCH   6   9
HETATM    9  C   UNL     1     -44.295  58.820 -54.963  1.00  0.00     0.161 C 
BRANCH   9  10
HETATM   10  C   UNL     1     -44.097  57.878 -56.124  1.00  0.00    -0.040 A 
HETATM   11  C   UNL     1     -44.766  58.114 -57.334  1.00  0.00     0.011 A 
HETATM   12  C   UNL     1     -44.527  57.317 -58.459  1.00  0.00     0.037 A 
HETATM   13  C   UNL     1     -43.604  56.275 -58.393  1.00  0.00     0.068 A 
HETATM   14  C   UNL     1     -42.946  56.021 -57.190  1.00  0.00     0.037 A 
HETATM   15  C   UNL     1     -43.176  56.824 -56.068  1.00  0.00     0.011 A 
BRANCH  13  16
HETATM   16  O   UNL     1     -43.269  55.440 -59.424  1.00  0.00    -0.356 OA
HETATM   17  C   UNL     1     -44.355  54.880 -60.154  1.00  0.00     0.210 C 
ENDBRANCH  13  16
ENDBRANCH   9  10
ENDBRANCH   6   9
ENDBRANCH   4   5
ENDBRANCH   3   4
ENDBRANCH   1   3
BRANCH   1  18
HETATM   18  S   UNL     1     -41.428  56.636 -51.300  1.00  0.00     0.258 S 
HETATM   19  O   UNL     1     -41.511  57.639 -52.337  1.00  0.00    -0.201 OA
HETATM   20  O   UNL     1     -40.536  56.778 -50.170  1.00  0.00    -0.201 OA
BRANCH  18  21
HETATM   21  C   UNL     1     -41.121  55.082 -52.089  1.00  0.00     0.080 A 
HETATM   22  C   UNL     1     -40.813  53.956 -51.322  1.00  0.00     0.034 A 
HETATM   23  C   UNL     1     -40.490  52.716 -51.925  1.00  0.00    -0.030 A 
HETATM   24  C   UNL     1     -40.523  52.620 -53.323  1.00  0.00     0.041 A 
HETATM   25  C   UNL     1     -40.172  51.599 -50.968  1.00  0.00     0.041 C 
HETATM   26  N   UNL     1     -40.241  51.487 -54.104  1.00  0.00    -0.327 N 
HETATM   27  C   UNL     1     -40.850  53.770 -54.078  1.00  0.00     0.031 A 
HETATM   28  C   UNL     1     -39.879  50.208 -53.847  1.00  0.00     0.222 C 
HETATM   29  H   UNL     1     -40.298  51.617 -55.109  1.00  0.00     0.169 HD
HETATM   30  O   UNL     1     -39.711  49.461 -54.818  1.00  0.00    -0.273 OA
HETATM   31  C   UNL     1     -39.751  49.655 -52.458  1.00  0.00     0.103 C 
HETATM   32  C   UNL     1     -39.135  50.609 -51.463  1.00  0.00     0.014 C 
HETATM   33  C   UNL     1     -41.140  54.995 -53.474  1.00  0.00     0.027 A 
ENDBRANCH  18  21
ENDBRANCH   1  18
TORSDOF 8
ENDMDL
MODEL 7
REMARK VINA RESULT:      -8.1      5.690      9.766
REMARK  8 active torsions:
REMARK  status: ('A' for Active; 'I' for Inactive)
REMARK    1  A    between atoms: O_2  and  C_3 
REMARK    2  A    between atoms: C_6  and  C_7 
REMARK    3  A    between atoms: C_7  and  N_8 
REMARK       I    between atoms: N_8  and  C_9 
REMARK    4  A    between atoms: C_9  and  C_10 
REMARK    5  A    between atoms: C_10  and  C_11 
REMARK    6  A    between atoms: C_11  and  N_12 
REMARK    7  A    between atoms: N_12  and  S_13 
REMARK    8  A    between atoms: S_13  and  C_14 
ROOT
HETATM    1  N   UNL     1     -43.513  57.710 -51.068  1.00  0.00    -0.315 N 
HETATM    2  H   UNL     1     -43.761  56.740 -50.876  1.00  0.00     0.172 HD
ENDROOT
BRANCH   1   3
HETATM    3  C   UNL     1     -44.579  58.671 -51.385  1.00  0.00     0.141 C 
BRANCH   3   4
HETATM    4  C   UNL     1     -44.301  59.978 -50.660  1.00  0.00     0.123 C 
BRANCH   4   5
HETATM    5  C   UNL     1     -45.303  60.191 -49.552  1.00  0.00     0.219 C 
HETATM    6  N   UNL     1     -45.225  61.411 -48.928  1.00  0.00    -0.357 N 
HETATM    7  H   UNL     1     -44.543  62.099 -49.221  1.00  0.00     0.162 HD
HETATM    8  O   UNL     1     -46.103  59.315 -49.239  1.00  0.00    -0.274 OA
BRANCH   6   9
HETATM    9  C   UNL     1     -46.183  61.810 -47.917  1.00  0.00     0.161 C 
BRANCH   9  10
HETATM   10  C   UNL     1     -45.575  61.949 -46.544  1.00  0.00    -0.040 A 
HETATM   11  C   UNL     1     -44.937  60.849 -45.950  1.00  0.00     0.011 A 
HETATM   12  C   UNL     1     -44.278  60.974 -44.722  1.00  0.00     0.037 A 
HETATM   13  C   UNL     1     -44.237  62.206 -44.073  1.00  0.00     0.068 A 
HETATM   14  C   UNL     1     -44.883  63.302 -44.646  1.00  0.00     0.037 A 
HETATM   15  C   UNL     1     -45.532  63.181 -45.878  1.00  0.00     0.011 A 
BRANCH  13  16
HETATM   16  O   UNL     1     -43.612  62.460 -42.883  1.00  0.00    -0.356 OA
HETATM   17  C   UNL     1     -43.393  63.831 -42.570  1.00  0.00     0.210 C 
ENDBRANCH  13  16
ENDBRANCH   9  10
ENDBRANCH   6   9
ENDBRANCH   4   5
ENDBRANCH   3   4
ENDBRANCH   1   3
BRANCH   1  18
HETATM   18  S   UNL     1     -42.060  57.813 -51.907  1.00  0.00     0.258 S 
HETATM   19  O   UNL     1     -42.415  58.031 -53.291  1.00  0.00    -0.201 OA
HETATM   20  O   UNL     1     -41.204  58.729 -51.186  1.00  0.00    -0.201 OA
BRANCH  18  21
HETATM   21  C   UNL     1     -41.397  56.177 -51.781  1.00  0.00     0.080 A 
HETATM   22  C   UNL     1     -41.110  55.447 -52.935  1.00  0.00     0.034 A 
HETATM   23  C   UNL     1     -40.648  54.110 -52.870  1.00  0.00    -0.030 A 
HETATM   24  C   UNL     1     -40.442  53.532 -51.609  1.00  0.00     0.041 A 
HETATM   25  C   UNL     1     -40.392  53.451 -54.198  1.00  0.00     0.041 C 
HETATM   26  N   UNL     1     -39.987  52.232 -51.335  1.00  0.00    -0.327 N 
HETATM   27  C   UNL     1     -40.727  54.296 -50.455  1.00  0.00     0.031 A 
HETATM   28  C   UNL     1     -39.616  51.165 -52.082  1.00  0.00     0.222 C 
HETATM   29  H   UNL     1     -39.920  51.985 -50.353  1.00  0.00     0.169 HD
HETATM   30  O   UNL     1     -39.260  50.147 -51.477  1.00  0.00    -0.273 OA
HETATM   31  C   UNL     1     -39.547  51.198 -53.580  1.00  0.00     0.103 C 
HETATM   32  C   UNL     1     -40.671  51.961 -54.238  1.00  0.00     0.014 C 
HETATM   33  C   UNL     1     -41.208  55.604 -50.531  1.00  0.00     0.027 A 
ENDBRANCH  18  21
ENDBRANCH   1  18
TORSDOF 8
ENDMDL
MODEL 8
REMARK VINA RESULT:      -8.0      1.942      8.420
REMARK  8 active torsions:
REMARK  status: ('A' for Active; 'I' for Inactive)
REMARK    1  A    between atoms: O_2  and  C_3 
REMARK    2  A    between atoms: C_6  and  C_7 
REMARK    3  A    between atoms: C_7  and  N_8 
REMARK       I    between atoms: N_8  and  C_9 
REMARK    4  A    between atoms: C_9  and  C_10 
REMARK    5  A    between atoms: C_10  and  C_11 
REMARK    6  A    between atoms: C_11  and  N_12 
REMARK    7  A    between atoms: N_12  and  S_13 
REMARK    8  A    between atoms: S_13  and  C_14 
ROOT
HETATM    1  N   UNL     1     -42.913  58.262 -54.362  1.00  0.00    -0.315 N 
HETATM    2  H   UNL     1     -41.994  57.821 -54.339  1.00  0.00     0.172 HD
ENDROOT
BRANCH   1   3
HETATM    3  C   UNL     1     -44.099  57.459 -54.031  1.00  0.00     0.141 C 
BRANCH   3   4
HETATM    4  C   UNL     1     -44.226  57.362 -52.520  1.00  0.00     0.123 C 
BRANCH   4   5
HETATM    5  C   UNL     1     -42.880  57.099 -51.892  1.00  0.00     0.219 C 
HETATM    6  N   UNL     1     -42.515  55.776 -51.836  1.00  0.00    -0.357 N 
HETATM    7  H   UNL     1     -43.122  55.057 -52.208  1.00  0.00     0.162 HD
HETATM    8  O   UNL     1     -42.191  58.014 -51.453  1.00  0.00    -0.274 OA
BRANCH   6   9
HETATM    9  C   UNL     1     -41.210  55.366 -51.360  1.00  0.00     0.161 C 
BRANCH   9  10
HETATM   10  C   UNL     1     -40.788  54.012 -51.871  1.00  0.00    -0.040 A 
HETATM   11  C   UNL     1     -40.869  53.731 -53.243  1.00  0.00     0.011 A 
HETATM   12  C   UNL     1     -40.393  52.521 -53.761  1.00  0.00     0.037 A 
HETATM   13  C   UNL     1     -39.818  51.576 -52.913  1.00  0.00     0.068 A 
HETATM   14  C   UNL     1     -39.750  51.839 -51.545  1.00  0.00     0.037 A 
HETATM   15  C   UNL     1     -40.215  53.052 -51.028  1.00  0.00     0.011 A 
BRANCH  13  16
HETATM   16  O   UNL     1     -39.301  50.369 -53.297  1.00  0.00    -0.356 OA
HETATM   17  C   UNL     1     -39.739  49.873 -54.557  1.00  0.00     0.210 C 
ENDBRANCH  13  16
ENDBRANCH   9  10
ENDBRANCH   6   9
ENDBRANCH   4   5
ENDBRANCH   3   4
ENDBRANCH   1   3
BRANCH   1  18
HETATM   18  S   UNL     1     -43.021  59.381 -55.612  1.00  0.00     0.258 S 
HETATM   19  O   UNL     1     -44.191  60.181 -55.330  1.00  0.00    -0.201 OA
HETATM   20  O   UNL     1     -41.713  59.974 -55.780  1.00  0.00    -0.201 OA
BRANCH  18  21
HETATM   21  C   UNL     1     -43.391  58.381 -57.025  1.00  0.00     0.080 A 
HETATM   22  C   UNL     1     -44.656  58.440 -57.612  1.00  0.00     0.034 A 
HETATM   23  C   UNL     1     -45.008  57.602 -58.697  1.00  0.00    -0.030 A 
HETATM   24  C   UNL     1     -44.041  56.725 -59.209  1.00  0.00     0.041 A 
HETATM   25  C   UNL     1     -46.410  57.773 -59.216  1.00  0.00     0.041 C 
HETATM   26  N   UNL     1     -44.192  55.823 -60.276  1.00  0.00    -0.327 N 
HETATM   27  C   UNL     1     -42.763  56.693 -58.607  1.00  0.00     0.031 A 
HETATM   28  C   UNL     1     -45.197  55.491 -61.120  1.00  0.00     0.222 C 
HETATM   29  H   UNL     1     -43.381  55.252 -60.490  1.00  0.00     0.169 HD
HETATM   30  O   UNL     1     -44.961  54.622 -61.967  1.00  0.00    -0.273 OA
HETATM   31  C   UNL     1     -46.530  56.179 -61.117  1.00  0.00     0.103 C 
HETATM   32  C   UNL     1     -47.058  56.507 -59.742  1.00  0.00     0.014 C 
HETATM   33  C   UNL     1     -42.436  57.505 -57.519  1.00  0.00     0.027 A 
ENDBRANCH  18  21
ENDBRANCH   1  18
TORSDOF 8
ENDMDL
MODEL 9
REMARK VINA RESULT:      -8.0      2.985      7.441
REMARK  8 active torsions:
REMARK  status: ('A' for Active; 'I' for Inactive)
REMARK    1  A    between atoms: O_2  and  C_3 
REMARK    2  A    between atoms: C_6  and  C_7 
REMARK    3  A    between atoms: C_7  and  N_8 
REMARK       I    between atoms: N_8  and  C_9 
REMARK    4  A    between atoms: C_9  and  C_10 
REMARK    5  A    between atoms: C_10  and  C_11 
REMARK    6  A    between atoms: C_11  and  N_12 
REMARK    7  A    between atoms: N_12  and  S_13 
REMARK    8  A    between atoms: S_13  and  C_14 
ROOT
HETATM    1  N   UNL     1     -44.363  57.998 -59.504  1.00  0.00    -0.315 N 
HETATM    2  H   UNL     1     -44.772  57.222 -58.985  1.00  0.00     0.172 HD
ENDROOT
BRANCH   1   3
HETATM    3  C   UNL     1     -43.185  57.751 -60.348  1.00  0.00     0.141 C 
BRANCH   3   4
HETATM    4  C   UNL     1     -42.209  56.865 -59.592  1.00  0.00     0.123 C 
BRANCH   4   5
HETATM    5  C   UNL     1     -42.953  55.844 -58.767  1.00  0.00     0.219 C 
HETATM    6  N   UNL     1     -42.545  55.747 -57.459  1.00  0.00    -0.357 N 
HETATM    7  H   UNL     1     -41.807  56.340 -57.103  1.00  0.00     0.162 HD
HETATM    8  O   UNL     1     -43.838  55.150 -59.258  1.00  0.00    -0.274 OA
BRANCH   6   9
HETATM    9  C   UNL     1     -43.228  54.890 -56.512  1.00  0.00     0.161 C 
BRANCH   9  10
HETATM   10  C   UNL     1     -42.385  54.541 -55.312  1.00  0.00    -0.040 A 
HETATM   11  C   UNL     1     -43.003  54.274 -54.081  1.00  0.00     0.011 A 
HETATM   12  C   UNL     1     -42.257  53.850 -52.975  1.00  0.00     0.037 A 
HETATM   13  C   UNL     1     -40.879  53.677 -53.088  1.00  0.00     0.068 A 
HETATM   14  C   UNL     1     -40.252  53.956 -54.303  1.00  0.00     0.037 A 
HETATM   15  C   UNL     1     -40.998  54.369 -55.411  1.00  0.00     0.011 A 
BRANCH  13  16
HETATM   16  O   UNL     1     -40.045  53.251 -52.091  1.00  0.00    -0.356 OA
HETATM   17  C   UNL     1     -39.601  51.902 -52.178  1.00  0.00     0.210 C 
ENDBRANCH  13  16
ENDBRANCH   9  10
ENDBRANCH   6   9
ENDBRANCH   4   5
ENDBRANCH   3   4
ENDBRANCH   1   3
BRANCH   1  18
HETATM   18  S   UNL     1     -44.437  59.427 -58.622  1.00  0.00     0.258 S 
HETATM   19  O   UNL     1     -43.220  60.145 -58.925  1.00  0.00    -0.201 OA
HETATM   20  O   UNL     1     -45.742  60.010 -58.844  1.00  0.00    -0.201 OA
BRANCH  18  21
HETATM   21  C   UNL     1     -44.324  58.878 -56.943  1.00  0.00     0.080 A 
HETATM   22  C   UNL     1     -43.112  58.971 -56.256  1.00  0.00     0.034 A 
HETATM   23  C   UNL     1     -42.969  58.474 -54.938  1.00  0.00    -0.030 A 
HETATM   24  C   UNL     1     -44.089  57.915 -54.306  1.00  0.00     0.041 A 
HETATM   25  C   UNL     1     -41.601  58.637 -54.333  1.00  0.00     0.041 C 
HETATM   26  N   UNL     1     -44.152  57.377 -53.011  1.00  0.00    -0.327 N 
HETATM   27  C   UNL     1     -45.308  57.845 -55.017  1.00  0.00     0.031 A 
HETATM   28  C   UNL     1     -43.273  57.210 -51.994  1.00  0.00     0.222 C 
HETATM   29  H   UNL     1     -45.051  56.996 -52.733  1.00  0.00     0.169 HD
HETATM   30  O   UNL     1     -43.696  56.677 -50.961  1.00  0.00    -0.273 OA
HETATM   31  C   UNL     1     -41.858  57.705 -52.045  1.00  0.00     0.103 C 
HETATM   32  C   UNL     1     -41.185  57.530 -53.384  1.00  0.00     0.014 C 
HETATM   33  C   UNL     1     -45.431  58.313 -56.327  1.00  0.00     0.027 A 
ENDBRANCH  18  21
ENDBRANCH   1  18
TORSDOF 8
ENDMDL
MODEL 10
REMARK VINA RESULT:      -7.9     14.730     18.754
REMARK  8 active torsions:
REMARK  status: ('A' for Active; 'I' for Inactive)
REMARK    1  A    between atoms: O_2  and  C_3 
REMARK    2  A    between atoms: C_6  and  C_7 
REMARK    3  A    between atoms: C_7  and  N_8 
REMARK       I    between atoms: N_8  and  C_9 
REMARK    4  A    between atoms: C_9  and  C_10 
REMARK    5  A    between atoms: C_10  and  C_11 
REMARK    6  A    between atoms: C_11  and  N_12 
REMARK    7  A    between atoms: N_12  and  S_13 
REMARK    8  A    between atoms: S_13  and  C_14 
ROOT
HETATM    1  N   UNL     1     -37.218  42.458 -55.675  1.00  0.00    -0.315 N 
HETATM    2  H   UNL     1     -37.364  43.042 -56.498  1.00  0.00     0.172 HD
ENDROOT
BRANCH   1   3
HETATM    3  C   UNL     1     -35.902  42.465 -55.019  1.00  0.00     0.141 C 
BRANCH   3   4
HETATM    4  C   UNL     1     -34.817  42.440 -56.082  1.00  0.00     0.123 C 
BRANCH   4   5
HETATM    5  C   UNL     1     -34.086  41.121 -56.060  1.00  0.00     0.219 C 
HETATM    6  N   UNL     1     -33.068  41.037 -55.142  1.00  0.00    -0.357 N 
HETATM    7  H   UNL     1     -32.857  41.817 -54.532  1.00  0.00     0.162 HD
HETATM    8  O   UNL     1     -34.385  40.213 -56.830  1.00  0.00    -0.274 OA
BRANCH   6   9
HETATM    9  C   UNL     1     -32.340  39.804 -54.925  1.00  0.00     0.161 C 
BRANCH   9  10
HETATM   10  C   UNL     1     -32.131  39.487 -53.466  1.00  0.00    -0.040 A 
HETATM   11  C   UNL     1     -32.012  40.531 -52.536  1.00  0.00     0.011 A 
HETATM   12  C   UNL     1     -31.917  40.270 -51.165  1.00  0.00     0.037 A 
HETATM   13  C   UNL     1     -31.950  38.957 -50.700  1.00  0.00     0.068 A 
HETATM   14  C   UNL     1     -32.049  37.910 -51.617  1.00  0.00     0.037 A 
HETATM   15  C   UNL     1     -32.156  38.170 -52.987  1.00  0.00     0.011 A 
BRANCH  13  16
HETATM   16  O   UNL     1     -31.884  38.573 -49.389  1.00  0.00    -0.356 OA
HETATM   17  C   UNL     1     -31.716  39.618 -48.438  1.00  0.00     0.210 C 
ENDBRANCH  13  16
ENDBRANCH   9  10
ENDBRANCH   6   9
ENDBRANCH   4   5
ENDBRANCH   3   4
ENDBRANCH   1   3
BRANCH   1  18
HETATM   18  S   UNL     1     -38.045  41.001 -55.807  1.00  0.00     0.258 S 
HETATM   19  O   UNL     1     -37.263  40.032 -55.074  1.00  0.00    -0.201 OA
HETATM   20  O   UNL     1     -39.433  41.258 -55.492  1.00  0.00    -0.201 OA
BRANCH  18  21
HETATM   21  C   UNL     1     -37.904  40.604 -57.526  1.00  0.00     0.080 A 
HETATM   22  C   UNL     1     -38.252  39.331 -57.982  1.00  0.00     0.034 A 
HETATM   23  C   UNL     1     -38.083  38.958 -59.337  1.00  0.00    -0.030 A 
HETATM   24  C   UNL     1     -37.589  39.911 -60.239  1.00  0.00     0.041 A 
HETATM   25  C   UNL     1     -38.494  37.551 -59.674  1.00  0.00     0.041 C 
HETATM   26  N   UNL     1     -37.355  39.739 -61.613  1.00  0.00    -0.327 N 
HETATM   27  C   UNL     1     -37.255  41.197 -59.757  1.00  0.00     0.031 A 
HETATM   28  C   UNL     1     -37.499  38.720 -62.493  1.00  0.00     0.222 C 
HETATM   29  H   UNL     1     -36.973  40.542 -62.101  1.00  0.00     0.169 HD
HETATM   30  O   UNL     1     -37.181  38.937 -63.668  1.00  0.00    -0.273 OA
HETATM   31  C   UNL     1     -38.089  37.392 -62.120  1.00  0.00     0.103 C 
HETATM   32  C   UNL     1     -37.671  36.886 -60.760  1.00  0.00     0.014 C 
HETATM   33  C   UNL     1     -37.401  41.546 -58.413  1.00  0.00     0.027 A 
ENDBRANCH  18  21
ENDBRANCH   1  18
TORSDOF 8
ENDMDL
