MODEL 1
REMARK VINA RESULT:      -8.6      0.000      0.000
REMARK  4 active torsions:
REMARK  status: ('A' for Active; 'I' for Inactive)
REMARK    1  A    between atoms: C_9  and  C_10 
REMARK       I    between atoms: C_10  and  N_11 
REMARK    2  A    between atoms: N_11  and  N_12 
REMARK       I    between atoms: N_12  and  C_13 
REMARK    3  A    between atoms: C_13  and  C_14 
REMARK    4  A    between atoms: C_14  and  C_15 
ROOT
HETATM    1  C   UNL     1     -42.387  54.723 -55.325  1.00  0.00     0.291 C 
HETATM    2  N   UNL     1     -41.821  55.809 -55.967  1.00  0.00    -0.262 N 
HETATM    3  O   UNL     1     -43.307  54.068 -55.816  1.00  0.00    -0.264 OA
HETATM    4  H   UNL     1     -40.953  56.199 -55.594  1.00  0.00     0.190 HD
ENDROOT
BRANCH   2   5
HETATM    5  N   UNL     1     -42.133  56.050 -57.310  1.00  0.00    -0.267 N 
HETATM    6  C   UNL     1     -42.519  57.327 -57.664  1.00  0.00     0.240 C 
HETATM    7  O   UNL     1     -42.747  58.212 -56.840  1.00  0.00    -0.272 OA
HETATM    8  H   UNL     1     -41.795  55.367 -57.984  1.00  0.00     0.190 HD
BRANCH   6   9
HETATM    9  C   UNL     1     -42.655  57.547 -59.158  1.00  0.00     0.143 C 
BRANCH   9  10
HETATM   10  C   UNL     1     -44.043  57.282 -59.696  1.00  0.00    -0.049 A 
HETATM   11  C   UNL     1     -45.009  58.299 -59.746  1.00  0.00     0.009 A 
HETATM   12  C   UNL     1     -46.275  58.051 -60.283  1.00  0.00     0.024 A 
HETATM   13  C   UNL     1     -46.579  56.790 -60.789  1.00  0.00     0.034 A 
HETATM   14 CL   UNL     1     -48.134  56.487 -61.458  1.00  0.00    -0.084 Cl
HETATM   15  C   UNL     1     -45.626  55.775 -60.765  1.00  0.00     0.024 A 
HETATM   16  C   UNL     1     -44.361  56.021 -60.223  1.00  0.00     0.009 A 
ENDBRANCH   9  10
ENDBRANCH   6   9
ENDBRANCH   2   5
BRANCH   1  17
HETATM   17  C   UNL     1     -41.771  54.431 -54.024  1.00  0.00     0.158 A 
HETATM   18  C   UNL     1     -41.010  53.281 -53.659  1.00  0.00     0.029 A 
HETATM   19  C   UNL     1     -40.590  52.096 -54.297  1.00  0.00     0.023 A 
HETATM   20  C   UNL     1     -40.650  53.491 -52.333  1.00  0.00     0.063 A 
HETATM   21  C   UNL     1     -39.831  51.155 -53.579  1.00  0.00    -0.061 A 
HETATM   22  C   UNL     1     -39.358  49.895 -54.247  1.00  0.00     0.048 C 
HETATM   23  C   UNL     1     -39.481  51.412 -52.247  1.00  0.00     0.009 A 
HETATM   24  C   UNL     1     -39.886  52.582 -51.597  1.00  0.00     0.032 A 
HETATM   25  N   UNL     1     -41.191  54.700 -51.999  1.00  0.00    -0.277 N 
HETATM   26  H   UNL     1     -41.128  55.174 -51.105  1.00  0.00     0.189 HD
HETATM   27  N   UNL     1     -41.875  55.296 -52.990  1.00  0.00    -0.168 NA
ENDBRANCH   1  17
TORSDOF 4
ENDMDL
MODEL 2
REMARK VINA RESULT:      -8.4      0.711      1.172
REMARK  4 active torsions:
REMARK  status: ('A' for Active; 'I' for Inactive)
REMARK    1  A    between atoms: C_9  and  C_10 
REMARK       I    between atoms: C_10  and  N_11 
REMARK    2  A    between atoms: N_11  and  N_12 
REMARK       I    between atoms: N_12  and  C_13 
REMARK    3  A    between atoms: C_13  and  C_14 
REMARK    4  A    between atoms: C_14  and  C_15 
ROOT
HETATM    1  C   UNL     1     -42.248  54.899 -54.980  1.00  0.00     0.291 C 
HETATM    2  N   UNL     1     -41.823  56.145 -55.400  1.00  0.00    -0.262 N 
HETATM    3  O   UNL     1     -43.055  54.223 -55.620  1.00  0.00    -0.264 OA
HETATM    4  H   UNL     1     -41.027  56.576 -54.924  1.00  0.00     0.190 HD
ENDROOT
BRANCH   2   5
HETATM    5  N   UNL     1     -42.131  56.574 -56.696  1.00  0.00    -0.267 N 
HETATM    6  C   UNL     1     -42.192  57.934 -56.930  1.00  0.00     0.240 C 
HETATM    7  O   UNL     1     -42.140  58.771 -56.030  1.00  0.00    -0.272 OA
HETATM    8  H   UNL     1     -42.016  55.889 -57.440  1.00  0.00     0.190 HD
BRANCH   6   9
HETATM    9  C   UNL     1     -42.344  58.310 -58.391  1.00  0.00     0.143 C 
BRANCH   9  10
HETATM   10  C   UNL     1     -43.620  57.807 -59.026  1.00  0.00    -0.049 A 
HETATM   11  C   UNL     1     -43.596  56.812 -60.016  1.00  0.00     0.009 A 
HETATM   12  C   UNL     1     -44.786  56.328 -60.566  1.00  0.00     0.024 A 
HETATM   13  C   UNL     1     -46.008  56.823 -60.120  1.00  0.00     0.034 A 
HETATM   14 CL   UNL     1     -47.472  56.221 -60.791  1.00  0.00    -0.084 Cl
HETATM   15  C   UNL     1     -46.050  57.797 -59.125  1.00  0.00     0.024 A 
HETATM   16  C   UNL     1     -44.861  58.284 -58.578  1.00  0.00     0.009 A 
ENDBRANCH   9  10
ENDBRANCH   6   9
ENDBRANCH   2   5
BRANCH   1  17
HETATM   17  C   UNL     1     -41.631  54.469 -53.718  1.00  0.00     0.158 A 
HETATM   18  C   UNL     1     -40.927  53.254 -53.464  1.00  0.00     0.029 A 
HETATM   19  C   UNL     1     -40.578  52.107 -54.205  1.00  0.00     0.023 A 
HETATM   20  C   UNL     1     -40.538  53.334 -52.131  1.00  0.00     0.063 A 
HETATM   21  C   UNL     1     -39.860  51.071 -53.581  1.00  0.00    -0.061 A 
HETATM   22  C   UNL     1     -39.462  49.850 -54.358  1.00  0.00     0.048 C 
HETATM   23  C   UNL     1     -39.479  51.198 -52.238  1.00  0.00     0.009 A 
HETATM   24  C   UNL     1     -39.813  52.330 -51.486  1.00  0.00     0.032 A 
HETATM   25  N   UNL     1     -41.011  54.538 -51.689  1.00  0.00    -0.277 N 
HETATM   26  H   UNL     1     -40.911  54.932 -50.760  1.00  0.00     0.189 HD
HETATM   27  N   UNL     1     -41.676  55.249 -52.615  1.00  0.00    -0.168 NA
ENDBRANCH   1  17
TORSDOF 4
ENDMDL
MODEL 3
REMARK VINA RESULT:      -8.4      3.368      9.209
REMARK  4 active torsions:
REMARK  status: ('A' for Active; 'I' for Inactive)
REMARK    1  A    between atoms: C_9  and  C_10 
REMARK       I    between atoms: C_10  and  N_11 
REMARK    2  A    between atoms: N_11  and  N_12 
REMARK       I    between atoms: N_12  and  C_13 
REMARK    3  A    between atoms: C_13  and  C_14 
REMARK    4  A    between atoms: C_14  and  C_15 
ROOT
HETATM    1  C   UNL     1     -43.174  56.232 -58.113  1.00  0.00     0.291 C 
HETATM    2  N   UNL     1     -42.972  55.279 -57.132  1.00  0.00    -0.262 N 
HETATM    3  O   UNL     1     -42.561  57.300 -58.134  1.00  0.00    -0.264 OA
HETATM    4  H   UNL     1     -43.375  54.348 -57.264  1.00  0.00     0.190 HD
ENDROOT
BRANCH   2   5
HETATM    5  N   UNL     1     -41.886  55.412 -56.259  1.00  0.00    -0.267 N 
HETATM    6  C   UNL     1     -42.117  55.237 -54.909  1.00  0.00     0.240 C 
HETATM    7  O   UNL     1     -43.245  55.124 -54.431  1.00  0.00    -0.272 OA
HETATM    8  H   UNL     1     -40.959  55.350 -56.675  1.00  0.00     0.190 HD
BRANCH   6   9
HETATM    9  C   UNL     1     -40.861  55.213 -54.059  1.00  0.00     0.143 C 
BRANCH   9  10
HETATM   10  C   UNL     1     -40.533  53.853 -53.486  1.00  0.00    -0.049 A 
HETATM   11  C   UNL     1     -40.240  52.764 -54.321  1.00  0.00     0.009 A 
HETATM   12  C   UNL     1     -39.898  51.523 -53.777  1.00  0.00     0.024 A 
HETATM   13  C   UNL     1     -39.830  51.366 -52.395  1.00  0.00     0.034 A 
HETATM   14 CL   UNL     1     -39.401  49.841 -51.726  1.00  0.00    -0.084 Cl
HETATM   15  C   UNL     1     -40.099  52.442 -51.553  1.00  0.00     0.024 A 
HETATM   16  C   UNL     1     -40.446  53.681 -52.096  1.00  0.00     0.009 A 
ENDBRANCH   9  10
ENDBRANCH   6   9
ENDBRANCH   2   5
BRANCH   1  17
HETATM   17  C   UNL     1     -44.168  55.832 -59.117  1.00  0.00     0.158 A 
HETATM   18  C   UNL     1     -45.265  56.599 -59.609  1.00  0.00     0.029 A 
HETATM   19  C   UNL     1     -45.794  57.885 -59.374  1.00  0.00     0.023 A 
HETATM   20  C   UNL     1     -45.890  55.780 -60.542  1.00  0.00     0.063 A 
HETATM   21  C   UNL     1     -46.940  58.301 -60.073  1.00  0.00    -0.061 A 
HETATM   22  C   UNL     1     -47.507  59.674 -59.850  1.00  0.00     0.048 C 
HETATM   23  C   UNL     1     -47.532  57.446 -61.012  1.00  0.00     0.009 A 
HETATM   24  C   UNL     1     -47.022  56.168 -61.263  1.00  0.00     0.032 A 
HETATM   25  N   UNL     1     -45.163  54.622 -60.551  1.00  0.00    -0.277 N 
HETATM   26  H   UNL     1     -45.330  53.798 -61.116  1.00  0.00     0.189 HD
HETATM   27  N   UNL     1     -44.120  54.615 -59.705  1.00  0.00    -0.168 NA
ENDBRANCH   1  17
TORSDOF 4
ENDMDL
MODEL 4
REMARK VINA RESULT:      -8.1      3.542      8.778
REMARK  4 active torsions:
REMARK  status: ('A' for Active; 'I' for Inactive)
REMARK    1  A    between atoms: C_9  and  C_10 
REMARK       I    between atoms: C_10  and  N_11 
REMARK    2  A    between atoms: N_11  and  N_12 
REMARK       I    between atoms: N_12  and  C_13 
REMARK    3  A    between atoms: C_13  and  C_14 
REMARK    4  A    between atoms: C_14  and  C_15 
ROOT
HETATM    1  C   UNL     1     -43.089  57.485 -56.409  1.00  0.00     0.291 C 
HETATM    2  N   UNL     1     -42.884  56.119 -56.364  1.00  0.00    -0.262 N 
HETATM    3  O   UNL     1     -42.284  58.292 -55.941  1.00  0.00    -0.264 OA
HETATM    4  H   UNL     1     -43.494  55.514 -56.919  1.00  0.00     0.190 HD
ENDROOT
BRANCH   2   5
HETATM    5  N   UNL     1     -41.630  55.626 -55.986  1.00  0.00    -0.267 N 
HETATM    6  C   UNL     1     -41.583  54.406 -55.340  1.00  0.00     0.240 C 
HETATM    7  O   UNL     1     -42.589  53.814 -54.952  1.00  0.00    -0.272 OA
HETATM    8  H   UNL     1     -40.822  56.041 -56.444  1.00  0.00     0.190 HD
BRANCH   6   9
HETATM    9  C   UNL     1     -40.183  53.861 -55.136  1.00  0.00     0.143 C 
BRANCH   9  10
HETATM   10  C   UNL     1     -40.076  52.836 -54.030  1.00  0.00    -0.049 A 
HETATM   11  C   UNL     1     -39.883  51.476 -54.317  1.00  0.00     0.009 A 
HETATM   12  C   UNL     1     -39.746  50.544 -53.284  1.00  0.00     0.024 A 
HETATM   13  C   UNL     1     -39.783  50.968 -51.959  1.00  0.00     0.034 A 
HETATM   14 CL   UNL     1     -39.605  49.822 -50.688  1.00  0.00    -0.084 Cl
HETATM   15  C   UNL     1     -39.955  52.316 -51.657  1.00  0.00     0.024 A 
HETATM   16  C   UNL     1     -40.097  53.248 -52.689  1.00  0.00     0.009 A 
ENDBRANCH   9  10
ENDBRANCH   6   9
ENDBRANCH   2   5
BRANCH   1  17
HETATM   17  C   UNL     1     -44.342  57.863 -57.076  1.00  0.00     0.158 A 
HETATM   18  C   UNL     1     -44.891  57.311 -58.271  1.00  0.00     0.029 A 
HETATM   19  C   UNL     1     -44.519  56.315 -59.197  1.00  0.00     0.023 A 
HETATM   20  C   UNL     1     -46.082  58.001 -58.474  1.00  0.00     0.063 A 
HETATM   21  C   UNL     1     -45.347  56.051 -60.301  1.00  0.00    -0.061 A 
HETATM   22  C   UNL     1     -44.977  54.980 -61.287  1.00  0.00     0.048 C 
HETATM   23  C   UNL     1     -46.544  56.762 -60.461  1.00  0.00     0.009 A 
HETATM   24  C   UNL     1     -46.934  57.753 -59.553  1.00  0.00     0.032 A 
HETATM   25  N   UNL     1     -46.170  58.883 -57.434  1.00  0.00    -0.277 N 
HETATM   26  H   UNL     1     -46.912  59.550 -57.256  1.00  0.00     0.189 HD
HETATM   27  N   UNL     1     -45.140  58.832 -56.573  1.00  0.00    -0.168 NA
ENDBRANCH   1  17
TORSDOF 4
ENDMDL
MODEL 5
REMARK VINA RESULT:      -8.0      2.391      2.795
REMARK  4 active torsions:
REMARK  status: ('A' for Active; 'I' for Inactive)
REMARK    1  A    between atoms: C_9  and  C_10 
REMARK       I    between atoms: C_10  and  N_11 
REMARK    2  A    between atoms: N_11  and  N_12 
REMARK       I    between atoms: N_12  and  C_13 
REMARK    3  A    between atoms: C_13  and  C_14 
REMARK    4  A    between atoms: C_14  and  C_15 
ROOT
HETATM    1  C   UNL     1     -43.028  54.739 -54.701  1.00  0.00     0.291 C 
HETATM    2  N   UNL     1     -43.378  56.074 -54.789  1.00  0.00    -0.262 N 
HETATM    3  O   UNL     1     -43.419  53.898 -55.511  1.00  0.00    -0.264 OA
HETATM    4  H   UNL     1     -42.885  56.749 -54.198  1.00  0.00     0.190 HD
ENDROOT
BRANCH   2   5
HETATM    5  N   UNL     1     -44.007  56.544 -55.947  1.00  0.00    -0.267 N 
HETATM    6  C   UNL     1     -43.213  57.077 -56.943  1.00  0.00     0.240 C 
HETATM    7  O   UNL     1     -42.011  57.296 -56.796  1.00  0.00    -0.272 OA
HETATM    8  H   UNL     1     -44.957  56.218 -56.112  1.00  0.00     0.190 HD
BRANCH   6   9
HETATM    9  C   UNL     1     -43.950  57.386 -58.231  1.00  0.00     0.143 C 
BRANCH   9  10
HETATM   10  C   UNL     1     -43.312  58.479 -59.059  1.00  0.00    -0.049 A 
HETATM   11  C   UNL     1     -43.452  59.830 -58.709  1.00  0.00     0.009 A 
HETATM   12  C   UNL     1     -42.824  60.828 -59.460  1.00  0.00     0.024 A 
HETATM   13  C   UNL     1     -42.037  60.480 -60.554  1.00  0.00     0.034 A 
HETATM   14 CL   UNL     1     -41.257  61.707 -61.473  1.00  0.00    -0.084 Cl
HETATM   15  C   UNL     1     -41.872  59.142 -60.903  1.00  0.00     0.024 A 
HETATM   16  C   UNL     1     -42.504  58.145 -60.156  1.00  0.00     0.009 A 
ENDBRANCH   9  10
ENDBRANCH   6   9
ENDBRANCH   2   5
BRANCH   1  17
HETATM   17  C   UNL     1     -42.143  54.444 -53.567  1.00  0.00     0.158 A 
HETATM   18  C   UNL     1     -41.274  53.323 -53.410  1.00  0.00     0.029 A 
HETATM   19  C   UNL     1     -40.945  52.178 -54.164  1.00  0.00     0.023 A 
HETATM   20  C   UNL     1     -40.655  53.515 -52.180  1.00  0.00     0.063 A 
HETATM   21  C   UNL     1     -40.014  51.257 -53.654  1.00  0.00    -0.061 A 
HETATM   22  C   UNL     1     -39.636  50.041 -54.451  1.00  0.00     0.048 C 
HETATM   23  C   UNL     1     -39.406  51.495 -52.415  1.00  0.00     0.009 A 
HETATM   24  C   UNL     1     -39.716  52.626 -51.652  1.00  0.00     0.032 A 
HETATM   25  N   UNL     1     -41.166  54.687 -51.697  1.00  0.00    -0.277 N 
HETATM   26  H   UNL     1     -40.939  55.139 -50.819  1.00  0.00     0.189 HD
HETATM   27  N   UNL     1     -42.067  55.275 -52.502  1.00  0.00    -0.168 NA
ENDBRANCH   1  17
TORSDOF 4
ENDMDL
MODEL 6
REMARK VINA RESULT:      -7.7      3.246      3.908
REMARK  4 active torsions:
REMARK  status: ('A' for Active; 'I' for Inactive)
REMARK    1  A    between atoms: C_9  and  C_10 
REMARK       I    between atoms: C_10  and  N_11 
REMARK    2  A    between atoms: N_11  and  N_12 
REMARK       I    between atoms: N_12  and  C_13 
REMARK    3  A    between atoms: C_13  and  C_14 
REMARK    4  A    between atoms: C_14  and  C_15 
ROOT
HETATM    1  C   UNL     1     -42.583  56.498 -52.189  1.00  0.00     0.291 C 
HETATM    2  N   UNL     1     -42.173  57.810 -52.039  1.00  0.00    -0.262 N 
HETATM    3  O   UNL     1     -43.495  56.172 -52.950  1.00  0.00    -0.264 OA
HETATM    4  H   UNL     1     -41.304  57.995 -51.533  1.00  0.00     0.190 HD
ENDROOT
BRANCH   2   5
HETATM    5  N   UNL     1     -42.638  58.780 -52.933  1.00  0.00    -0.267 N 
HETATM    6  C   UNL     1     -41.712  59.418 -53.735  1.00  0.00     0.240 C 
HETATM    7  O   UNL     1     -40.498  59.283 -53.594  1.00  0.00    -0.272 OA
HETATM    8  H   UNL     1     -43.634  58.765 -53.142  1.00  0.00     0.190 HD
BRANCH   6   9
HETATM    9  C   UNL     1     -42.318  60.312 -54.799  1.00  0.00     0.143 C 
BRANCH   9  10
HETATM   10  C   UNL     1     -42.244  59.743 -56.198  1.00  0.00    -0.049 A 
HETATM   11  C   UNL     1     -41.835  60.533 -57.283  1.00  0.00     0.009 A 
HETATM   12  C   UNL     1     -41.732  59.984 -58.564  1.00  0.00     0.024 A 
HETATM   13  C   UNL     1     -42.020  58.637 -58.766  1.00  0.00     0.034 A 
HETATM   14 CL   UNL     1     -41.884  57.959 -60.340  1.00  0.00    -0.084 Cl
HETATM   15  C   UNL     1     -42.408  57.834 -57.696  1.00  0.00     0.024 A 
HETATM   16  C   UNL     1     -42.516  58.384 -56.416  1.00  0.00     0.009 A 
ENDBRANCH   9  10
ENDBRANCH   6   9
ENDBRANCH   2   5
BRANCH   1  17
HETATM   17  C   UNL     1     -41.816  55.552 -51.368  1.00  0.00     0.158 A 
HETATM   18  C   UNL     1     -41.185  54.345 -51.792  1.00  0.00     0.029 A 
HETATM   19  C   UNL     1     -41.051  53.639 -53.005  1.00  0.00     0.023 A 
HETATM   20  C   UNL     1     -40.590  53.827 -50.648  1.00  0.00     0.063 A 
HETATM   21  C   UNL     1     -40.335  52.430 -53.028  1.00  0.00    -0.061 A 
HETATM   22  C   UNL     1     -40.165  51.674 -54.314  1.00  0.00     0.048 C 
HETATM   23  C   UNL     1     -39.742  51.950 -51.853  1.00  0.00     0.009 A 
HETATM   24  C   UNL     1     -39.859  52.636 -50.640  1.00  0.00     0.032 A 
HETATM   25  N   UNL     1     -40.886  54.715 -49.652  1.00  0.00    -0.277 N 
HETATM   26  H   UNL     1     -40.612  54.658 -48.678  1.00  0.00     0.189 HD
HETATM   27  N   UNL     1     -41.625  55.765 -50.047  1.00  0.00    -0.168 NA
ENDBRANCH   1  17
TORSDOF 4
ENDMDL
MODEL 7
REMARK VINA RESULT:      -7.7      1.685      2.701
REMARK  4 active torsions:
REMARK  status: ('A' for Active; 'I' for Inactive)
REMARK    1  A    between atoms: C_9  and  C_10 
REMARK       I    between atoms: C_10  and  N_11 
REMARK    2  A    between atoms: N_11  and  N_12 
REMARK       I    between atoms: N_12  and  C_13 
REMARK    3  A    between atoms: C_13  and  C_14 
REMARK    4  A    between atoms: C_14  and  C_15 
ROOT
HETATM    1  C   UNL     1     -41.984  54.301 -55.126  1.00  0.00     0.291 C 
HETATM    2  N   UNL     1     -41.317  55.461 -55.475  1.00  0.00    -0.262 N 
HETATM    3  O   UNL     1     -43.087  54.007 -55.586  1.00  0.00    -0.264 OA
HETATM    4  H   UNL     1     -40.338  55.564 -55.201  1.00  0.00     0.190 HD
ENDROOT
BRANCH   2   5
HETATM    5  N   UNL     1     -41.787  56.225 -56.550  1.00  0.00    -0.267 N 
HETATM    6  C   UNL     1     -42.421  57.418 -56.266  1.00  0.00     0.240 C 
HETATM    7  O   UNL     1     -42.724  57.761 -55.125  1.00  0.00    -0.272 OA
HETATM    8  H   UNL     1     -41.398  56.008 -57.465  1.00  0.00     0.190 HD
BRANCH   6   9
HETATM    9  C   UNL     1     -42.729  58.266 -57.485  1.00  0.00     0.143 C 
BRANCH   9  10
HETATM   10  C   UNL     1     -43.898  57.768 -58.303  1.00  0.00    -0.049 A 
HETATM   11  C   UNL     1     -43.712  56.872 -59.366  1.00  0.00     0.009 A 
HETATM   12  C   UNL     1     -44.806  56.388 -60.088  1.00  0.00     0.024 A 
HETATM   13  C   UNL     1     -46.095  56.783 -59.742  1.00  0.00     0.034 A 
HETATM   14 CL   UNL     1     -47.442  56.181 -60.625  1.00  0.00    -0.084 Cl
HETATM   15  C   UNL     1     -46.299  57.657 -58.677  1.00  0.00     0.024 A 
HETATM   16  C   UNL     1     -45.205  58.145 -57.958  1.00  0.00     0.009 A 
ENDBRANCH   9  10
ENDBRANCH   6   9
ENDBRANCH   2   5
BRANCH   1  17
HETATM   17  C   UNL     1     -41.237  53.466 -54.175  1.00  0.00     0.158 A 
HETATM   18  C   UNL     1     -41.027  53.706 -52.785  1.00  0.00     0.029 A 
HETATM   19  C   UNL     1     -41.387  54.707 -51.860  1.00  0.00     0.023 A 
HETATM   20  C   UNL     1     -40.273  52.625 -52.342  1.00  0.00     0.063 A 
HETATM   21  C   UNL     1     -40.968  54.597 -50.523  1.00  0.00    -0.061 A 
HETATM   22  C   UNL     1     -41.358  55.643 -49.518  1.00  0.00     0.048 C 
HETATM   23  C   UNL     1     -40.218  53.485 -50.116  1.00  0.00     0.009 A 
HETATM   24  C   UNL     1     -39.853  52.479 -51.017  1.00  0.00     0.032 A 
HETATM   25  N   UNL     1     -40.086  51.838 -53.443  1.00  0.00    -0.277 N 
HETATM   26  H   UNL     1     -39.581  50.961 -53.492  1.00  0.00     0.189 HD
HETATM   27  N   UNL     1     -40.650  52.312 -54.567  1.00  0.00    -0.168 NA
ENDBRANCH   1  17
TORSDOF 4
ENDMDL
MODEL 8
REMARK VINA RESULT:      -7.7      3.472      8.332
REMARK  4 active torsions:
REMARK  status: ('A' for Active; 'I' for Inactive)
REMARK    1  A    between atoms: C_9  and  C_10 
REMARK       I    between atoms: C_10  and  N_11 
REMARK    2  A    between atoms: N_11  and  N_12 
REMARK       I    between atoms: N_12  and  C_13 
REMARK    3  A    between atoms: C_13  and  C_14 
REMARK    4  A    between atoms: C_14  and  C_15 
ROOT
HETATM    1  C   UNL     1     -43.118  58.184 -55.120  1.00  0.00     0.291 C 
HETATM    2  N   UNL     1     -43.327  57.407 -53.995  1.00  0.00    -0.262 N 
HETATM    3  O   UNL     1     -42.016  58.656 -55.403  1.00  0.00    -0.264 OA
HETATM    4  H   UNL     1     -44.212  56.901 -53.908  1.00  0.00     0.190 HD
ENDROOT
BRANCH   2   5
HETATM    5  N   UNL     1     -42.226  56.944 -53.267  1.00  0.00    -0.267 N 
HETATM    6  C   UNL     1     -42.334  55.719 -52.639  1.00  0.00     0.240 C 
HETATM    7  O   UNL     1     -43.392  55.096 -52.564  1.00  0.00    -0.272 OA
HETATM    8  H   UNL     1     -41.331  57.387 -53.467  1.00  0.00     0.190 HD
BRANCH   6   9
HETATM    9  C   UNL     1     -41.040  55.211 -52.034  1.00  0.00     0.143 C 
BRANCH   9  10
HETATM   10  C   UNL     1     -40.576  53.887 -52.596  1.00  0.00    -0.049 A 
HETATM   11  C   UNL     1     -40.148  52.850 -51.753  1.00  0.00     0.009 A 
HETATM   12  C   UNL     1     -39.760  51.617 -52.283  1.00  0.00     0.024 A 
HETATM   13  C   UNL     1     -39.813  51.406 -53.658  1.00  0.00     0.034 A 
HETATM   14 CL   UNL     1     -39.343  49.885 -54.311  1.00  0.00    -0.084 Cl
HETATM   15  C   UNL     1     -40.253  52.418 -54.507  1.00  0.00     0.024 A 
HETATM   16  C   UNL     1     -40.637  53.653 -53.978  1.00  0.00     0.009 A 
ENDBRANCH   9  10
ENDBRANCH   6   9
ENDBRANCH   2   5
BRANCH   1  17
HETATM   17  C   UNL     1     -44.327  58.367 -55.933  1.00  0.00     0.158 A 
HETATM   18  C   UNL     1     -44.636  57.753 -57.183  1.00  0.00     0.029 A 
HETATM   19  C   UNL     1     -44.002  56.844 -58.054  1.00  0.00     0.023 A 
HETATM   20  C   UNL     1     -45.890  58.246 -57.528  1.00  0.00     0.063 A 
HETATM   21  C   UNL     1     -44.642  56.468 -59.248  1.00  0.00    -0.061 A 
HETATM   22  C   UNL     1     -43.991  55.485 -60.179  1.00  0.00     0.048 C 
HETATM   23  C   UNL     1     -45.909  56.981 -59.551  1.00  0.00     0.009 A 
HETATM   24  C   UNL     1     -46.558  57.882 -58.700  1.00  0.00     0.032 A 
HETATM   25  N   UNL     1     -46.240  59.087 -56.509  1.00  0.00    -0.277 N 
HETATM   26  H   UNL     1     -47.096  59.624 -56.423  1.00  0.00     0.189 HD
HETATM   27  N   UNL     1     -45.324  59.188 -55.531  1.00  0.00    -0.168 NA
ENDBRANCH   1  17
TORSDOF 4
ENDMDL
MODEL 9
REMARK VINA RESULT:      -7.5      2.942      3.531
REMARK  4 active torsions:
REMARK  status: ('A' for Active; 'I' for Inactive)
REMARK    1  A    between atoms: C_9  and  C_10 
REMARK       I    between atoms: C_10  and  N_11 
REMARK    2  A    between atoms: N_11  and  N_12 
REMARK       I    between atoms: N_12  and  C_13 
REMARK    3  A    between atoms: C_13  and  C_14 
REMARK    4  A    between atoms: C_14  and  C_15 
ROOT
HETATM    1  C   UNL     1     -42.634  54.950 -54.565  1.00  0.00     0.291 C 
HETATM    2  N   UNL     1     -42.563  56.322 -54.725  1.00  0.00    -0.262 N 
HETATM    3  O   UNL     1     -43.265  54.226 -55.335  1.00  0.00    -0.264 OA
HETATM    4  H   UNL     1     -41.886  56.845 -54.164  1.00  0.00     0.190 HD
ENDROOT
BRANCH   2   5
HETATM    5  N   UNL     1     -43.023  56.899 -55.914  1.00  0.00    -0.267 N 
HETATM    6  C   UNL     1     -44.222  57.581 -55.879  1.00  0.00     0.240 C 
HETATM    7  O   UNL     1     -44.969  57.575 -54.901  1.00  0.00    -0.272 OA
HETATM    8  H   UNL     1     -42.335  57.026 -56.653  1.00  0.00     0.190 HD
BRANCH   6   9
HETATM    9  C   UNL     1     -44.552  58.330 -57.156  1.00  0.00     0.143 C 
BRANCH   9  10
HETATM   10  C   UNL     1     -43.497  59.328 -57.574  1.00  0.00    -0.049 A 
HETATM   11  C   UNL     1     -43.064  60.337 -56.699  1.00  0.00     0.009 A 
HETATM   12  C   UNL     1     -42.059  61.228 -57.084  1.00  0.00     0.024 A 
HETATM   13  C   UNL     1     -41.468  61.108 -58.339  1.00  0.00     0.034 A 
HETATM   14 CL   UNL     1     -40.225  62.199 -58.809  1.00  0.00    -0.084 Cl
HETATM   15  C   UNL     1     -41.873  60.101 -59.211  1.00  0.00     0.024 A 
HETATM   16  C   UNL     1     -42.881  59.212 -58.829  1.00  0.00     0.009 A 
ENDBRANCH   9  10
ENDBRANCH   6   9
ENDBRANCH   2   5
BRANCH   1  17
HETATM   17  C   UNL     1     -41.876  54.460 -53.406  1.00  0.00     0.158 A 
HETATM   18  C   UNL     1     -41.116  53.257 -53.310  1.00  0.00     0.029 A 
HETATM   19  C   UNL     1     -40.815  52.173 -54.160  1.00  0.00     0.023 A 
HETATM   20  C   UNL     1     -40.592  53.262 -52.022  1.00  0.00     0.063 A 
HETATM   21  C   UNL     1     -40.007  51.125 -53.686  1.00  0.00    -0.061 A 
HETATM   22  C   UNL     1     -39.659  49.972 -54.583  1.00  0.00     0.048 C 
HETATM   23  C   UNL     1     -39.491  51.176 -52.385  1.00  0.00     0.009 A 
HETATM   24  C   UNL     1     -39.775  52.243 -51.526  1.00  0.00     0.032 A 
HETATM   25  N   UNL     1     -41.049  54.417 -51.451  1.00  0.00    -0.277 N 
HETATM   26  H   UNL     1     -40.863  54.752 -50.513  1.00  0.00     0.189 HD
HETATM   27  N   UNL     1     -41.827  55.164 -52.253  1.00  0.00    -0.168 NA
ENDBRANCH   1  17
TORSDOF 4
ENDMDL
MODEL 10
REMARK VINA RESULT:      -7.5      2.888      3.872
REMARK  4 active torsions:
REMARK  status: ('A' for Active; 'I' for Inactive)
REMARK    1  A    between atoms: C_9  and  C_10 
REMARK       I    between atoms: C_10  and  N_11 
REMARK    2  A    between atoms: N_11  and  N_12 
REMARK       I    between atoms: N_12  and  C_13 
REMARK    3  A    between atoms: C_13  and  C_14 
REMARK    4  A    between atoms: C_14  and  C_15 
ROOT
HETATM    1  C   UNL     1     -41.148  55.786 -54.719  1.00  0.00     0.291 C 
HETATM    2  N   UNL     1     -41.578  55.684 -56.029  1.00  0.00    -0.262 N 
HETATM    3  O   UNL     1     -41.151  56.852 -54.102  1.00  0.00    -0.264 OA
HETATM    4  H   UNL     1     -41.718  54.752 -56.427  1.00  0.00     0.190 HD
ENDROOT
BRANCH   2   5
HETATM    5  N   UNL     1     -42.250  56.762 -56.616  1.00  0.00    -0.267 N 
HETATM    6  C   UNL     1     -43.129  56.493 -57.646  1.00  0.00     0.240 C 
HETATM    7  O   UNL     1     -43.232  55.383 -58.166  1.00  0.00    -0.272 OA
HETATM    8  H   UNL     1     -42.271  57.629 -56.083  1.00  0.00     0.190 HD
BRANCH   6   9
HETATM    9  C   UNL     1     -43.949  57.686 -58.095  1.00  0.00     0.143 C 
BRANCH   9  10
HETATM   10  C   UNL     1     -43.169  58.704 -58.896  1.00  0.00    -0.049 A 
HETATM   11  C   UNL     1     -42.647  58.388 -60.160  1.00  0.00     0.009 A 
HETATM   12  C   UNL     1     -41.963  59.350 -60.908  1.00  0.00     0.024 A 
HETATM   13  C   UNL     1     -41.809  60.639 -60.404  1.00  0.00     0.034 A 
HETATM   14 CL   UNL     1     -40.974  61.826 -61.328  1.00  0.00    -0.084 Cl
HETATM   15  C   UNL     1     -42.337  60.974 -59.160  1.00  0.00     0.024 A 
HETATM   16  C   UNL     1     -43.018  60.011 -58.410  1.00  0.00     0.009 A 
ENDBRANCH   9  10
ENDBRANCH   6   9
ENDBRANCH   2   5
BRANCH   1  17
HETATM   17  C   UNL     1     -40.711  54.504 -54.150  1.00  0.00     0.158 A 
HETATM   18  C   UNL     1     -40.667  54.134 -52.773  1.00  0.00     0.029 A 
HETATM   19  C   UNL     1     -40.972  54.753 -51.543  1.00  0.00     0.023 A 
HETATM   20  C   UNL     1     -40.193  52.827 -52.765  1.00  0.00     0.063 A 
HETATM   21  C   UNL     1     -40.781  54.043 -50.345  1.00  0.00    -0.061 A 
HETATM   22  C   UNL     1     -41.119  54.678 -49.026  1.00  0.00     0.048 C 
HETATM   23  C   UNL     1     -40.311  52.724 -50.384  1.00  0.00     0.009 A 
HETATM   24  C   UNL     1     -40.005  52.091 -51.593  1.00  0.00     0.032 A 
HETATM   25  N   UNL     1     -39.991  52.508 -54.078  1.00  0.00    -0.277 N 
HETATM   26  H   UNL     1     -39.650  51.629 -54.451  1.00  0.00     0.189 HD
HETATM   27  N   UNL     1     -40.290  53.493 -54.942  1.00  0.00    -0.168 NA
ENDBRANCH   1  17
TORSDOF 4
ENDMDL
