MODEL 1
REMARK VINA RESULT:      -9.0      0.000      0.000
REMARK  6 active torsions:
REMARK  status: ('A' for Active; 'I' for Inactive)
REMARK    1  A    between atoms: C_2  and  O_3 
REMARK    2  A    between atoms: C_2  and  C_4 
REMARK    3  A    between atoms: C_6  and  N_7 
REMARK       I    between atoms: N_7  and  C_8 
REMARK    4  A    between atoms: C_8  and  C_9 
REMARK    5  A    between atoms: C_12  and  C_13 
REMARK    6  A    between atoms: C_18  and  C_19 
ROOT
HETATM    1  C   UNL     1     -42.474  56.240 -54.770  1.00  0.00     0.096 C 
HETATM    2  C   UNL     1     -42.635  56.912 -55.968  1.00  0.00     0.138 C 
HETATM    3  N   UNL     1     -43.733  57.726 -55.796  1.00  0.00    -0.240 N 
HETATM    4  C   UNL     1     -44.272  58.606 -56.817  1.00  0.00     0.221 C 
HETATM    5  C   UNL     1     -43.237  58.809 -57.938  1.00  0.00     0.066 C 
HETATM    6  C   UNL     1     -42.588  57.479 -58.350  1.00  0.00     0.118 C 
HETATM    7  N   UNL     1     -41.975  56.864 -57.161  1.00  0.00    -0.365 N 
HETATM    8  N   UNL     1     -44.389  57.498 -54.648  1.00  0.00    -0.181 NA
HETATM    9  C   UNL     1     -43.610  56.616 -54.016  1.00  0.00     0.160 C 
HETATM   10  H   UNL     1     -41.459  56.013 -57.395  1.00  0.00     0.161 HD
ENDROOT
BRANCH   1  11
HETATM   11  C   UNL     1     -41.427  55.324 -54.352  1.00  0.00     0.261 C 
HETATM   12  N   UNL     1     -41.798  54.519 -53.290  1.00  0.00    -0.323 N 
HETATM   13  H   UNL     1     -42.761  54.619 -52.988  1.00  0.00     0.169 HD
HETATM   14  O   UNL     1     -40.363  55.280 -54.957  1.00  0.00    -0.267 OA
BRANCH  12  15
HETATM   15  C   UNL     1     -41.055  53.480 -52.696  1.00  0.00     0.035 A 
HETATM   16  C   UNL     1     -40.556  52.379 -53.399  1.00  0.00     0.039 A 
HETATM   17  C   UNL     1     -39.848  51.357 -52.741  1.00  0.00    -0.028 A 
HETATM   18  C   UNL     1     -39.652  51.451 -51.356  1.00  0.00     0.010 A 
HETATM   19  C   UNL     1     -40.129  52.554 -50.651  1.00  0.00     0.003 A 
HETATM   20  C   UNL     1     -40.821  53.566 -51.320  1.00  0.00     0.029 A 
BRANCH  17  21
HETATM   21  C   UNL     1     -39.350  50.163 -53.528  1.00  0.00     0.147 C 
HETATM   22  C   UNL     1     -40.181  49.919 -54.779  1.00  0.00     0.044 C 
BRANCH  21  23
HETATM   23  O   UNL     1     -39.373  48.985 -52.722  1.00  0.00    -0.391 OA
HETATM   24  H   UNL     1     -39.076  48.254 -53.290  1.00  0.00     0.210 HD
ENDBRANCH  21  23
ENDBRANCH  17  21
ENDBRANCH  12  15
ENDBRANCH   1  11
BRANCH   4  25
HETATM   25  C   UNL     1     -44.666  59.952 -56.247  1.00  0.00     0.409 C 
HETATM   26  F   UNL     1     -45.885  59.965 -55.672  1.00  0.00    -0.169 F 
HETATM   27  F   UNL     1     -43.765  60.411 -55.349  1.00  0.00    -0.169 F 
HETATM   28  F   UNL     1     -44.711  60.872 -57.249  1.00  0.00    -0.169 F 
ENDBRANCH   4  25
BRANCH   6  29
HETATM   29  C   UNL     1     -43.549  56.562 -59.098  1.00  0.00    -0.035 A 
HETATM   30  C   UNL     1     -43.522  55.182 -58.816  1.00  0.00     0.009 A 
HETATM   31  C   UNL     1     -44.354  54.289 -59.496  1.00  0.00     0.001 A 
HETATM   32  C   UNL     1     -45.237  54.758 -60.463  1.00  0.00     0.000 A 
HETATM   33  C   UNL     1     -45.289  56.118 -60.748  1.00  0.00     0.001 A 
HETATM   34  C   UNL     1     -44.455  57.012 -60.071  1.00  0.00     0.009 A 
ENDBRANCH   6  29
TORSDOF 6
ENDMDL
MODEL 2
REMARK VINA RESULT:      -8.8      3.246      8.011
REMARK  6 active torsions:
REMARK  status: ('A' for Active; 'I' for Inactive)
REMARK    1  A    between atoms: C_2  and  O_3 
REMARK    2  A    between atoms: C_2  and  C_4 
REMARK    3  A    between atoms: C_6  and  N_7 
REMARK       I    between atoms: N_7  and  C_8 
REMARK    4  A    between atoms: C_8  and  C_9 
REMARK    5  A    between atoms: C_12  and  C_13 
REMARK    6  A    between atoms: C_18  and  C_19 
ROOT
HETATM    1  C   UNL     1     -43.069  57.359 -55.001  1.00  0.00     0.096 C 
HETATM    2  C   UNL     1     -42.927  56.575 -53.870  1.00  0.00     0.138 C 
HETATM    3  N   UNL     1     -41.928  57.166 -53.129  1.00  0.00    -0.240 N 
HETATM    4  C   UNL     1     -41.439  56.661 -51.859  1.00  0.00     0.221 C 
HETATM    5  C   UNL     1     -42.440  55.649 -51.273  1.00  0.00     0.066 C 
HETATM    6  C   UNL     1     -42.930  54.662 -52.342  1.00  0.00     0.118 C 
HETATM    7  N   UNL     1     -43.527  55.423 -53.452  1.00  0.00    -0.365 N 
HETATM    8  N   UNL     1     -41.301  58.160 -53.777  1.00  0.00    -0.181 NA
HETATM    9  C   UNL     1     -42.012  58.293 -54.901  1.00  0.00     0.160 C 
HETATM   10  H   UNL     1     -43.942  54.810 -54.157  1.00  0.00     0.161 HD
ENDROOT
BRANCH   1  11
HETATM   11  C   UNL     1     -44.033  57.263 -56.084  1.00  0.00     0.261 C 
HETATM   12  N   UNL     1     -43.519  56.668 -57.221  1.00  0.00    -0.323 N 
HETATM   13  H   UNL     1     -42.571  56.317 -57.135  1.00  0.00     0.169 HD
HETATM   14  O   UNL     1     -45.188  57.640 -55.922  1.00  0.00    -0.267 OA
BRANCH  12  15
HETATM   15  C   UNL     1     -44.202  56.355 -58.413  1.00  0.00     0.035 A 
HETATM   16  C   UNL     1     -45.243  57.126 -58.939  1.00  0.00     0.039 A 
HETATM   17  C   UNL     1     -45.908  56.741 -60.119  1.00  0.00    -0.028 A 
HETATM   18  C   UNL     1     -45.517  55.559 -60.762  1.00  0.00     0.010 A 
HETATM   19  C   UNL     1     -44.468  54.795 -60.255  1.00  0.00     0.003 A 
HETATM   20  C   UNL     1     -43.810  55.195 -59.090  1.00  0.00     0.029 A 
BRANCH  17  21
HETATM   21  C   UNL     1     -47.052  57.583 -60.643  1.00  0.00     0.147 C 
HETATM   22  C   UNL     1     -47.944  56.801 -61.596  1.00  0.00     0.044 C 
BRANCH  21  23
HETATM   23  O   UNL     1     -46.557  58.738 -61.318  1.00  0.00    -0.391 OA
HETATM   24  H   UNL     1     -46.056  58.417 -62.087  1.00  0.00     0.210 HD
ENDBRANCH  21  23
ENDBRANCH  17  21
ENDBRANCH  12  15
ENDBRANCH   1  11
BRANCH   4  25
HETATM   25  C   UNL     1     -41.211  57.776 -50.862  1.00  0.00     0.409 C 
HETATM   26  F   UNL     1     -40.020  58.394 -50.997  1.00  0.00    -0.169 F 
HETATM   27  F   UNL     1     -42.185  58.714 -50.910  1.00  0.00    -0.169 F 
HETATM   28  F   UNL     1     -41.231  57.267 -49.599  1.00  0.00    -0.169 F 
ENDBRANCH   4  25
BRANCH   6  29
HETATM   29  C   UNL     1     -41.849  53.678 -52.776  1.00  0.00    -0.035 A 
HETATM   30  C   UNL     1     -40.981  53.154 -51.797  1.00  0.00     0.009 A 
HETATM   31  C   UNL     1     -39.949  52.277 -52.140  1.00  0.00     0.001 A 
HETATM   32  C   UNL     1     -39.770  51.898 -53.466  1.00  0.00     0.000 A 
HETATM   33  C   UNL     1     -40.623  52.393 -54.447  1.00  0.00     0.001 A 
HETATM   34  C   UNL     1     -41.654  53.273 -54.106  1.00  0.00     0.009 A 
ENDBRANCH   6  29
TORSDOF 6
ENDMDL
MODEL 3
REMARK VINA RESULT:      -8.8      1.215      1.347
REMARK  6 active torsions:
REMARK  status: ('A' for Active; 'I' for Inactive)
REMARK    1  A    between atoms: C_2  and  O_3 
REMARK    2  A    between atoms: C_2  and  C_4 
REMARK    3  A    between atoms: C_6  and  N_7 
REMARK       I    between atoms: N_7  and  C_8 
REMARK    4  A    between atoms: C_8  and  C_9 
REMARK    5  A    between atoms: C_12  and  C_13 
REMARK    6  A    between atoms: C_18  and  C_19 
ROOT
HETATM    1  C   UNL     1     -43.016  56.235 -54.586  1.00  0.00     0.096 C 
HETATM    2  C   UNL     1     -42.762  56.652 -55.879  1.00  0.00     0.138 C 
HETATM    3  N   UNL     1     -43.154  57.972 -55.930  1.00  0.00    -0.240 N 
HETATM    4  C   UNL     1     -43.076  58.807 -57.115  1.00  0.00     0.221 C 
HETATM    5  C   UNL     1     -42.140  58.163 -58.154  1.00  0.00     0.066 C 
HETATM    6  C   UNL     1     -42.420  56.661 -58.304  1.00  0.00     0.118 C 
HETATM    7  N   UNL     1     -42.278  56.019 -56.986  1.00  0.00    -0.365 N 
HETATM    8  N   UNL     1     -43.800  58.378 -54.826  1.00  0.00    -0.181 NA
HETATM    9  C   UNL     1     -43.693  57.332 -54.002  1.00  0.00     0.160 C 
HETATM   10  H   UNL     1     -42.375  55.003 -57.044  1.00  0.00     0.161 HD
ENDROOT
BRANCH   1  11
HETATM   11  C   UNL     1     -42.717  54.967 -53.942  1.00  0.00     0.261 C 
HETATM   12  N   UNL     1     -41.370  54.790 -53.685  1.00  0.00    -0.323 N 
HETATM   13  H   UNL     1     -40.779  55.582 -53.910  1.00  0.00     0.169 HD
HETATM   14  O   UNL     1     -43.621  54.199 -53.634  1.00  0.00    -0.267 OA
BRANCH  12  15
HETATM   15  C   UNL     1     -40.757  53.717 -53.008  1.00  0.00     0.035 A 
HETATM   16  C   UNL     1     -40.360  52.529 -53.631  1.00  0.00     0.039 A 
HETATM   17  C   UNL     1     -39.781  51.480 -52.893  1.00  0.00    -0.028 A 
HETATM   18  C   UNL     1     -39.613  51.637 -51.510  1.00  0.00     0.010 A 
HETATM   19  C   UNL     1     -39.988  52.825 -50.885  1.00  0.00     0.003 A 
HETATM   20  C   UNL     1     -40.551  53.861 -51.633  1.00  0.00     0.029 A 
BRANCH  17  21
HETATM   21  C   UNL     1     -39.392  50.196 -53.594  1.00  0.00     0.147 C 
HETATM   22  C   UNL     1     -40.296  49.900 -54.782  1.00  0.00     0.044 C 
BRANCH  21  23
HETATM   23  O   UNL     1     -39.445  49.094 -52.688  1.00  0.00    -0.391 OA
HETATM   24  H   UNL     1     -39.289  49.458 -51.800  1.00  0.00     0.210 HD
ENDBRANCH  21  23
ENDBRANCH  17  21
ENDBRANCH  12  15
ENDBRANCH   1  11
BRANCH   4  25
HETATM   25  C   UNL     1     -42.580  60.199 -56.788  1.00  0.00     0.409 C 
HETATM   26  F   UNL     1     -43.566  61.087 -56.546  1.00  0.00    -0.169 F 
HETATM   27  F   UNL     1     -41.732  60.208 -55.735  1.00  0.00    -0.169 F 
HETATM   28  F   UNL     1     -41.881  60.692 -57.847  1.00  0.00    -0.169 F 
ENDBRANCH   4  25
BRANCH   6  29
HETATM   29  C   UNL     1     -43.748  56.374 -58.994  1.00  0.00    -0.035 A 
HETATM   30  C   UNL     1     -43.953  55.102 -59.563  1.00  0.00     0.009 A 
HETATM   31  C   UNL     1     -45.136  54.794 -60.239  1.00  0.00     0.001 A 
HETATM   32  C   UNL     1     -46.143  55.747 -60.350  1.00  0.00     0.000 A 
HETATM   33  C   UNL     1     -45.967  57.006 -59.785  1.00  0.00     0.001 A 
HETATM   34  C   UNL     1     -44.783  57.316 -59.111  1.00  0.00     0.009 A 
ENDBRANCH   6  29
TORSDOF 6
ENDMDL
MODEL 4
REMARK VINA RESULT:      -8.5      2.064      2.985
REMARK  6 active torsions:
REMARK  status: ('A' for Active; 'I' for Inactive)
REMARK    1  A    between atoms: C_2  and  O_3 
REMARK    2  A    between atoms: C_2  and  C_4 
REMARK    3  A    between atoms: C_6  and  N_7 
REMARK       I    between atoms: N_7  and  C_8 
REMARK    4  A    between atoms: C_8  and  C_9 
REMARK    5  A    between atoms: C_12  and  C_13 
REMARK    6  A    between atoms: C_18  and  C_19 
ROOT
HETATM    1  C   UNL     1     -42.474  56.704 -56.308  1.00  0.00     0.096 C 
HETATM    2  C   UNL     1     -42.543  57.086 -57.635  1.00  0.00     0.138 C 
HETATM    3  N   UNL     1     -42.641  58.460 -57.624  1.00  0.00    -0.240 N 
HETATM    4  C   UNL     1     -42.751  59.285 -58.814  1.00  0.00     0.221 C 
HETATM    5  C   UNL     1     -42.338  58.476 -60.057  1.00  0.00     0.066 C 
HETATM    6  C   UNL     1     -42.964  57.074 -60.047  1.00  0.00     0.118 C 
HETATM    7  N   UNL     1     -42.568  56.387 -58.807  1.00  0.00    -0.365 N 
HETATM    8  N   UNL     1     -42.817  58.971 -56.397  1.00  0.00    -0.181 NA
HETATM    9  C   UNL     1     -42.689  57.909 -55.597  1.00  0.00     0.160 C 
HETATM   10  H   UNL     1     -42.894  55.418 -58.786  1.00  0.00     0.161 HD
ENDROOT
BRANCH   1  11
HETATM   11  C   UNL     1     -42.272  55.388 -55.728  1.00  0.00     0.261 C 
HETATM   12  N   UNL     1     -41.231  55.346 -54.818  1.00  0.00    -0.323 N 
HETATM   13  H   UNL     1     -40.793  56.239 -54.621  1.00  0.00     0.169 HD
HETATM   14  O   UNL     1     -43.019  54.460 -56.018  1.00  0.00    -0.267 OA
BRANCH  12  15
HETATM   15  C   UNL     1     -40.823  54.254 -54.027  1.00  0.00     0.035 A 
HETATM   16  C   UNL     1     -40.985  54.194 -52.639  1.00  0.00     0.039 A 
HETATM   17  C   UNL     1     -40.526  53.088 -51.901  1.00  0.00    -0.028 A 
HETATM   18  C   UNL     1     -39.889  52.039 -52.578  1.00  0.00     0.010 A 
HETATM   19  C   UNL     1     -39.740  52.081 -53.963  1.00  0.00     0.003 A 
HETATM   20  C   UNL     1     -40.211  53.181 -54.683  1.00  0.00     0.029 A 
BRANCH  17  21
HETATM   21  C   UNL     1     -40.690  53.071 -50.396  1.00  0.00     0.147 C 
HETATM   22  C   UNL     1     -39.816  54.116 -49.716  1.00  0.00     0.044 C 
BRANCH  21  23
HETATM   23  O   UNL     1     -40.363  51.785 -49.870  1.00  0.00    -0.391 OA
HETATM   24  H   UNL     1     -40.293  51.889 -48.906  1.00  0.00     0.210 HD
ENDBRANCH  21  23
ENDBRANCH  17  21
ENDBRANCH  12  15
ENDBRANCH   1  11
BRANCH   4  25
HETATM   25  C   UNL     1     -41.893  60.528 -58.716  1.00  0.00     0.409 C 
HETATM   26  F   UNL     1     -42.560  61.618 -58.284  1.00  0.00    -0.169 F 
HETATM   27  F   UNL     1     -40.815  60.345 -57.921  1.00  0.00    -0.169 F 
HETATM   28  F   UNL     1     -41.411  60.845 -59.949  1.00  0.00    -0.169 F 
ENDBRANCH   4  25
BRANCH   6  29
HETATM   29  C   UNL     1     -44.469  57.100 -60.289  1.00  0.00    -0.035 A 
HETATM   30  C   UNL     1     -45.133  55.883 -60.542  1.00  0.00     0.009 A 
HETATM   31  C   UNL     1     -46.505  55.849 -60.806  1.00  0.00     0.001 A 
HETATM   32  C   UNL     1     -47.242  57.028 -60.811  1.00  0.00     0.000 A 
HETATM   33  C   UNL     1     -46.610  58.239 -60.551  1.00  0.00     0.001 A 
HETATM   34  C   UNL     1     -45.237  58.275 -60.291  1.00  0.00     0.009 A 
ENDBRANCH   6  29
TORSDOF 6
ENDMDL
MODEL 5
REMARK VINA RESULT:      -8.4      3.391      8.012
REMARK  6 active torsions:
REMARK  status: ('A' for Active; 'I' for Inactive)
REMARK    1  A    between atoms: C_2  and  O_3 
REMARK    2  A    between atoms: C_2  and  C_4 
REMARK    3  A    between atoms: C_6  and  N_7 
REMARK       I    between atoms: N_7  and  C_8 
REMARK    4  A    between atoms: C_8  and  C_9 
REMARK    5  A    between atoms: C_12  and  C_13 
REMARK    6  A    between atoms: C_18  and  C_19 
ROOT
HETATM    1  C   UNL     1     -43.266  58.205 -54.873  1.00  0.00     0.096 C 
HETATM    2  C   UNL     1     -42.907  57.506 -53.735  1.00  0.00     0.138 C 
HETATM    3  N   UNL     1     -41.732  58.077 -53.301  1.00  0.00    -0.240 N 
HETATM    4  C   UNL     1     -40.988  57.639 -52.133  1.00  0.00     0.221 C 
HETATM    5  C   UNL     1     -41.879  56.756 -51.240  1.00  0.00     0.066 C 
HETATM    6  C   UNL     1     -42.658  55.727 -52.071  1.00  0.00     0.118 C 
HETATM    7  N   UNL     1     -43.455  56.440 -53.083  1.00  0.00    -0.365 N 
HETATM    8  N   UNL     1     -41.220  58.966 -54.166  1.00  0.00    -0.181 NA
HETATM    9  C   UNL     1     -42.165  59.062 -55.105  1.00  0.00     0.160 C 
HETATM   10  H   UNL     1     -44.056  55.805 -53.613  1.00  0.00     0.161 HD
ENDROOT
BRANCH   1  11
HETATM   11  C   UNL     1     -44.460  58.096 -55.693  1.00  0.00     0.261 C 
HETATM   12  N   UNL     1     -44.232  58.373 -57.029  1.00  0.00    -0.323 N 
HETATM   13  H   UNL     1     -43.263  58.546 -57.275  1.00  0.00     0.169 HD
HETATM   14  O   UNL     1     -45.522  57.736 -55.199  1.00  0.00    -0.267 OA
BRANCH  12  15
HETATM   15  C   UNL     1     -45.149  58.285 -58.095  1.00  0.00     0.035 A 
HETATM   16  C   UNL     1     -45.352  57.128 -58.853  1.00  0.00     0.039 A 
HETATM   17  C   UNL     1     -46.260  57.114 -59.928  1.00  0.00    -0.028 A 
HETATM   18  C   UNL     1     -46.960  58.288 -60.240  1.00  0.00     0.010 A 
HETATM   19  C   UNL     1     -46.777  59.440 -59.477  1.00  0.00     0.003 A 
HETATM   20  C   UNL     1     -45.881  59.435 -58.407  1.00  0.00     0.029 A 
BRANCH  17  21
HETATM   21  C   UNL     1     -46.432  55.853 -60.748  1.00  0.00     0.147 C 
HETATM   22  C   UNL     1     -45.112  55.126 -60.958  1.00  0.00     0.044 C 
BRANCH  21  23
HETATM   23  O   UNL     1     -46.999  56.156 -62.022  1.00  0.00    -0.391 OA
HETATM   24  H   UNL     1     -47.527  55.382 -62.282  1.00  0.00     0.210 HD
ENDBRANCH  21  23
ENDBRANCH  17  21
ENDBRANCH  12  15
ENDBRANCH   1  11
BRANCH   4  25
HETATM   25  C   UNL     1     -40.472  58.811 -51.325  1.00  0.00     0.409 C 
HETATM   26  F   UNL     1     -41.229  59.922 -51.431  1.00  0.00    -0.169 F 
HETATM   27  F   UNL     1     -40.338  58.510 -50.013  1.00  0.00    -0.169 F 
HETATM   28  F   UNL     1     -39.232  59.156 -51.767  1.00  0.00    -0.169 F 
ENDBRANCH   4  25
BRANCH   6  29
HETATM   29  C   UNL     1     -41.764  54.633 -52.644  1.00  0.00    -0.035 A 
HETATM   30  C   UNL     1     -41.095  53.772 -51.752  1.00  0.00     0.009 A 
HETATM   31  C   UNL     1     -40.235  52.774 -52.218  1.00  0.00     0.001 A 
HETATM   32  C   UNL     1     -40.034  52.611 -53.584  1.00  0.00     0.000 A 
HETATM   33  C   UNL     1     -40.694  53.441 -54.484  1.00  0.00     0.001 A 
HETATM   34  C   UNL     1     -41.552  54.442 -54.019  1.00  0.00     0.009 A 
ENDBRANCH   6  29
TORSDOF 6
ENDMDL
MODEL 6
REMARK VINA RESULT:      -8.2      1.301      1.902
REMARK  6 active torsions:
REMARK  status: ('A' for Active; 'I' for Inactive)
REMARK    1  A    between atoms: C_2  and  O_3 
REMARK    2  A    between atoms: C_2  and  C_4 
REMARK    3  A    between atoms: C_6  and  N_7 
REMARK       I    between atoms: N_7  and  C_8 
REMARK    4  A    between atoms: C_8  and  C_9 
REMARK    5  A    between atoms: C_12  and  C_13 
REMARK    6  A    between atoms: C_18  and  C_19 
ROOT
HETATM    1  C   UNL     1     -42.809  56.964 -54.867  1.00  0.00     0.096 C 
HETATM    2  C   UNL     1     -42.898  57.460 -56.155  1.00  0.00     0.138 C 
HETATM    3  N   UNL     1     -44.020  58.260 -56.170  1.00  0.00    -0.240 N 
HETATM    4  C   UNL     1     -44.503  58.976 -57.337  1.00  0.00     0.221 C 
HETATM    5  C   UNL     1     -43.397  59.051 -58.406  1.00  0.00     0.066 C 
HETATM    6  C   UNL     1     -42.698  57.695 -58.584  1.00  0.00     0.118 C 
HETATM    7  N   UNL     1     -42.157  57.266 -57.283  1.00  0.00    -0.365 N 
HETATM    8  N   UNL     1     -44.750  58.174 -55.048  1.00  0.00    -0.181 NA
HETATM    9  C   UNL     1     -44.001  57.410 -54.249  1.00  0.00     0.160 C 
HETATM   10  H   UNL     1     -41.611  56.405 -57.362  1.00  0.00     0.161 HD
ENDROOT
BRANCH   1  11
HETATM   11  C   UNL     1     -41.777  56.144 -54.257  1.00  0.00     0.261 C 
HETATM   12  N   UNL     1     -42.132  54.811 -54.148  1.00  0.00    -0.323 N 
HETATM   13  H   UNL     1     -43.024  54.566 -54.564  1.00  0.00     0.169 HD
HETATM   14  O   UNL     1     -40.699  56.634 -53.942  1.00  0.00    -0.267 OA
BRANCH  12  15
HETATM   15  C   UNL     1     -41.340  53.745 -53.678  1.00  0.00     0.035 A 
HETATM   16  C   UNL     1     -41.095  53.495 -52.325  1.00  0.00     0.039 A 
HETATM   17  C   UNL     1     -40.267  52.431 -51.921  1.00  0.00    -0.028 A 
HETATM   18  C   UNL     1     -39.678  51.621 -52.901  1.00  0.00     0.010 A 
HETATM   19  C   UNL     1     -39.932  51.851 -54.252  1.00  0.00     0.003 A 
HETATM   20  C   UNL     1     -40.764  52.904 -54.637  1.00  0.00     0.029 A 
BRANCH  17  21
HETATM   21  C   UNL     1     -39.998  52.208 -50.447  1.00  0.00     0.147 C 
HETATM   22  C   UNL     1     -40.346  50.792 -50.012  1.00  0.00     0.044 C 
BRANCH  21  23
HETATM   23  O   UNL     1     -40.746  53.131 -49.656  1.00  0.00    -0.391 OA
HETATM   24  H   UNL     1     -41.592  52.698 -49.452  1.00  0.00     0.210 HD
ENDBRANCH  21  23
ENDBRANCH  17  21
ENDBRANCH  12  15
ENDBRANCH   1  11
BRANCH   4  25
HETATM   25  C   UNL     1     -44.959  60.376 -56.988  1.00  0.00     0.409 C 
HETATM   26  F   UNL     1     -46.219  60.436 -56.511  1.00  0.00    -0.169 F 
HETATM   27  F   UNL     1     -44.137  60.976 -56.097  1.00  0.00    -0.169 F 
HETATM   28  F   UNL     1     -44.943  61.151 -58.107  1.00  0.00    -0.169 F 
ENDBRANCH   4  25
BRANCH   6  29
HETATM   29  C   UNL     1     -43.588  56.658 -59.259  1.00  0.00    -0.035 A 
HETATM   30  C   UNL     1     -43.519  55.321 -58.819  1.00  0.00     0.009 A 
HETATM   31  C   UNL     1     -44.284  54.321 -59.424  1.00  0.00     0.001 A 
HETATM   32  C   UNL     1     -45.141  54.638 -60.472  1.00  0.00     0.000 A 
HETATM   33  C   UNL     1     -45.235  55.953 -60.914  1.00  0.00     0.001 A 
HETATM   34  C   UNL     1     -44.467  56.954 -60.312  1.00  0.00     0.009 A 
ENDBRANCH   6  29
TORSDOF 6
ENDMDL
MODEL 7
REMARK VINA RESULT:      -8.0      5.528      8.354
REMARK  6 active torsions:
REMARK  status: ('A' for Active; 'I' for Inactive)
REMARK    1  A    between atoms: C_2  and  O_3 
REMARK    2  A    between atoms: C_2  and  C_4 
REMARK    3  A    between atoms: C_6  and  N_7 
REMARK       I    between atoms: N_7  and  C_8 
REMARK    4  A    between atoms: C_8  and  C_9 
REMARK    5  A    between atoms: C_12  and  C_13 
REMARK    6  A    between atoms: C_18  and  C_19 
ROOT
HETATM    1  C   UNL     1     -43.686  57.432 -51.526  1.00  0.00     0.096 C 
HETATM    2  C   UNL     1     -43.698  56.682 -52.688  1.00  0.00     0.138 C 
HETATM    3  N   UNL     1     -42.504  55.996 -52.702  1.00  0.00    -0.240 N 
HETATM    4  C   UNL     1     -42.088  55.091 -53.760  1.00  0.00     0.221 C 
HETATM    5  C   UNL     1     -43.301  54.696 -54.622  1.00  0.00     0.066 C 
HETATM    6  C   UNL     1     -44.165  55.917 -54.967  1.00  0.00     0.118 C 
HETATM    7  N   UNL     1     -44.588  56.566 -53.715  1.00  0.00    -0.365 N 
HETATM    8  N   UNL     1     -41.657  56.381 -51.736  1.00  0.00    -0.181 NA
HETATM    9  C   UNL     1     -42.385  57.232 -51.008  1.00  0.00     0.160 C 
HETATM   10  H   UNL     1     -45.234  57.341 -53.886  1.00  0.00     0.161 HD
ENDROOT
BRANCH   1  11
HETATM   11  C   UNL     1     -44.722  58.273 -50.952  1.00  0.00     0.261 C 
HETATM   12  N   UNL     1     -44.257  59.509 -50.542  1.00  0.00    -0.323 N 
HETATM   13  H   UNL     1     -43.283  59.696 -50.753  1.00  0.00     0.169 HD
HETATM   14  O   UNL     1     -45.884  57.887 -50.914  1.00  0.00    -0.267 OA
BRANCH  12  15
HETATM   15  C   UNL     1     -45.007  60.581 -50.018  1.00  0.00     0.035 A 
HETATM   16  C   UNL     1     -45.303  60.734 -48.661  1.00  0.00     0.039 A 
HETATM   17  C   UNL     1     -46.086  61.811 -48.205  1.00  0.00    -0.028 A 
HETATM   18  C   UNL     1     -46.577  62.734 -49.138  1.00  0.00     0.010 A 
HETATM   19  C   UNL     1     -46.270  62.600 -50.491  1.00  0.00     0.003 A 
HETATM   20  C   UNL     1     -45.484  61.532 -50.926  1.00  0.00     0.029 A 
BRANCH  17  21
HETATM   21  C   UNL     1     -46.414  61.928 -46.731  1.00  0.00     0.147 C 
HETATM   22  C   UNL     1     -45.307  61.361 -45.854  1.00  0.00     0.044 C 
BRANCH  21  23
HETATM   23  O   UNL     1     -47.633  61.247 -46.433  1.00  0.00    -0.391 OA
HETATM   24  H   UNL     1     -47.540  60.346 -46.785  1.00  0.00     0.210 HD
ENDBRANCH  21  23
ENDBRANCH  17  21
ENDBRANCH  12  15
ENDBRANCH   1  11
BRANCH   4  25
HETATM   25  C   UNL     1     -41.438  53.842 -53.205  1.00  0.00     0.409 C 
HETATM   26  F   UNL     1     -41.471  52.790 -54.048  1.00  0.00    -0.169 F 
HETATM   27  F   UNL     1     -40.154  54.053 -52.837  1.00  0.00    -0.169 F 
HETATM   28  F   UNL     1     -42.098  53.447 -52.083  1.00  0.00    -0.169 F 
ENDBRANCH   4  25
BRANCH   6  29
HETATM   29  C   UNL     1     -43.487  56.859 -55.956  1.00  0.00    -0.035 A 
HETATM   30  C   UNL     1     -43.163  56.373 -57.237  1.00  0.00     0.009 A 
HETATM   31  C   UNL     1     -42.509  57.178 -58.173  1.00  0.00     0.001 A 
HETATM   32  C   UNL     1     -42.175  58.489 -57.849  1.00  0.00     0.000 A 
HETATM   33  C   UNL     1     -42.497  58.994 -56.594  1.00  0.00     0.001 A 
HETATM   34  C   UNL     1     -43.148  58.188 -55.656  1.00  0.00     0.009 A 
ENDBRANCH   6  29
TORSDOF 6
ENDMDL
MODEL 8
REMARK VINA RESULT:      -7.6      6.181      9.468
REMARK  6 active torsions:
REMARK  status: ('A' for Active; 'I' for Inactive)
REMARK    1  A    between atoms: C_2  and  O_3 
REMARK    2  A    between atoms: C_2  and  C_4 
REMARK    3  A    between atoms: C_6  and  N_7 
REMARK       I    between atoms: N_7  and  C_8 
REMARK    4  A    between atoms: C_8  and  C_9 
REMARK    5  A    between atoms: C_12  and  C_13 
REMARK    6  A    between atoms: C_18  and  C_19 
ROOT
HETATM    1  C   UNL     1     -42.442  58.708 -50.815  1.00  0.00     0.096 C 
HETATM    2  C   UNL     1     -42.699  57.371 -51.058  1.00  0.00     0.138 C 
HETATM    3  N   UNL     1     -41.537  56.704 -50.737  1.00  0.00    -0.240 N 
HETATM    4  C   UNL     1     -41.355  55.268 -50.856  1.00  0.00     0.221 C 
HETATM    5  C   UNL     1     -42.723  54.572 -50.986  1.00  0.00     0.066 C 
HETATM    6  C   UNL     1     -43.632  55.305 -51.983  1.00  0.00     0.118 C 
HETATM    7  N   UNL     1     -43.783  56.703 -51.546  1.00  0.00    -0.365 N 
HETATM    8  N   UNL     1     -40.507  57.522 -50.478  1.00  0.00    -0.181 NA
HETATM    9  C   UNL     1     -41.063  58.737 -50.500  1.00  0.00     0.160 C 
HETATM   10  H   UNL     1     -44.445  57.216 -52.132  1.00  0.00     0.161 HD
ENDROOT
BRANCH   1  11
HETATM   11  C   UNL     1     -43.331  59.854 -50.891  1.00  0.00     0.261 C 
HETATM   12  N   UNL     1     -43.390  60.579 -49.715  1.00  0.00    -0.323 N 
HETATM   13  H   UNL     1     -42.762  60.266 -48.982  1.00  0.00     0.169 HD
HETATM   14  O   UNL     1     -43.902  60.129 -51.940  1.00  0.00    -0.267 OA
BRANCH  12  15
HETATM   15  C   UNL     1     -44.089  61.779 -49.476  1.00  0.00     0.035 A 
HETATM   16  C   UNL     1     -45.316  61.846 -48.809  1.00  0.00     0.039 A 
HETATM   17  C   UNL     1     -45.980  63.073 -48.631  1.00  0.00    -0.028 A 
HETATM   18  C   UNL     1     -45.397  64.240 -49.144  1.00  0.00     0.010 A 
HETATM   19  C   UNL     1     -44.166  64.186 -49.793  1.00  0.00     0.003 A 
HETATM   20  C   UNL     1     -43.513  62.961 -49.952  1.00  0.00     0.029 A 
BRANCH  17  21
HETATM   21  C   UNL     1     -47.323  63.104 -47.931  1.00  0.00     0.147 C 
HETATM   22  C   UNL     1     -47.395  64.208 -46.886  1.00  0.00     0.044 C 
BRANCH  21  23
HETATM   23  O   UNL     1     -47.587  61.852 -47.298  1.00  0.00    -0.391 OA
HETATM   24  H   UNL     1     -48.305  61.433 -47.803  1.00  0.00     0.210 HD
ENDBRANCH  21  23
ENDBRANCH  17  21
ENDBRANCH  12  15
ENDBRANCH   1  11
BRANCH   4  25
HETATM   25  C   UNL     1     -40.612  54.696 -49.667  1.00  0.00     0.409 C 
HETATM   26  F   UNL     1     -39.275  54.855 -49.733  1.00  0.00    -0.169 F 
HETATM   27  F   UNL     1     -41.046  55.212 -48.495  1.00  0.00    -0.169 F 
HETATM   28  F   UNL     1     -40.830  53.354 -49.599  1.00  0.00    -0.169 F 
ENDBRANCH   4  25
BRANCH   6  29
HETATM   29  C   UNL     1     -43.166  55.153 -53.427  1.00  0.00    -0.035 A 
HETATM   30  C   UNL     1     -43.524  56.146 -54.359  1.00  0.00     0.009 A 
HETATM   31  C   UNL     1     -43.156  56.042 -55.703  1.00  0.00     0.001 A 
HETATM   32  C   UNL     1     -42.416  54.949 -56.140  1.00  0.00     0.000 A 
HETATM   33  C   UNL     1     -42.041  53.962 -55.233  1.00  0.00     0.001 A 
HETATM   34  C   UNL     1     -42.411  54.063 -53.889  1.00  0.00     0.009 A 
ENDBRANCH   6  29
TORSDOF 6
ENDMDL
MODEL 9
REMARK VINA RESULT:      -7.6      2.817      4.241
REMARK  6 active torsions:
REMARK  status: ('A' for Active; 'I' for Inactive)
REMARK    1  A    between atoms: C_2  and  O_3 
REMARK    2  A    between atoms: C_2  and  C_4 
REMARK    3  A    between atoms: C_6  and  N_7 
REMARK       I    between atoms: N_7  and  C_8 
REMARK    4  A    between atoms: C_8  and  C_9 
REMARK    5  A    between atoms: C_12  and  C_13 
REMARK    6  A    between atoms: C_18  and  C_19 
ROOT
HETATM    1  C   UNL     1     -42.597  57.207 -56.791  1.00  0.00     0.096 C 
HETATM    2  C   UNL     1     -43.329  57.370 -57.953  1.00  0.00     0.138 C 
HETATM    3  N   UNL     1     -42.845  58.517 -58.542  1.00  0.00    -0.240 N 
HETATM    4  C   UNL     1     -43.343  59.075 -59.787  1.00  0.00     0.221 C 
HETATM    5  C   UNL     1     -44.171  58.019 -60.544  1.00  0.00     0.066 C 
HETATM    6  C   UNL     1     -45.136  57.285 -59.603  1.00  0.00     0.118 C 
HETATM    7  N   UNL     1     -44.360  56.673 -58.511  1.00  0.00    -0.365 N 
HETATM    8  N   UNL     1     -41.986  59.193 -57.764  1.00  0.00    -0.181 NA
HETATM    9  C   UNL     1     -41.816  58.384 -56.715  1.00  0.00     0.160 C 
HETATM   10  H   UNL     1     -44.948  56.103 -57.899  1.00  0.00     0.161 HD
ENDROOT
BRANCH   1  11
HETATM   11  C   UNL     1     -42.615  56.122 -55.825  1.00  0.00     0.261 C 
HETATM   12  N   UNL     1     -41.353  55.720 -55.430  1.00  0.00    -0.323 N 
HETATM   13  H   UNL     1     -40.587  56.269 -55.806  1.00  0.00     0.169 HD
HETATM   14  O   UNL     1     -43.680  55.689 -55.399  1.00  0.00    -0.267 OA
BRANCH  12  15
HETATM   15  C   UNL     1     -41.020  54.756 -54.458  1.00  0.00     0.035 A 
HETATM   16  C   UNL     1     -41.146  54.963 -53.081  1.00  0.00     0.039 A 
HETATM   17  C   UNL     1     -40.766  53.970 -52.160  1.00  0.00    -0.028 A 
HETATM   18  C   UNL     1     -40.245  52.761 -52.642  1.00  0.00     0.010 A 
HETATM   19  C   UNL     1     -40.135  52.539 -54.013  1.00  0.00     0.003 A 
HETATM   20  C   UNL     1     -40.527  53.529 -54.916  1.00  0.00     0.029 A 
BRANCH  17  21
HETATM   21  C   UNL     1     -40.886  54.240 -50.675  1.00  0.00     0.147 C 
HETATM   22  C   UNL     1     -40.909  55.730 -50.367  1.00  0.00     0.044 C 
BRANCH  21  23
HETATM   23  O   UNL     1     -39.801  53.640 -49.967  1.00  0.00    -0.391 OA
HETATM   24  H   UNL     1     -39.993  52.689 -49.919  1.00  0.00     0.210 HD
ENDBRANCH  21  23
ENDBRANCH  17  21
ENDBRANCH  12  15
ENDBRANCH   1  11
BRANCH   4  25
HETATM   25  C   UNL     1     -42.218  59.561 -60.674  1.00  0.00     0.409 C 
HETATM   26  F   UNL     1     -42.626  60.001 -61.881  1.00  0.00    -0.169 F 
HETATM   27  F   UNL     1     -41.488  60.537 -60.089  1.00  0.00    -0.169 F 
HETATM   28  F   UNL     1     -41.357  58.534 -60.918  1.00  0.00    -0.169 F 
ENDBRANCH   4  25
BRANCH   6  29
HETATM   29  C   UNL     1     -46.284  58.169 -59.129  1.00  0.00    -0.035 A 
HETATM   30  C   UNL     1     -46.933  58.995 -60.067  1.00  0.00     0.009 A 
HETATM   31  C   UNL     1     -47.967  59.852 -59.684  1.00  0.00     0.001 A 
HETATM   32  C   UNL     1     -48.381  59.893 -58.357  1.00  0.00     0.000 A 
HETATM   33  C   UNL     1     -47.763  59.077 -57.415  1.00  0.00     0.001 A 
HETATM   34  C   UNL     1     -46.726  58.221 -57.797  1.00  0.00     0.009 A 
ENDBRANCH   6  29
TORSDOF 6
ENDMDL
MODEL 10
REMARK VINA RESULT:      -7.6      5.551      9.343
REMARK  6 active torsions:
REMARK  status: ('A' for Active; 'I' for Inactive)
REMARK    1  A    between atoms: C_2  and  O_3 
REMARK    2  A    between atoms: C_2  and  C_4 
REMARK    3  A    between atoms: C_6  and  N_7 
REMARK       I    between atoms: N_7  and  C_8 
REMARK    4  A    between atoms: C_8  and  C_9 
REMARK    5  A    between atoms: C_12  and  C_13 
REMARK    6  A    between atoms: C_18  and  C_19 
ROOT
HETATM    1  C   UNL     1     -42.091  57.943 -51.018  1.00  0.00     0.096 C 
HETATM    2  C   UNL     1     -42.209  56.570 -51.140  1.00  0.00     0.138 C 
HETATM    3  N   UNL     1     -41.184  56.039 -50.389  1.00  0.00    -0.240 N 
HETATM    4  C   UNL     1     -40.921  54.618 -50.245  1.00  0.00     0.221 C 
HETATM    5  C   UNL     1     -42.152  53.806 -50.691  1.00  0.00     0.066 C 
HETATM    6  C   UNL     1     -42.727  54.341 -52.010  1.00  0.00     0.118 C 
HETATM    7  N   UNL     1     -43.059  55.765 -51.840  1.00  0.00    -0.365 N 
HETATM    8  N   UNL     1     -40.317  56.961 -49.943  1.00  0.00    -0.181 NA
HETATM    9  C   UNL     1     -40.883  58.116 -50.302  1.00  0.00     0.160 C 
HETATM   10  H   UNL     1     -43.521  56.151 -52.666  1.00  0.00     0.161 HD
ENDROOT
BRANCH   1  11
HETATM   11  C   UNL     1     -42.952  58.998 -51.522  1.00  0.00     0.261 C 
HETATM   12  N   UNL     1     -44.066  59.217 -50.732  1.00  0.00    -0.323 N 
HETATM   13  H   UNL     1     -44.105  58.671 -49.878  1.00  0.00     0.169 HD
HETATM   14  O   UNL     1     -42.638  59.631 -52.523  1.00  0.00    -0.267 OA
BRANCH  12  15
HETATM   15  C   UNL     1     -45.054  60.210 -50.892  1.00  0.00     0.035 A 
HETATM   16  C   UNL     1     -45.262  61.254 -49.986  1.00  0.00     0.039 A 
HETATM   17  C   UNL     1     -46.288  62.196 -50.187  1.00  0.00    -0.028 A 
HETATM   18  C   UNL     1     -47.114  62.069 -51.313  1.00  0.00     0.010 A 
HETATM   19  C   UNL     1     -46.900  61.043 -52.231  1.00  0.00     0.003 A 
HETATM   20  C   UNL     1     -45.871  60.122 -52.024  1.00  0.00     0.029 A 
BRANCH  17  21
HETATM   21  C   UNL     1     -46.506  63.295 -49.169  1.00  0.00     0.147 C 
HETATM   22  C   UNL     1     -45.329  63.427 -48.213  1.00  0.00     0.044 C 
BRANCH  21  23
HETATM   23  O   UNL     1     -47.691  63.049 -48.411  1.00  0.00    -0.391 OA
HETATM   24  H   UNL     1     -47.796  62.084 -48.367  1.00  0.00     0.210 HD
ENDBRANCH  21  23
ENDBRANCH  17  21
ENDBRANCH  12  15
ENDBRANCH   1  11
BRANCH   4  25
HETATM   25  C   UNL     1     -40.569  54.254 -48.819  1.00  0.00     0.409 C 
HETATM   26  F   UNL     1     -41.083  55.094 -47.899  1.00  0.00    -0.169 F 
HETATM   27  F   UNL     1     -40.946  52.994 -48.503  1.00  0.00    -0.169 F 
HETATM   28  F   UNL     1     -39.218  54.300 -48.660  1.00  0.00    -0.169 F 
ENDBRANCH   4  25
BRANCH   6  29
HETATM   29  C   UNL     1     -41.826  54.052 -53.206  1.00  0.00    -0.035 A 
HETATM   30  C   UNL     1     -41.799  54.976 -54.269  1.00  0.00     0.009 A 
HETATM   31  C   UNL     1     -41.020  54.748 -55.406  1.00  0.00     0.001 A 
HETATM   32  C   UNL     1     -40.245  53.597 -55.499  1.00  0.00     0.000 A 
HETATM   33  C   UNL     1     -40.247  52.677 -54.455  1.00  0.00     0.001 A 
HETATM   34  C   UNL     1     -41.029  52.903 -53.319  1.00  0.00     0.009 A 
ENDBRANCH   6  29
TORSDOF 6
ENDMDL
