MODEL 1
REMARK VINA RESULT:      -7.6      0.000      0.000
REMARK  10 active torsions:
REMARK  status: ('A' for Active; 'I' for Inactive)
REMARK    1  A    between atoms: C_4  and  C_5 
REMARK    2  A    between atoms: C_8  and  O_9 
REMARK    3  A    between atoms: C_14  and  C_15 
REMARK    4  A    between atoms: C_18  and  C_19 
REMARK    5  A    between atoms: C_19  and  N_20 
REMARK    6  A    between atoms: N_20  and  C_21 
REMARK    7  A    between atoms: C_21  and  N_22 
REMARK    8  A    between atoms: N_22  and  C_23 
REMARK    9  A    between atoms: C_25  and  C_26 
REMARK   10  A    between atoms: C_26  and  O_27 
ROOT
HETATM    1  C   UNL     1     -44.793  59.801 -55.179  1.00  0.00     0.067 C 
HETATM    2  C   UNL     1     -43.991  61.098 -55.394  1.00  0.00     0.001 C 
HETATM    3  C   UNL     1     -43.021  61.378 -54.227  1.00  0.00     0.040 C 
HETATM    4  C   UNL     1     -43.763  61.585 -52.897  1.00  0.00     0.206 C 
HETATM    5  N   UNL     1     -45.215  61.178 -53.136  1.00  0.00    -0.065 N 
HETATM    6  H   UNL     1     -45.725  61.193 -52.241  1.00  0.00     0.280 HD
HETATM    7  C   UNL     1     -45.328  59.771 -53.730  1.00  0.00     0.246 C 
HETATM    8  C   UNL     1     -45.026  62.255 -55.362  1.00  0.00     0.033 C 
HETATM    9  C   UNL     1     -45.865  62.188 -54.076  1.00  0.00     0.236 C 
ENDROOT
BRANCH   4  10
HETATM   10  C   UNL     1     -43.126  60.834 -51.705  1.00  0.00     0.155 C 
BRANCH  10  11
HETATM   11  N   UNL     1     -42.045  59.941 -52.118  1.00  0.00    -0.365 N 
HETATM   12  H   UNL     1     -41.533  60.195 -52.959  1.00  0.00     0.161 HD
BRANCH  11  13
HETATM   13  C   UNL     1     -41.309  59.133 -51.295  1.00  0.00     0.172 C 
HETATM   14  S   UNL     1     -39.651  59.210 -51.104  1.00  0.00    -0.041 SA
BRANCH  13  15
HETATM   15  N   UNL     1     -41.984  58.174 -50.595  1.00  0.00    -0.333 N 
HETATM   16  H   UNL     1     -42.588  58.569 -49.878  1.00  0.00     0.168 HD
BRANCH  15  17
HETATM   17  C   UNL     1     -42.105  56.779 -50.776  1.00  0.00     0.035 A 
HETATM   18  C   UNL     1     -41.137  55.853 -50.390  1.00  0.00     0.047 A 
HETATM   19  C   UNL     1     -41.314  54.477 -50.617  1.00  0.00     0.041 A 
HETATM   20  C   UNL     1     -42.466  54.028 -51.268  1.00  0.00     0.018 A 
HETATM   21  C   UNL     1     -43.424  54.950 -51.689  1.00  0.00     0.003 A 
HETATM   22  C   UNL     1     -43.242  56.316 -51.446  1.00  0.00     0.029 A 
BRANCH  19  23
HETATM   23  C   UNL     1     -40.246  53.559 -50.138  1.00  0.00     0.293 C 
HETATM   24  O   UNL     1     -40.005  52.487 -50.675  1.00  0.00    -0.259 OA
BRANCH  23  25
HETATM   25  O   UNL     1     -39.615  54.075 -49.058  1.00  0.00    -0.323 OA
HETATM   26  C   UNL     1     -40.228  53.756 -47.808  1.00  0.00     0.213 C 
ENDBRANCH  23  25
ENDBRANCH  19  23
ENDBRANCH  15  17
ENDBRANCH  13  15
ENDBRANCH  11  13
ENDBRANCH  10  11
ENDBRANCH   4  10
BRANCH   1  27
HETATM   27  C   UNL     1     -44.252  58.465 -55.611  1.00  0.00     0.038 C 
HETATM   28  N   UNL     1     -44.280  57.812 -56.823  1.00  0.00    -0.277 N 
HETATM   29  C   UNL     1     -44.954  58.121 -58.061  1.00  0.00     0.179 C 
HETATM   30  N   UNL     1     -43.524  56.702 -56.840  1.00  0.00    -0.172 NA
HETATM   31  C   UNL     1     -43.108  56.519 -55.585  1.00  0.00     0.089 C 
HETATM   32  C   UNL     1     -43.551  57.595 -54.783  1.00  0.00     0.061 C 
BRANCH  31  33
HETATM   33  C   UNL     1     -42.277  55.379 -55.198  1.00  0.00    -0.005 A 
HETATM   34  C   UNL     1     -40.939  55.568 -54.830  1.00  0.00     0.016 A 
HETATM   35  C   UNL     1     -40.157  54.487 -54.413  1.00  0.00     0.037 A 
HETATM   36  C   UNL     1     -40.693  53.201 -54.357  1.00  0.00     0.068 A 
HETATM   37  C   UNL     1     -42.014  52.996 -54.751  1.00  0.00     0.037 A 
HETATM   38  C   UNL     1     -42.802  54.079 -55.167  1.00  0.00     0.016 A 
BRANCH  36  39
HETATM   39  O   UNL     1     -39.830  52.238 -53.914  1.00  0.00    -0.356 OA
HETATM   40  C   UNL     1     -40.164  50.889 -54.214  1.00  0.00     0.210 C 
ENDBRANCH  36  39
ENDBRANCH  31  33
ENDBRANCH   1  27
TORSDOF 10
ENDMDL
MODEL 2
REMARK VINA RESULT:      -7.5      2.853      5.769
REMARK  10 active torsions:
REMARK  status: ('A' for Active; 'I' for Inactive)
REMARK    1  A    between atoms: C_4  and  C_5 
REMARK    2  A    between atoms: C_8  and  O_9 
REMARK    3  A    between atoms: C_14  and  C_15 
REMARK    4  A    between atoms: C_18  and  C_19 
REMARK    5  A    between atoms: C_19  and  N_20 
REMARK    6  A    between atoms: N_20  and  C_21 
REMARK    7  A    between atoms: C_21  and  N_22 
REMARK    8  A    between atoms: N_22  and  C_23 
REMARK    9  A    between atoms: C_25  and  C_26 
REMARK   10  A    between atoms: C_26  and  O_27 
ROOT
HETATM    1  C   UNL     1     -43.429  58.566 -51.477  1.00  0.00     0.067 C 
HETATM    2  C   UNL     1     -44.943  58.544 -51.760  1.00  0.00     0.001 C 
HETATM    3  C   UNL     1     -45.324  59.458 -52.942  1.00  0.00     0.040 C 
HETATM    4  C   UNL     1     -44.995  60.933 -52.661  1.00  0.00     0.206 C 
HETATM    5  N   UNL     1     -44.147  60.959 -51.391  1.00  0.00    -0.065 N 
HETATM    6  H   UNL     1     -43.808  61.918 -51.227  1.00  0.00     0.280 HD
HETATM    7  C   UNL     1     -42.934  60.030 -51.490  1.00  0.00     0.246 C 
HETATM    8  C   UNL     1     -45.623  59.170 -50.512  1.00  0.00     0.033 C 
HETATM    9  C   UNL     1     -45.016  60.548 -50.207  1.00  0.00     0.236 C 
ENDROOT
BRANCH   4  10
HETATM   10  C   UNL     1     -44.309  61.655 -53.845  1.00  0.00     0.155 C 
BRANCH  10  11
HETATM   11  N   UNL     1     -44.806  61.199 -55.142  1.00  0.00    -0.365 N 
HETATM   12  H   UNL     1     -45.573  61.725 -55.552  1.00  0.00     0.161 HD
BRANCH  11  13
HETATM   13  C   UNL     1     -44.083  60.525 -56.088  1.00  0.00     0.172 C 
HETATM   14  S   UNL     1     -42.620  61.026 -56.719  1.00  0.00    -0.041 SA
BRANCH  13  15
HETATM   15  N   UNL     1     -44.617  59.363 -56.571  1.00  0.00    -0.333 N 
HETATM   16  H   UNL     1     -45.567  59.485 -56.912  1.00  0.00     0.168 HD
BRANCH  15  17
HETATM   17  C   UNL     1     -44.054  58.090 -56.811  1.00  0.00     0.035 A 
HETATM   18  C   UNL     1     -43.837  57.558 -58.081  1.00  0.00     0.047 A 
HETATM   19  C   UNL     1     -43.289  56.275 -58.248  1.00  0.00     0.041 A 
HETATM   20  C   UNL     1     -42.983  55.503 -57.124  1.00  0.00     0.018 A 
HETATM   21  C   UNL     1     -43.230  56.014 -55.849  1.00  0.00     0.003 A 
HETATM   22  C   UNL     1     -43.764  57.297 -55.696  1.00  0.00     0.029 A 
BRANCH  19  23
HETATM   23  C   UNL     1     -43.057  55.803 -59.640  1.00  0.00     0.293 C 
HETATM   24  O   UNL     1     -42.187  56.273 -60.361  1.00  0.00    -0.259 OA
BRANCH  23  25
HETATM   25  O   UNL     1     -43.925  54.819 -59.967  1.00  0.00    -0.323 OA
HETATM   26  C   UNL     1     -44.964  55.221 -60.861  1.00  0.00     0.213 C 
ENDBRANCH  23  25
ENDBRANCH  19  23
ENDBRANCH  15  17
ENDBRANCH  13  15
ENDBRANCH  11  13
ENDBRANCH  10  11
ENDBRANCH   4  10
BRANCH   1  27
HETATM   27  C   UNL     1     -42.483  57.643 -52.197  1.00  0.00     0.038 C 
HETATM   28  N   UNL     1     -41.474  57.887 -53.101  1.00  0.00    -0.277 N 
HETATM   29  C   UNL     1     -41.063  59.095 -53.774  1.00  0.00     0.179 C 
HETATM   30  N   UNL     1     -40.741  56.796 -53.378  1.00  0.00    -0.172 NA
HETATM   31  C   UNL     1     -41.357  55.775 -52.778  1.00  0.00     0.089 C 
HETATM   32  C   UNL     1     -42.457  56.263 -52.037  1.00  0.00     0.061 C 
BRANCH  31  33
HETATM   33  C   UNL     1     -40.867  54.400 -52.880  1.00  0.00    -0.005 A 
HETATM   34  C   UNL     1     -40.743  53.782 -54.130  1.00  0.00     0.016 A 
HETATM   35  C   UNL     1     -40.230  52.486 -54.235  1.00  0.00     0.037 A 
HETATM   36  C   UNL     1     -39.833  51.784 -53.097  1.00  0.00     0.068 A 
HETATM   37  C   UNL     1     -39.982  52.378 -51.845  1.00  0.00     0.037 A 
HETATM   38  C   UNL     1     -40.494  53.679 -51.738  1.00  0.00     0.016 A 
BRANCH  36  39
HETATM   39  O   UNL     1     -39.330  50.537 -53.338  1.00  0.00    -0.356 OA
HETATM   40  C   UNL     1     -39.769  49.886 -54.524  1.00  0.00     0.210 C 
ENDBRANCH  36  39
ENDBRANCH  31  33
ENDBRANCH   1  27
TORSDOF 10
ENDMDL
MODEL 3
REMARK VINA RESULT:      -7.3      2.034      2.841
REMARK  10 active torsions:
REMARK  status: ('A' for Active; 'I' for Inactive)
REMARK    1  A    between atoms: C_4  and  C_5 
REMARK    2  A    between atoms: C_8  and  O_9 
REMARK    3  A    between atoms: C_14  and  C_15 
REMARK    4  A    between atoms: C_18  and  C_19 
REMARK    5  A    between atoms: C_19  and  N_20 
REMARK    6  A    between atoms: N_20  and  C_21 
REMARK    7  A    between atoms: C_21  and  N_22 
REMARK    8  A    between atoms: N_22  and  C_23 
REMARK    9  A    between atoms: C_25  and  C_26 
REMARK   10  A    between atoms: C_26  and  O_27 
ROOT
HETATM    1  C   UNL     1     -43.334  58.647 -58.465  1.00  0.00     0.067 C 
HETATM    2  C   UNL     1     -42.088  59.482 -58.816  1.00  0.00     0.001 C 
HETATM    3  C   UNL     1     -41.572  60.288 -57.607  1.00  0.00     0.040 C 
HETATM    4  C   UNL     1     -42.607  61.310 -57.111  1.00  0.00     0.206 C 
HETATM    5  N   UNL     1     -43.917  60.994 -57.830  1.00  0.00    -0.065 N 
HETATM    6  H   UNL     1     -44.669  61.582 -57.444  1.00  0.00     0.280 HD
HETATM    7  C   UNL     1     -44.323  59.526 -57.667  1.00  0.00     0.246 C 
HETATM    8  C   UNL     1     -42.556  60.539 -59.853  1.00  0.00     0.033 C 
HETATM    9  C   UNL     1     -43.760  61.323 -59.311  1.00  0.00     0.236 C 
ENDROOT
BRANCH   4  10
HETATM   10  C   UNL     1     -42.769  61.336 -55.573  1.00  0.00     0.155 C 
BRANCH  10  11
HETATM   11  N   UNL     1     -42.063  60.237 -54.916  1.00  0.00    -0.365 N 
HETATM   12  H   UNL     1     -41.205  59.914 -55.355  1.00  0.00     0.161 HD
BRANCH  11  13
HETATM   13  C   UNL     1     -42.100  59.941 -53.581  1.00  0.00     0.172 C 
HETATM   14  S   UNL     1     -42.692  60.950 -52.389  1.00  0.00    -0.041 SA
BRANCH  13  15
HETATM   15  N   UNL     1     -41.588  58.735 -53.195  1.00  0.00    -0.333 N 
HETATM   16  H   UNL     1     -40.649  58.579 -53.554  1.00  0.00     0.168 HD
BRANCH  15  17
HETATM   17  C   UNL     1     -42.053  57.754 -52.292  1.00  0.00     0.035 A 
HETATM   18  C   UNL     1     -41.222  56.957 -51.506  1.00  0.00     0.047 A 
HETATM   19  C   UNL     1     -41.752  55.985 -50.640  1.00  0.00     0.041 A 
HETATM   20  C   UNL     1     -43.135  55.790 -50.585  1.00  0.00     0.018 A 
HETATM   21  C   UNL     1     -43.972  56.559 -51.393  1.00  0.00     0.003 A 
HETATM   22  C   UNL     1     -43.433  57.531 -52.242  1.00  0.00     0.029 A 
BRANCH  19  23
HETATM   23  C   UNL     1     -40.792  55.207 -49.812  1.00  0.00     0.293 C 
HETATM   24  O   UNL     1     -39.600  55.130 -50.076  1.00  0.00    -0.259 OA
BRANCH  23  25
HETATM   25  O   UNL     1     -41.422  54.621 -48.767  1.00  0.00    -0.323 OA
HETATM   26  C   UNL     1     -40.575  53.818 -47.943  1.00  0.00     0.213 C 
ENDBRANCH  23  25
ENDBRANCH  19  23
ENDBRANCH  15  17
ENDBRANCH  13  15
ENDBRANCH  11  13
ENDBRANCH  10  11
ENDBRANCH   4  10
BRANCH   1  27
HETATM   27  C   UNL     1     -43.213  57.263 -57.886  1.00  0.00     0.038 C 
HETATM   28  N   UNL     1     -43.532  56.025 -58.395  1.00  0.00    -0.277 N 
HETATM   29  C   UNL     1     -44.218  55.635 -59.603  1.00  0.00     0.179 C 
HETATM   30  N   UNL     1     -43.103  55.012 -57.624  1.00  0.00    -0.172 NA
HETATM   31  C   UNL     1     -42.630  55.573 -56.509  1.00  0.00     0.089 C 
HETATM   32  C   UNL     1     -42.690  56.979 -56.629  1.00  0.00     0.061 C 
BRANCH  31  33
HETATM   33  C   UNL     1     -42.097  54.777 -55.402  1.00  0.00    -0.005 A 
HETATM   34  C   UNL     1     -40.751  54.393 -55.387  1.00  0.00     0.016 A 
HETATM   35  C   UNL     1     -40.229  53.675 -54.308  1.00  0.00     0.037 A 
HETATM   36  C   UNL     1     -41.038  53.326 -53.227  1.00  0.00     0.068 A 
HETATM   37  C   UNL     1     -42.387  53.676 -53.246  1.00  0.00     0.037 A 
HETATM   38  C   UNL     1     -42.913  54.398 -54.327  1.00  0.00     0.016 A 
BRANCH  36  39
HETATM   39  O   UNL     1     -40.401  52.643 -52.229  1.00  0.00    -0.356 OA
HETATM   40  C   UNL     1     -39.566  51.561 -52.622  1.00  0.00     0.210 C 
ENDBRANCH  36  39
ENDBRANCH  31  33
ENDBRANCH   1  27
TORSDOF 10
ENDMDL
MODEL 4
REMARK VINA RESULT:      -7.3      2.553      4.021
REMARK  10 active torsions:
REMARK  status: ('A' for Active; 'I' for Inactive)
REMARK    1  A    between atoms: C_4  and  C_5 
REMARK    2  A    between atoms: C_8  and  O_9 
REMARK    3  A    between atoms: C_14  and  C_15 
REMARK    4  A    between atoms: C_18  and  C_19 
REMARK    5  A    between atoms: C_19  and  N_20 
REMARK    6  A    between atoms: N_20  and  C_21 
REMARK    7  A    between atoms: C_21  and  N_22 
REMARK    8  A    between atoms: N_22  and  C_23 
REMARK    9  A    between atoms: C_25  and  C_26 
REMARK   10  A    between atoms: C_26  and  O_27 
ROOT
HETATM    1  C   UNL     1     -42.649  57.889 -56.495  1.00  0.00     0.067 C 
HETATM    2  C   UNL     1     -42.072  59.279 -56.164  1.00  0.00     0.001 C 
HETATM    3  C   UNL     1     -43.122  60.200 -55.510  1.00  0.00     0.040 C 
HETATM    4  C   UNL     1     -44.311  60.477 -56.444  1.00  0.00     0.206 C 
HETATM    5  N   UNL     1     -44.173  59.518 -57.625  1.00  0.00    -0.065 N 
HETATM    6  H   UNL     1     -45.009  59.589 -58.222  1.00  0.00     0.280 HD
HETATM    7  C   UNL     1     -44.028  58.062 -57.171  1.00  0.00     0.246 C 
HETATM    8  C   UNL     1     -41.730  59.939 -57.528  1.00  0.00     0.033 C 
HETATM    9  C   UNL     1     -42.957  59.923 -58.453  1.00  0.00     0.236 C 
ENDROOT
BRANCH   4  10
HETATM   10  C   UNL     1     -45.688  60.365 -55.750  1.00  0.00     0.155 C 
BRANCH  10  11
HETATM   11  N   UNL     1     -45.589  59.834 -54.392  1.00  0.00    -0.365 N 
HETATM   12  H   UNL     1     -44.931  59.075 -54.241  1.00  0.00     0.161 HD
BRANCH  11  13
HETATM   13  C   UNL     1     -45.852  60.522 -53.238  1.00  0.00     0.172 C 
HETATM   14  S   UNL     1     -46.610  62.008 -53.156  1.00  0.00    -0.041 SA
BRANCH  13  15
HETATM   15  N   UNL     1     -45.437  59.956 -52.066  1.00  0.00    -0.333 N 
HETATM   16  H   UNL     1     -46.069  60.155 -51.294  1.00  0.00     0.168 HD
BRANCH  15  17
HETATM   17  C   UNL     1     -44.397  59.049 -51.769  1.00  0.00     0.035 A 
HETATM   18  C   UNL     1     -43.046  59.304 -52.001  1.00  0.00     0.047 A 
HETATM   19  C   UNL     1     -42.062  58.348 -51.698  1.00  0.00     0.041 A 
HETATM   20  C   UNL     1     -42.442  57.106 -51.182  1.00  0.00     0.018 A 
HETATM   21  C   UNL     1     -43.794  56.828 -50.979  1.00  0.00     0.003 A 
HETATM   22  C   UNL     1     -44.763  57.793 -51.274  1.00  0.00     0.029 A 
BRANCH  19  23
HETATM   23  C   UNL     1     -40.643  58.721 -51.944  1.00  0.00     0.293 C 
HETATM   24  O   UNL     1     -40.236  59.093 -53.035  1.00  0.00    -0.259 OA
BRANCH  23  25
HETATM   25  O   UNL     1     -39.906  58.584 -50.817  1.00  0.00    -0.323 OA
HETATM   26  C   UNL     1     -38.797  59.479 -50.725  1.00  0.00     0.213 C 
ENDBRANCH  23  25
ENDBRANCH  19  23
ENDBRANCH  15  17
ENDBRANCH  13  15
ENDBRANCH  11  13
ENDBRANCH  10  11
ENDBRANCH   4  10
BRANCH   1  27
HETATM   27  C   UNL     1     -42.653  56.780 -55.478  1.00  0.00     0.038 C 
HETATM   28  N   UNL     1     -43.663  56.238 -54.717  1.00  0.00    -0.277 N 
HETATM   29  C   UNL     1     -45.037  56.634 -54.527  1.00  0.00     0.179 C 
HETATM   30  N   UNL     1     -43.286  55.132 -54.053  1.00  0.00    -0.172 NA
HETATM   31  C   UNL     1     -41.970  55.018 -54.244  1.00  0.00     0.089 C 
HETATM   32  C   UNL     1     -41.534  56.035 -55.123  1.00  0.00     0.061 C 
BRANCH  31  33
HETATM   33  C   UNL     1     -41.186  53.939 -53.642  1.00  0.00    -0.005 A 
HETATM   34  C   UNL     1     -40.950  53.918 -52.262  1.00  0.00     0.016 A 
HETATM   35  C   UNL     1     -40.243  52.864 -51.678  1.00  0.00     0.037 A 
HETATM   36  C   UNL     1     -39.757  51.814 -52.457  1.00  0.00     0.068 A 
HETATM   37  C   UNL     1     -39.958  51.841 -53.836  1.00  0.00     0.037 A 
HETATM   38  C   UNL     1     -40.669  52.897 -54.425  1.00  0.00     0.016 A 
BRANCH  36  39
HETATM   39  O   UNL     1     -39.101  50.838 -51.762  1.00  0.00    -0.356 OA
HETATM   40  C   UNL     1     -39.836  50.172 -50.742  1.00  0.00     0.210 C 
ENDBRANCH  36  39
ENDBRANCH  31  33
ENDBRANCH   1  27
TORSDOF 10
ENDMDL
MODEL 5
REMARK VINA RESULT:      -7.3      2.309      3.991
REMARK  10 active torsions:
REMARK  status: ('A' for Active; 'I' for Inactive)
REMARK    1  A    between atoms: C_4  and  C_5 
REMARK    2  A    between atoms: C_8  and  O_9 
REMARK    3  A    between atoms: C_14  and  C_15 
REMARK    4  A    between atoms: C_18  and  C_19 
REMARK    5  A    between atoms: C_19  and  N_20 
REMARK    6  A    between atoms: N_20  and  C_21 
REMARK    7  A    between atoms: C_21  and  N_22 
REMARK    8  A    between atoms: N_22  and  C_23 
REMARK    9  A    between atoms: C_25  and  C_26 
REMARK   10  A    between atoms: C_26  and  O_27 
ROOT
HETATM    1  C   UNL     1     -42.996  57.217 -57.221  1.00  0.00     0.067 C 
HETATM    2  C   UNL     1     -42.060  58.399 -57.537  1.00  0.00     0.001 C 
HETATM    3  C   UNL     1     -42.545  59.711 -56.885  1.00  0.00     0.040 C 
HETATM    4  C   UNL     1     -43.922  60.143 -57.412  1.00  0.00     0.206 C 
HETATM    5  N   UNL     1     -44.470  58.970 -58.222  1.00  0.00    -0.065 N 
HETATM    6  H   UNL     1     -45.441  59.172 -58.500  1.00  0.00     0.280 HD
HETATM    7  C   UNL     1     -44.461  57.664 -57.423  1.00  0.00     0.246 C 
HETATM    8  C   UNL     1     -42.163  58.633 -59.069  1.00  0.00     0.033 C 
HETATM    9  C   UNL     1     -43.632  58.807 -59.486  1.00  0.00     0.236 C 
ENDROOT
BRANCH   4  10
HETATM   10  C   UNL     1     -44.897  60.602 -56.302  1.00  0.00     0.155 C 
BRANCH  10  11
HETATM   11  N   UNL     1     -44.205  61.179 -55.152  1.00  0.00    -0.365 N 
HETATM   12  H   UNL     1     -43.762  62.084 -55.287  1.00  0.00     0.161 HD
BRANCH  11  13
HETATM   13  C   UNL     1     -44.496  60.942 -53.836  1.00  0.00     0.172 C 
HETATM   14  S   UNL     1     -46.032  60.908 -53.182  1.00  0.00    -0.041 SA
BRANCH  13  15
HETATM   15  N   UNL     1     -43.442  60.744 -52.989  1.00  0.00    -0.333 N 
HETATM   16  H   UNL     1     -43.321  61.512 -52.334  1.00  0.00     0.168 HD
BRANCH  15  17
HETATM   17  C   UNL     1     -42.603  59.630 -52.767  1.00  0.00     0.035 A 
HETATM   18  C   UNL     1     -42.830  58.662 -51.790  1.00  0.00     0.047 A 
HETATM   19  C   UNL     1     -41.943  57.587 -51.610  1.00  0.00     0.041 A 
HETATM   20  C   UNL     1     -40.795  57.500 -52.403  1.00  0.00     0.018 A 
HETATM   21  C   UNL     1     -40.541  58.483 -53.359  1.00  0.00     0.003 A 
HETATM   22  C   UNL     1     -41.438  59.541 -53.536  1.00  0.00     0.029 A 
BRANCH  19  23
HETATM   23  C   UNL     1     -42.285  56.580 -50.569  1.00  0.00     0.293 C 
HETATM   24  O   UNL     1     -41.466  56.152 -49.769  1.00  0.00    -0.259 OA
BRANCH  23  25
HETATM   25  O   UNL     1     -43.589  56.229 -50.649  1.00  0.00    -0.323 OA
HETATM   26  C   UNL     1     -43.826  54.822 -50.581  1.00  0.00     0.213 C 
ENDBRANCH  23  25
ENDBRANCH  19  23
ENDBRANCH  15  17
ENDBRANCH  13  15
ENDBRANCH  11  13
ENDBRANCH  10  11
ENDBRANCH   4  10
BRANCH   1  27
HETATM   27  C   UNL     1     -42.822  56.392 -55.975  1.00  0.00     0.038 C 
HETATM   28  N   UNL     1     -43.593  56.270 -54.841  1.00  0.00    -0.277 N 
HETATM   29  C   UNL     1     -44.760  56.991 -54.395  1.00  0.00     0.179 C 
HETATM   30  N   UNL     1     -43.178  55.286 -54.026  1.00  0.00    -0.172 NA
HETATM   31  C   UNL     1     -42.027  54.844 -54.537  1.00  0.00     0.089 C 
HETATM   32  C   UNL     1     -41.764  55.518 -55.751  1.00  0.00     0.061 C 
BRANCH  31  33
HETATM   33  C   UNL     1     -41.248  53.782 -53.900  1.00  0.00    -0.005 A 
HETATM   34  C   UNL     1     -40.902  53.870 -52.546  1.00  0.00     0.016 A 
HETATM   35  C   UNL     1     -40.200  52.834 -51.923  1.00  0.00     0.037 A 
HETATM   36  C   UNL     1     -39.829  51.695 -52.637  1.00  0.00     0.068 A 
HETATM   37  C   UNL     1     -40.141  51.611 -53.993  1.00  0.00     0.037 A 
HETATM   38  C   UNL     1     -40.847  52.648 -54.620  1.00  0.00     0.016 A 
BRANCH  36  39
HETATM   39  O   UNL     1     -39.166  50.750 -51.907  1.00  0.00    -0.356 OA
HETATM   40  C   UNL     1     -39.547  49.395 -52.113  1.00  0.00     0.210 C 
ENDBRANCH  36  39
ENDBRANCH  31  33
ENDBRANCH   1  27
TORSDOF 10
ENDMDL
MODEL 6
REMARK VINA RESULT:      -7.2      3.575      6.823
REMARK  10 active torsions:
REMARK  status: ('A' for Active; 'I' for Inactive)
REMARK    1  A    between atoms: C_4  and  C_5 
REMARK    2  A    between atoms: C_8  and  O_9 
REMARK    3  A    between atoms: C_14  and  C_15 
REMARK    4  A    between atoms: C_18  and  C_19 
REMARK    5  A    between atoms: C_19  and  N_20 
REMARK    6  A    between atoms: N_20  and  C_21 
REMARK    7  A    between atoms: C_21  and  N_22 
REMARK    8  A    between atoms: N_22  and  C_23 
REMARK    9  A    between atoms: C_25  and  C_26 
REMARK   10  A    between atoms: C_26  and  O_27 
ROOT
HETATM    1  C   UNL     1     -42.420  58.417 -53.504  1.00  0.00     0.067 C 
HETATM    2  C   UNL     1     -43.868  58.929 -53.628  1.00  0.00     0.001 C 
HETATM    3  C   UNL     1     -44.144  59.553 -55.012  1.00  0.00     0.040 C 
HETATM    4  C   UNL     1     -43.264  60.784 -55.276  1.00  0.00     0.206 C 
HETATM    5  N   UNL     1     -42.212  60.818 -54.169  1.00  0.00    -0.065 N 
HETATM    6  H   UNL     1     -41.530  61.563 -54.369  1.00  0.00     0.280 HD
HETATM    7  C   UNL     1     -41.455  59.491 -54.054  1.00  0.00     0.246 C 
HETATM    8  C   UNL     1     -44.002  60.095 -52.611  1.00  0.00     0.033 C 
HETATM    9  C   UNL     1     -42.898  61.137 -52.844  1.00  0.00     0.236 C 
ENDROOT
BRANCH   4  10
HETATM   10  C   UNL     1     -42.636  60.810 -56.689  1.00  0.00     0.155 C 
BRANCH  10  11
HETATM   11  N   UNL     1     -43.551  61.337 -57.699  1.00  0.00    -0.365 N 
HETATM   12  H   UNL     1     -44.287  61.960 -57.375  1.00  0.00     0.161 HD
BRANCH  11  13
HETATM   13  C   UNL     1     -43.264  61.530 -59.023  1.00  0.00     0.172 C 
HETATM   14  S   UNL     1     -42.459  62.853 -59.650  1.00  0.00    -0.041 SA
BRANCH  13  15
HETATM   15  N   UNL     1     -43.694  60.575 -59.900  1.00  0.00    -0.333 N 
HETATM   16  H   UNL     1     -44.192  60.972 -60.694  1.00  0.00     0.168 HD
BRANCH  15  17
HETATM   17  C   UNL     1     -43.453  59.186 -59.980  1.00  0.00     0.035 A 
HETATM   18  C   UNL     1     -44.449  58.213 -59.896  1.00  0.00     0.047 A 
HETATM   19  C   UNL     1     -44.137  56.845 -59.965  1.00  0.00     0.041 A 
HETATM   20  C   UNL     1     -42.804  56.446 -60.091  1.00  0.00     0.018 A 
HETATM   21  C   UNL     1     -41.798  57.411 -60.141  1.00  0.00     0.003 A 
HETATM   22  C   UNL     1     -42.122  58.770 -60.084  1.00  0.00     0.029 A 
BRANCH  19  23
HETATM   23  C   UNL     1     -45.268  55.879 -59.904  1.00  0.00     0.293 C 
HETATM   24  O   UNL     1     -45.108  54.668 -59.969  1.00  0.00    -0.259 OA
BRANCH  23  25
HETATM   25  O   UNL     1     -46.448  56.527 -59.774  1.00  0.00    -0.323 OA
HETATM   26  C   UNL     1     -47.356  56.321 -60.858  1.00  0.00     0.213 C 
ENDBRANCH  23  25
ENDBRANCH  19  23
ENDBRANCH  15  17
ENDBRANCH  13  15
ENDBRANCH  11  13
ENDBRANCH  10  11
ENDBRANCH   4  10
BRANCH   1  27
HETATM   27  C   UNL     1     -42.038  57.032 -53.950  1.00  0.00     0.038 C 
HETATM   28  N   UNL     1     -41.960  56.459 -55.199  1.00  0.00    -0.277 N 
HETATM   29  C   UNL     1     -42.350  56.945 -56.500  1.00  0.00     0.179 C 
HETATM   30  N   UNL     1     -41.403  55.237 -55.184  1.00  0.00    -0.172 NA
HETATM   31  C   UNL     1     -41.248  54.918 -53.897  1.00  0.00     0.089 C 
HETATM   32  C   UNL     1     -41.642  56.011 -53.093  1.00  0.00     0.061 C 
BRANCH  31  33
HETATM   33  C   UNL     1     -40.693  53.632 -53.474  1.00  0.00    -0.005 A 
HETATM   34  C   UNL     1     -40.537  53.339 -52.114  1.00  0.00     0.016 A 
HETATM   35  C   UNL     1     -40.053  52.092 -51.706  1.00  0.00     0.037 A 
HETATM   36  C   UNL     1     -39.716  51.118 -52.645  1.00  0.00     0.068 A 
HETATM   37  C   UNL     1     -39.838  51.410 -54.002  1.00  0.00     0.037 A 
HETATM   38  C   UNL     1     -40.325  52.659 -54.414  1.00  0.00     0.016 A 
BRANCH  36  39
HETATM   39  O   UNL     1     -39.276  49.938 -52.115  1.00  0.00    -0.356 OA
HETATM   40  C   UNL     1     -39.503  49.733 -50.727  1.00  0.00     0.210 C 
ENDBRANCH  36  39
ENDBRANCH  31  33
ENDBRANCH   1  27
TORSDOF 10
ENDMDL
MODEL 7
REMARK VINA RESULT:      -7.2      2.261      3.771
REMARK  10 active torsions:
REMARK  status: ('A' for Active; 'I' for Inactive)
REMARK    1  A    between atoms: C_4  and  C_5 
REMARK    2  A    between atoms: C_8  and  O_9 
REMARK    3  A    between atoms: C_14  and  C_15 
REMARK    4  A    between atoms: C_18  and  C_19 
REMARK    5  A    between atoms: C_19  and  N_20 
REMARK    6  A    between atoms: N_20  and  C_21 
REMARK    7  A    between atoms: C_21  and  N_22 
REMARK    8  A    between atoms: N_22  and  C_23 
REMARK    9  A    between atoms: C_25  and  C_26 
REMARK   10  A    between atoms: C_26  and  O_27 
ROOT
HETATM    1  C   UNL     1     -43.897  57.136 -55.884  1.00  0.00     0.067 C 
HETATM    2  C   UNL     1     -43.715  58.274 -56.906  1.00  0.00     0.001 C 
HETATM    3  C   UNL     1     -43.759  59.663 -56.237  1.00  0.00     0.040 C 
HETATM    4  C   UNL     1     -45.116  59.941 -55.572  1.00  0.00     0.206 C 
HETATM    5  N   UNL     1     -45.884  58.621 -55.573  1.00  0.00    -0.065 N 
HETATM    6  H   UNL     1     -46.755  58.732 -55.035  1.00  0.00     0.280 HD
HETATM    7  C   UNL     1     -45.073  57.484 -54.944  1.00  0.00     0.246 C 
HETATM    8  C   UNL     1     -44.956  58.220 -57.838  1.00  0.00     0.033 C 
HETATM    9  C   UNL     1     -46.249  58.261 -57.009  1.00  0.00     0.236 C 
ENDROOT
BRANCH   4  10
HETATM   10  C   UNL     1     -45.003  60.559 -54.159  1.00  0.00     0.155 C 
BRANCH  10  11
HETATM   11  N   UNL     1     -43.662  61.067 -53.876  1.00  0.00    -0.365 N 
HETATM   12  H   UNL     1     -43.032  61.171 -54.667  1.00  0.00     0.161 HD
BRANCH  11  13
HETATM   13  C   UNL     1     -43.315  61.883 -52.834  1.00  0.00     0.172 C 
HETATM   14  S   UNL     1     -43.200  63.547 -52.912  1.00  0.00    -0.041 SA
BRANCH  13  15
HETATM   15  N   UNL     1     -43.014  61.282 -51.644  1.00  0.00    -0.333 N 
HETATM   16  H   UNL     1     -43.261  61.859 -50.844  1.00  0.00     0.168 HD
BRANCH  15  17
HETATM   17  C   UNL     1     -42.569  59.980 -51.327  1.00  0.00     0.035 A 
HETATM   18  C   UNL     1     -43.399  58.860 -51.278  1.00  0.00     0.047 A 
HETATM   19  C   UNL     1     -42.893  57.594 -50.937  1.00  0.00     0.041 A 
HETATM   20  C   UNL     1     -41.540  57.456 -50.611  1.00  0.00     0.018 A 
HETATM   21  C   UNL     1     -40.710  58.577 -50.624  1.00  0.00     0.003 A 
HETATM   22  C   UNL     1     -41.223  59.829 -50.977  1.00  0.00     0.029 A 
BRANCH  19  23
HETATM   23  C   UNL     1     -43.843  56.449 -50.946  1.00  0.00     0.293 C 
HETATM   24  O   UNL     1     -45.008  56.553 -50.589  1.00  0.00    -0.259 OA
BRANCH  23  25
HETATM   25  O   UNL     1     -43.237  55.324 -51.391  1.00  0.00    -0.323 OA
HETATM   26  C   UNL     1     -43.887  54.112 -51.005  1.00  0.00     0.213 C 
ENDBRANCH  23  25
ENDBRANCH  19  23
ENDBRANCH  15  17
ENDBRANCH  13  15
ENDBRANCH  11  13
ENDBRANCH  10  11
ENDBRANCH   4  10
BRANCH   1  27
HETATM   27  C   UNL     1     -42.726  56.559 -55.136  1.00  0.00     0.038 C 
HETATM   28  N   UNL     1     -41.695  57.155 -54.446  1.00  0.00    -0.277 N 
HETATM   29  C   UNL     1     -41.302  58.537 -54.318  1.00  0.00     0.179 C 
HETATM   30  N   UNL     1     -40.942  56.277 -53.763  1.00  0.00    -0.172 NA
HETATM   31  C   UNL     1     -41.373  55.065 -54.120  1.00  0.00     0.089 C 
HETATM   32  C   UNL     1     -42.482  55.198 -54.985  1.00  0.00     0.061 C 
BRANCH  31  33
HETATM   33  C   UNL     1     -40.765  53.839 -53.602  1.00  0.00    -0.005 A 
HETATM   34  C   UNL     1     -40.419  53.734 -52.250  1.00  0.00     0.016 A 
HETATM   35  C   UNL     1     -39.883  52.547 -51.743  1.00  0.00     0.037 A 
HETATM   36  C   UNL     1     -39.683  51.444 -52.574  1.00  0.00     0.068 A 
HETATM   37  C   UNL     1     -39.996  51.548 -53.928  1.00  0.00     0.037 A 
HETATM   38  C   UNL     1     -40.535  52.737 -54.439  1.00  0.00     0.016 A 
BRANCH  36  39
HETATM   39  O   UNL     1     -39.174  50.340 -51.950  1.00  0.00    -0.356 OA
HETATM   40  C   UNL     1     -39.773  49.966 -50.716  1.00  0.00     0.210 C 
ENDBRANCH  36  39
ENDBRANCH  31  33
ENDBRANCH   1  27
TORSDOF 10
ENDMDL
MODEL 8
REMARK VINA RESULT:      -7.2      3.987      7.256
REMARK  10 active torsions:
REMARK  status: ('A' for Active; 'I' for Inactive)
REMARK    1  A    between atoms: C_4  and  C_5 
REMARK    2  A    between atoms: C_8  and  O_9 
REMARK    3  A    between atoms: C_14  and  C_15 
REMARK    4  A    between atoms: C_18  and  C_19 
REMARK    5  A    between atoms: C_19  and  N_20 
REMARK    6  A    between atoms: N_20  and  C_21 
REMARK    7  A    between atoms: C_21  and  N_22 
REMARK    8  A    between atoms: N_22  and  C_23 
REMARK    9  A    between atoms: C_25  and  C_26 
REMARK   10  A    between atoms: C_26  and  O_27 
ROOT
HETATM    1  C   UNL     1     -43.019  59.081 -53.454  1.00  0.00     0.067 C 
HETATM    2  C   UNL     1     -44.286  59.487 -54.231  1.00  0.00     0.001 C 
HETATM    3  C   UNL     1     -44.149  59.215 -55.743  1.00  0.00     0.040 C 
HETATM    4  C   UNL     1     -43.015  60.036 -56.377  1.00  0.00     0.206 C 
HETATM    5  N   UNL     1     -42.226  60.656 -55.226  1.00  0.00    -0.065 N 
HETATM    6  H   UNL     1     -41.388  61.123 -55.600  1.00  0.00     0.280 HD
HETATM    7  C   UNL     1     -41.775  59.606 -54.205  1.00  0.00     0.246 C 
HETATM    8  C   UNL     1     -44.401  61.029 -54.094  1.00  0.00     0.033 C 
HETATM    9  C   UNL     1     -43.094  61.704 -54.538  1.00  0.00     0.236 C 
ENDROOT
BRANCH   4  10
HETATM   10  C   UNL     1     -42.118  59.221 -57.337  1.00  0.00     0.155 C 
BRANCH  10  11
HETATM   11  N   UNL     1     -41.887  59.909 -58.607  1.00  0.00    -0.365 N 
HETATM   12  H   UNL     1     -41.198  60.656 -58.608  1.00  0.00     0.161 HD
BRANCH  11  13
HETATM   13  C   UNL     1     -42.068  59.376 -59.854  1.00  0.00     0.172 C 
HETATM   14  S   UNL     1     -42.233  60.260 -61.262  1.00  0.00    -0.041 SA
BRANCH  13  15
HETATM   15  N   UNL     1     -42.144  58.016 -59.947  1.00  0.00    -0.333 N 
HETATM   16  H   UNL     1     -41.235  57.568 -59.849  1.00  0.00     0.168 HD
BRANCH  15  17
HETATM   17  C   UNL     1     -43.243  57.131 -60.007  1.00  0.00     0.035 A 
HETATM   18  C   UNL     1     -44.551  57.525 -60.287  1.00  0.00     0.047 A 
HETATM   19  C   UNL     1     -45.602  56.593 -60.313  1.00  0.00     0.041 A 
HETATM   20  C   UNL     1     -45.341  55.251 -60.024  1.00  0.00     0.018 A 
HETATM   21  C   UNL     1     -44.042  54.853 -59.708  1.00  0.00     0.003 A 
HETATM   22  C   UNL     1     -43.002  55.788 -59.698  1.00  0.00     0.029 A 
BRANCH  19  23
HETATM   23  C   UNL     1     -46.958  57.098 -60.658  1.00  0.00     0.293 C 
HETATM   24  O   UNL     1     -47.771  56.434 -61.286  1.00  0.00    -0.259 OA
BRANCH  23  25
HETATM   25  O   UNL     1     -47.139  58.354 -60.189  1.00  0.00    -0.323 OA
HETATM   26  C   UNL     1     -47.925  59.193 -61.037  1.00  0.00     0.213 C 
ENDBRANCH  23  25
ENDBRANCH  19  23
ENDBRANCH  15  17
ENDBRANCH  13  15
ENDBRANCH  11  13
ENDBRANCH  10  11
ENDBRANCH   4  10
BRANCH   1  27
HETATM   27  C   UNL     1     -42.825  57.677 -52.949  1.00  0.00     0.038 C 
HETATM   28  N   UNL     1     -43.516  56.932 -52.021  1.00  0.00    -0.277 N 
HETATM   29  C   UNL     1     -44.580  57.283 -51.112  1.00  0.00     0.179 C 
HETATM   30  N   UNL     1     -43.128  55.647 -51.984  1.00  0.00    -0.172 NA
HETATM   31  C   UNL     1     -42.061  55.560 -52.781  1.00  0.00     0.089 C 
HETATM   32  C   UNL     1     -41.832  56.811 -53.396  1.00  0.00     0.061 C 
BRANCH  31  33
HETATM   33  C   UNL     1     -41.331  54.306 -52.973  1.00  0.00    -0.005 A 
HETATM   34  C   UNL     1     -41.136  53.788 -54.258  1.00  0.00     0.016 A 
HETATM   35  C   UNL     1     -40.398  52.616 -54.448  1.00  0.00     0.037 A 
HETATM   36  C   UNL     1     -39.843  51.941 -53.362  1.00  0.00     0.068 A 
HETATM   37  C   UNL     1     -40.057  52.431 -52.074  1.00  0.00     0.037 A 
HETATM   38  C   UNL     1     -40.796  53.607 -51.882  1.00  0.00     0.016 A 
BRANCH  36  39
HETATM   39  O   UNL     1     -39.128  50.822 -53.685  1.00  0.00    -0.356 OA
HETATM   40  C   UNL     1     -39.796  49.835 -54.460  1.00  0.00     0.210 C 
ENDBRANCH  36  39
ENDBRANCH  31  33
ENDBRANCH   1  27
TORSDOF 10
ENDMDL
MODEL 9
REMARK VINA RESULT:      -7.1      3.599      6.708
REMARK  10 active torsions:
REMARK  status: ('A' for Active; 'I' for Inactive)
REMARK    1  A    between atoms: C_4  and  C_5 
REMARK    2  A    between atoms: C_8  and  O_9 
REMARK    3  A    between atoms: C_14  and  C_15 
REMARK    4  A    between atoms: C_18  and  C_19 
REMARK    5  A    between atoms: C_19  and  N_20 
REMARK    6  A    between atoms: N_20  and  C_21 
REMARK    7  A    between atoms: C_21  and  N_22 
REMARK    8  A    between atoms: N_22  and  C_23 
REMARK    9  A    between atoms: C_25  and  C_26 
REMARK   10  A    between atoms: C_26  and  O_27 
ROOT
HETATM    1  C   UNL     1     -43.519  59.763 -53.255  1.00  0.00     0.067 C 
HETATM    2  C   UNL     1     -44.758  60.203 -54.058  1.00  0.00     0.001 C 
HETATM    3  C   UNL     1     -44.497  60.191 -55.578  1.00  0.00     0.040 C 
HETATM    4  C   UNL     1     -43.391  61.178 -55.982  1.00  0.00     0.206 C 
HETATM    5  N   UNL     1     -42.734  61.655 -54.689  1.00  0.00    -0.065 N 
HETATM    6  H   UNL     1     -41.912  62.232 -54.916  1.00  0.00     0.280 HD
HETATM    7  C   UNL     1     -42.273  60.486 -53.813  1.00  0.00     0.246 C 
HETATM    8  C   UNL     1     -45.004  61.692 -53.690  1.00  0.00     0.033 C 
HETATM    9  C   UNL     1     -43.728  62.517 -53.917  1.00  0.00     0.236 C 
ENDROOT
BRANCH   4  10
HETATM   10  C   UNL     1     -42.368  60.593 -56.984  1.00  0.00     0.155 C 
BRANCH  10  11
HETATM   11  N   UNL     1     -42.927  60.433 -58.326  1.00  0.00    -0.365 N 
HETATM   12  H   UNL     1     -43.847  60.831 -58.492  1.00  0.00     0.161 HD
BRANCH  11  13
HETATM   13  C   UNL     1     -42.211  60.296 -59.484  1.00  0.00     0.172 C 
HETATM   14  S   UNL     1     -41.560  61.555 -60.367  1.00  0.00    -0.041 SA
BRANCH  13  15
HETATM   15  N   UNL     1     -42.041  59.029 -59.965  1.00  0.00    -0.333 N 
HETATM   16  H   UNL     1     -41.251  58.958 -60.602  1.00  0.00     0.168 HD
BRANCH  15  17
HETATM   17  C   UNL     1     -42.655  57.800 -59.636  1.00  0.00     0.035 A 
HETATM   18  C   UNL     1     -43.651  57.194 -60.402  1.00  0.00     0.047 A 
HETATM   19  C   UNL     1     -44.233  55.978 -60.006  1.00  0.00     0.041 A 
HETATM   20  C   UNL     1     -43.831  55.377 -58.810  1.00  0.00     0.018 A 
HETATM   21  C   UNL     1     -42.861  55.994 -58.020  1.00  0.00     0.003 A 
HETATM   22  C   UNL     1     -42.280  57.198 -58.431  1.00  0.00     0.029 A 
BRANCH  19  23
HETATM   23  C   UNL     1     -45.260  55.384 -60.904  1.00  0.00     0.293 C 
HETATM   24  O   UNL     1     -44.977  54.805 -61.943  1.00  0.00    -0.259 OA
BRANCH  23  25
HETATM   25  O   UNL     1     -46.504  55.583 -60.410  1.00  0.00    -0.323 OA
HETATM   26  C   UNL     1     -47.328  56.434 -61.209  1.00  0.00     0.213 C 
ENDBRANCH  23  25
ENDBRANCH  19  23
ENDBRANCH  15  17
ENDBRANCH  13  15
ENDBRANCH  11  13
ENDBRANCH  10  11
ENDBRANCH   4  10
BRANCH   1  27
HETATM   27  C   UNL     1     -43.249  58.312 -52.964  1.00  0.00     0.038 C 
HETATM   28  N   UNL     1     -43.866  57.416 -52.121  1.00  0.00    -0.277 N 
HETATM   29  C   UNL     1     -44.895  57.590 -51.125  1.00  0.00     0.179 C 
HETATM   30  N   UNL     1     -43.430  56.155 -52.283  1.00  0.00    -0.172 NA
HETATM   31  C   UNL     1     -42.401  56.227 -53.131  1.00  0.00     0.089 C 
HETATM   32  C   UNL     1     -42.249  57.561 -53.572  1.00  0.00     0.061 C 
BRANCH  31  33
HETATM   33  C   UNL     1     -41.636  55.045 -53.530  1.00  0.00    -0.005 A 
HETATM   34  C   UNL     1     -41.680  53.877 -52.759  1.00  0.00     0.016 A 
HETATM   35  C   UNL     1     -40.989  52.731 -53.163  1.00  0.00     0.037 A 
HETATM   36  C   UNL     1     -40.242  52.730 -54.341  1.00  0.00     0.068 A 
HETATM   37  C   UNL     1     -40.166  53.896 -55.100  1.00  0.00     0.037 A 
HETATM   38  C   UNL     1     -40.859  55.047 -54.697  1.00  0.00     0.016 A 
BRANCH  36  39
HETATM   39  O   UNL     1     -39.633  51.542 -54.633  1.00  0.00    -0.356 OA
HETATM   40  C   UNL     1     -40.319  50.357 -54.248  1.00  0.00     0.210 C 
ENDBRANCH  36  39
ENDBRANCH  31  33
ENDBRANCH   1  27
TORSDOF 10
ENDMDL
MODEL 10
REMARK VINA RESULT:      -7.0      3.713      7.150
REMARK  10 active torsions:
REMARK  status: ('A' for Active; 'I' for Inactive)
REMARK    1  A    between atoms: C_4  and  C_5 
REMARK    2  A    between atoms: C_8  and  O_9 
REMARK    3  A    between atoms: C_14  and  C_15 
REMARK    4  A    between atoms: C_18  and  C_19 
REMARK    5  A    between atoms: C_19  and  N_20 
REMARK    6  A    between atoms: N_20  and  C_21 
REMARK    7  A    between atoms: C_21  and  N_22 
REMARK    8  A    between atoms: N_22  and  C_23 
REMARK    9  A    between atoms: C_25  and  C_26 
REMARK   10  A    between atoms: C_26  and  O_27 
ROOT
HETATM    1  C   UNL     1     -42.825  58.966 -53.251  1.00  0.00     0.067 C 
HETATM    2  C   UNL     1     -44.106  59.378 -54.001  1.00  0.00     0.001 C 
HETATM    3  C   UNL     1     -44.077  58.936 -55.479  1.00  0.00     0.040 C 
HETATM    4  C   UNL     1     -42.930  59.598 -56.258  1.00  0.00     0.206 C 
HETATM    5  N   UNL     1     -42.034  60.278 -55.226  1.00  0.00    -0.065 N 
HETATM    6  H   UNL     1     -41.190  60.640 -55.692  1.00  0.00     0.280 HD
HETATM    7  C   UNL     1     -41.595  59.314 -54.120  1.00  0.00     0.246 C 
HETATM    8  C   UNL     1     -44.107  60.931 -54.031  1.00  0.00     0.033 C 
HETATM    9  C   UNL     1     -42.786  61.456 -54.615  1.00  0.00     0.236 C 
ENDROOT
BRANCH   4  10
HETATM   10  C   UNL     1     -42.149  58.622 -57.168  1.00  0.00     0.155 C 
BRANCH  10  11
HETATM   11  N   UNL     1     -41.978  57.304 -56.558  1.00  0.00    -0.365 N 
HETATM   12  H   UNL     1     -41.790  57.279 -55.559  1.00  0.00     0.161 HD
BRANCH  11  13
HETATM   13  C   UNL     1     -42.527  56.133 -57.005  1.00  0.00     0.172 C 
HETATM   14  S   UNL     1     -42.953  54.840 -56.038  1.00  0.00    -0.041 SA
BRANCH  13  15
HETATM   15  N   UNL     1     -42.715  56.007 -58.352  1.00  0.00    -0.333 N 
HETATM   16  H   UNL     1     -41.862  55.744 -58.841  1.00  0.00     0.168 HD
BRANCH  15  17
HETATM   17  C   UNL     1     -43.879  56.030 -59.152  1.00  0.00     0.035 A 
HETATM   18  C   UNL     1     -44.862  57.016 -59.074  1.00  0.00     0.047 A 
HETATM   19  C   UNL     1     -46.006  56.969 -59.888  1.00  0.00     0.041 A 
HETATM   20  C   UNL     1     -46.180  55.900 -60.772  1.00  0.00     0.018 A 
HETATM   21  C   UNL     1     -45.220  54.891 -60.832  1.00  0.00     0.003 A 
HETATM   22  C   UNL     1     -44.079  54.956 -60.025  1.00  0.00     0.029 A 
BRANCH  19  23
HETATM   23  C   UNL     1     -46.984  58.083 -59.765  1.00  0.00     0.293 C 
HETATM   24  O   UNL     1     -47.287  58.582 -58.690  1.00  0.00    -0.259 OA
BRANCH  23  25
HETATM   25  O   UNL     1     -47.465  58.439 -60.978  1.00  0.00    -0.323 OA
HETATM   26  C   UNL     1     -47.073  59.743 -61.409  1.00  0.00     0.213 C 
ENDBRANCH  23  25
ENDBRANCH  19  23
ENDBRANCH  15  17
ENDBRANCH  13  15
ENDBRANCH  11  13
ENDBRANCH  10  11
ENDBRANCH   4  10
BRANCH   1  27
HETATM   27  C   UNL     1     -42.696  57.613 -52.605  1.00  0.00     0.038 C 
HETATM   28  N   UNL     1     -43.511  56.936 -51.725  1.00  0.00    -0.277 N 
HETATM   29  C   UNL     1     -44.698  57.342 -51.014  1.00  0.00     0.179 C 
HETATM   30  N   UNL     1     -43.123  55.666 -51.521  1.00  0.00    -0.172 NA
HETATM   31  C   UNL     1     -41.950  55.533 -52.145  1.00  0.00     0.089 C 
HETATM   32  C   UNL     1     -41.643  56.733 -52.826  1.00  0.00     0.061 C 
BRANCH  31  33
HETATM   33  C   UNL     1     -41.191  54.282 -52.120  1.00  0.00    -0.005 A 
HETATM   34  C   UNL     1     -40.916  53.644 -50.905  1.00  0.00     0.016 A 
HETATM   35  C   UNL     1     -40.233  52.424 -50.882  1.00  0.00     0.037 A 
HETATM   36  C   UNL     1     -39.813  51.821 -52.067  1.00  0.00     0.068 A 
HETATM   37  C   UNL     1     -40.055  52.463 -53.280  1.00  0.00     0.037 A 
HETATM   38  C   UNL     1     -40.741  53.686 -53.306  1.00  0.00     0.016 A 
BRANCH  36  39
HETATM   39  O   UNL     1     -39.176  50.623 -51.907  1.00  0.00    -0.356 OA
HETATM   40  C   UNL     1     -39.592  49.815 -50.813  1.00  0.00     0.210 C 
ENDBRANCH  36  39
ENDBRANCH  31  33
ENDBRANCH   1  27
TORSDOF 10
ENDMDL
