MODEL 1
REMARK VINA RESULT:      -8.3      0.000      0.000
REMARK  6 active torsions:
REMARK  status: ('A' for Active; 'I' for Inactive)
REMARK    1  A    between atoms: C_4  and  N_5 
REMARK       I    between atoms: N_5  and  C_6 
REMARK       I    between atoms: C_6  and  N_16 
REMARK    2  A    between atoms: N_16  and  CA_17 
REMARK    3  A    between atoms: CA_17  and  C_18 
REMARK    4  A    between atoms: CA_17  and  CB_20 
REMARK    5  A    between atoms: C_18  and  O_19 
REMARK    6  A    between atoms: CB_20  and  CG_21 
ROOT
HETATM    1  N   UNK A   0     -43.470  55.177 -53.334  1.00  0.00    -0.307 N 
HETATM    2  C   UNK A   0     -43.719  56.194 -54.195  1.00  0.00     0.321 C 
HETATM    3  O   UNK A   0     -44.876  56.577 -54.362  1.00  0.00    -0.247 OA
HETATM    4  H   UNK A   0     -44.286  54.939 -52.772  1.00  0.00     0.170 HD
ATOM      5  N   TRP A   1     -42.660  56.776 -54.817  1.00  0.00    -0.336 N 
ATOM      6  H   TRP A   1     -41.803  56.789 -54.281  1.00  0.00     0.164 HD
ENDROOT
BRANCH   5   7
ATOM      7  CA  TRP A   1     -42.840  57.947 -55.687  1.00  0.00     0.114 C 
BRANCH   7   8
ATOM      8  C   TRP A   1     -42.607  57.527 -57.147  1.00  0.00     0.189 C 
BRANCH   8   9
ATOM      9  O   TRP A   1     -42.148  56.174 -57.220  1.00  0.00    -0.399 OA
ATOM     10  H   TRP A   1     -42.924  55.637 -57.457  1.00  0.00     0.209 HD
ENDBRANCH   8   9
ENDBRANCH   7   8
BRANCH   7  11
ATOM     11  CB  TRP A   1     -41.909  59.096 -55.246  1.00  0.00     0.068 C 
BRANCH  11  12
ATOM     12  CG  TRP A   1     -42.259  59.666 -53.904  1.00  0.00    -0.028 A 
ATOM     13  CD2 TRP A   1     -41.551  59.490 -52.671  1.00  0.00    -0.002 A 
ATOM     14  CE2 TRP A   1     -42.251  60.186 -51.685  1.00  0.00     0.042 A 
ATOM     15  CE3 TRP A   1     -40.380  58.798 -52.300  1.00  0.00     0.014 A 
ATOM     16  CZ2 TRP A   1     -41.841  60.224 -50.346  1.00  0.00     0.030 A 
ATOM     17  NE1 TRP A   1     -43.342  60.762 -52.292  1.00  0.00    -0.365 N 
ATOM     18  CH2 TRP A   1     -40.677  59.530 -50.006  1.00  0.00     0.002 A 
ATOM     19  CZ3 TRP A   1     -39.954  58.827 -50.967  1.00  0.00     0.001 A 
ATOM     20  HE1 TRP A   1     -44.035  61.322 -51.815  1.00  0.00     0.165 HD
ATOM     21  CD1 TRP A   1     -43.355  60.458 -53.625  1.00  0.00     0.096 A 
ENDBRANCH  11  12
ENDBRANCH   7  11
ENDBRANCH   5   7
BRANCH   1  22
HETATM   22  C   UNK A   0     -42.350  54.362 -53.048  1.00  0.00     0.066 A 
HETATM   23  C   UNK A   0     -41.886  53.344 -53.890  1.00  0.00     0.038 A 
HETATM   24  C   UNK A   0     -40.762  52.586 -53.540  1.00  0.00    -0.059 A 
HETATM   25  C   UNK A   0     -40.270  51.485 -54.433  1.00  0.00     0.048 C 
HETATM   26  C   UNK A   0     -40.138  52.824 -52.312  1.00  0.00     0.020 A 
HETATM   27  C   UNK A   0     -40.621  53.814 -51.443  1.00  0.00    -0.005 A 
HETATM   28  C   UNK A   0     -41.739  54.595 -51.803  1.00  0.00     0.093 A 
HETATM   29  C   UNK A   0     -40.018  54.049 -50.199  1.00  0.00     0.015 A 
HETATM   30  N   UNK A   0     -42.227  55.552 -50.975  1.00  0.00    -0.258 NA
HETATM   31  C   UNK A   0     -41.620  55.748 -49.786  1.00  0.00     0.117 A 
HETATM   32  C   UNK A   0     -40.523  55.029 -49.356  1.00  0.00     0.020 A 
ENDBRANCH   1  22
TORSDOF 6
ENDMDL
MODEL 2
REMARK VINA RESULT:      -8.2      2.609      7.242
REMARK  6 active torsions:
REMARK  status: ('A' for Active; 'I' for Inactive)
REMARK    1  A    between atoms: C_4  and  N_5 
REMARK       I    between atoms: N_5  and  C_6 
REMARK       I    between atoms: C_6  and  N_16 
REMARK    2  A    between atoms: N_16  and  CA_17 
REMARK    3  A    between atoms: CA_17  and  C_18 
REMARK    4  A    between atoms: CA_17  and  CB_20 
REMARK    5  A    between atoms: C_18  and  O_19 
REMARK    6  A    between atoms: CB_20  and  CG_21 
ROOT
HETATM    1  N   UNK A   0     -44.006  55.726 -51.960  1.00  0.00    -0.307 N 
HETATM    2  C   UNK A   0     -43.407  55.018 -50.971  1.00  0.00     0.321 C 
HETATM    3  O   UNK A   0     -44.099  54.378 -50.180  1.00  0.00    -0.247 OA
HETATM    4  H   UNK A   0     -44.998  55.509 -52.043  1.00  0.00     0.170 HD
ATOM      5  N   TRP A   1     -42.049  55.019 -50.918  1.00  0.00    -0.336 N 
ATOM      6  H   TRP A   1     -41.587  55.094 -51.814  1.00  0.00     0.164 HD
ENDROOT
BRANCH   5   7
ATOM      7  CA  TRP A   1     -41.327  54.197 -49.938  1.00  0.00     0.114 C 
BRANCH   7   8
ATOM      8  C   TRP A   1     -41.167  54.997 -48.635  1.00  0.00     0.189 C 
BRANCH   8   9
ATOM      9  O   TRP A   1     -40.661  54.167 -47.587  1.00  0.00    -0.399 OA
ATOM     10  H   TRP A   1     -40.575  54.739 -46.804  1.00  0.00     0.209 HD
ENDBRANCH   8   9
ENDBRANCH   7   8
BRANCH   7  11
ATOM     11  CB  TRP A   1     -39.974  53.730 -50.516  1.00  0.00     0.068 C 
BRANCH  11  12
ATOM     12  CG  TRP A   1     -40.079  53.164 -51.901  1.00  0.00    -0.028 A 
ATOM     13  CD2 TRP A   1     -39.884  51.804 -52.303  1.00  0.00    -0.002 A 
ATOM     14  CE2 TRP A   1     -40.065  51.748 -53.686  1.00  0.00     0.042 A 
ATOM     15  CE3 TRP A   1     -39.566  50.612 -51.620  1.00  0.00     0.014 A 
ATOM     16  CZ2 TRP A   1     -39.942  50.562 -54.421  1.00  0.00     0.030 A 
ATOM     17  NE1 TRP A   1     -40.357  53.024 -54.108  1.00  0.00    -0.365 N 
ATOM     18  CH2 TRP A   1     -39.626  49.396 -53.718  1.00  0.00     0.002 A 
ATOM     19  CZ3 TRP A   1     -39.441  49.417 -52.338  1.00  0.00     0.001 A 
ATOM     20  HE1 TRP A   1     -40.527  53.285 -55.069  1.00  0.00     0.165 HD
ATOM     21  CD1 TRP A   1     -40.370  53.882 -53.044  1.00  0.00     0.096 A 
ENDBRANCH  11  12
ENDBRANCH   7  11
ENDBRANCH   5   7
BRANCH   1  22
HETATM   22  C   UNK A   0     -43.579  56.704 -52.887  1.00  0.00     0.066 A 
HETATM   23  C   UNK A   0     -43.474  58.070 -52.595  1.00  0.00     0.038 A 
HETATM   24  C   UNK A   0     -43.032  58.975 -53.567  1.00  0.00    -0.059 A 
HETATM   25  C   UNK A   0     -42.933  60.441 -53.261  1.00  0.00     0.048 C 
HETATM   26  C   UNK A   0     -42.745  58.506 -54.852  1.00  0.00     0.020 A 
HETATM   27  C   UNK A   0     -42.887  57.146 -55.166  1.00  0.00    -0.005 A 
HETATM   28  C   UNK A   0     -43.310  56.227 -54.183  1.00  0.00     0.093 A 
HETATM   29  C   UNK A   0     -42.623  56.665 -56.456  1.00  0.00     0.015 A 
HETATM   30  N   UNK A   0     -43.460  54.909 -54.466  1.00  0.00    -0.258 NA
HETATM   31  C   UNK A   0     -43.197  54.485 -55.720  1.00  0.00     0.117 A 
HETATM   32  C   UNK A   0     -42.780  55.315 -56.741  1.00  0.00     0.020 A 
ENDBRANCH   1  22
TORSDOF 6
ENDMDL
MODEL 3
REMARK VINA RESULT:      -8.0      0.787      2.494
REMARK  6 active torsions:
REMARK  status: ('A' for Active; 'I' for Inactive)
REMARK    1  A    between atoms: C_4  and  N_5 
REMARK       I    between atoms: N_5  and  C_6 
REMARK       I    between atoms: C_6  and  N_16 
REMARK    2  A    between atoms: N_16  and  CA_17 
REMARK    3  A    between atoms: CA_17  and  C_18 
REMARK    4  A    between atoms: CA_17  and  CB_20 
REMARK    5  A    between atoms: C_18  and  O_19 
REMARK    6  A    between atoms: CB_20  and  CG_21 
ROOT
HETATM    1  N   UNK A   0     -43.884  55.744 -52.774  1.00  0.00    -0.307 N 
HETATM    2  C   UNK A   0     -43.970  56.538 -53.869  1.00  0.00     0.321 C 
HETATM    3  O   UNK A   0     -45.072  56.769 -54.366  1.00  0.00    -0.247 OA
HETATM    4  H   UNK A   0     -44.798  55.549 -52.366  1.00  0.00     0.170 HD
ATOM      5  N   TRP A   1     -42.822  57.079 -54.356  1.00  0.00    -0.336 N 
ATOM      6  H   TRP A   1     -42.116  57.280 -53.661  1.00  0.00     0.164 HD
ENDROOT
BRANCH   5   7
ATOM      7  CA  TRP A   1     -42.846  58.028 -55.478  1.00  0.00     0.114 C 
BRANCH   7   8
ATOM      8  C   TRP A   1     -42.474  57.284 -56.770  1.00  0.00     0.189 C 
BRANCH   8   9
ATOM      9  O   TRP A   1     -41.784  56.066 -56.477  1.00  0.00    -0.399 OA
ATOM     10  H   TRP A   1     -41.034  56.023 -57.096  1.00  0.00     0.209 HD
ENDBRANCH   8   9
ENDBRANCH   7   8
BRANCH   7  11
ATOM     11  CB  TRP A   1     -41.913  59.224 -55.194  1.00  0.00     0.068 C 
BRANCH  11  12
ATOM     12  CG  TRP A   1     -42.164  59.876 -53.868  1.00  0.00    -0.028 A 
ATOM     13  CD2 TRP A   1     -41.580  59.537 -52.605  1.00  0.00    -0.002 A 
ATOM     14  CE2 TRP A   1     -42.122  60.397 -51.650  1.00  0.00     0.042 A 
ATOM     15  CE3 TRP A   1     -40.640  58.573 -52.184  1.00  0.00     0.014 A 
ATOM     16  CZ2 TRP A   1     -41.775  60.342 -50.294  1.00  0.00     0.030 A 
ATOM     17  NE1 TRP A   1     -43.003  61.226 -52.304  1.00  0.00    -0.365 N 
ATOM     18  CH2 TRP A   1     -40.841  59.378 -49.904  1.00  0.00     0.002 A 
ATOM     19  CZ3 TRP A   1     -40.280  58.505 -50.833  1.00  0.00     0.001 A 
ATOM     20  HE1 TRP A   1     -43.552  61.948 -51.857  1.00  0.00     0.165 HD
ATOM     21  CD1 TRP A   1     -43.035  60.923 -53.636  1.00  0.00     0.096 A 
ENDBRANCH  11  12
ENDBRANCH   7  11
ENDBRANCH   5   7
BRANCH   1  22
HETATM   22  C   UNK A   0     -42.828  55.112 -52.079  1.00  0.00     0.066 A 
HETATM   23  C   UNK A   0     -42.476  55.401 -50.754  1.00  0.00     0.038 A 
HETATM   24  C   UNK A   0     -41.421  54.722 -50.132  1.00  0.00    -0.059 A 
HETATM   25  C   UNK A   0     -41.032  55.040 -48.718  1.00  0.00     0.048 C 
HETATM   26  C   UNK A   0     -40.689  53.786 -50.867  1.00  0.00     0.020 A 
HETATM   27  C   UNK A   0     -41.008  53.519 -52.207  1.00  0.00    -0.005 A 
HETATM   28  C   UNK A   0     -42.084  54.184 -52.830  1.00  0.00     0.093 A 
HETATM   29  C   UNK A   0     -40.268  52.598 -52.963  1.00  0.00     0.015 A 
HETATM   30  N   UNK A   0     -42.405  53.947 -54.126  1.00  0.00    -0.258 NA
HETATM   31  C   UNK A   0     -41.669  53.054 -54.821  1.00  0.00     0.117 A 
HETATM   32  C   UNK A   0     -40.601  52.360 -54.289  1.00  0.00     0.020 A 
ENDBRANCH   1  22
TORSDOF 6
ENDMDL
MODEL 4
REMARK VINA RESULT:      -7.7      1.788      5.810
REMARK  6 active torsions:
REMARK  status: ('A' for Active; 'I' for Inactive)
REMARK    1  A    between atoms: C_4  and  N_5 
REMARK       I    between atoms: N_5  and  C_6 
REMARK       I    between atoms: C_6  and  N_16 
REMARK    2  A    between atoms: N_16  and  CA_17 
REMARK    3  A    between atoms: CA_17  and  C_18 
REMARK    4  A    between atoms: CA_17  and  CB_20 
REMARK    5  A    between atoms: C_18  and  O_19 
REMARK    6  A    between atoms: CB_20  and  CG_21 
ROOT
HETATM    1  N   UNK A   0     -42.748  58.696 -55.152  1.00  0.00    -0.307 N 
HETATM    2  C   UNK A   0     -42.537  57.523 -55.796  1.00  0.00     0.321 C 
HETATM    3  O   UNK A   0     -42.375  57.522 -57.016  1.00  0.00    -0.247 OA
HETATM    4  H   UNK A   0     -42.579  59.503 -55.752  1.00  0.00     0.170 HD
ATOM      5  N   TRP A   1     -42.478  56.387 -55.051  1.00  0.00    -0.336 N 
ATOM      6  H   TRP A   1     -42.105  56.507 -54.119  1.00  0.00     0.164 HD
ENDROOT
BRANCH   5   7
ATOM      7  CA  TRP A   1     -42.153  55.093 -55.666  1.00  0.00     0.114 C 
BRANCH   7   8
ATOM      8  C   TRP A   1     -43.166  54.042 -55.182  1.00  0.00     0.189 C 
BRANCH   8   9
ATOM      9  O   TRP A   1     -44.246  54.661 -54.478  1.00  0.00    -0.399 OA
ATOM     10  H   TRP A   1     -44.747  53.940 -54.059  1.00  0.00     0.209 HD
ENDBRANCH   8   9
ENDBRANCH   7   8
BRANCH   7  11
ATOM     11  CB  TRP A   1     -40.695  54.697 -55.354  1.00  0.00     0.068 C 
BRANCH  11  12
ATOM     12  CG  TRP A   1     -40.559  53.823 -54.143  1.00  0.00    -0.028 A 
ATOM     13  CD2 TRP A   1     -40.748  54.197 -52.773  1.00  0.00    -0.002 A 
ATOM     14  CE2 TRP A   1     -40.497  53.067 -51.994  1.00  0.00     0.042 A 
ATOM     15  CE3 TRP A   1     -41.107  55.395 -52.121  1.00  0.00     0.014 A 
ATOM     16  CZ2 TRP A   1     -40.585  53.074 -50.596  1.00  0.00     0.030 A 
ATOM     17  NE1 TRP A   1     -40.167  52.046 -52.854  1.00  0.00    -0.365 N 
ATOM     18  CH2 TRP A   1     -40.942  54.274 -49.976  1.00  0.00     0.002 A 
ATOM     19  CZ3 TRP A   1     -41.201  55.419 -50.725  1.00  0.00     0.001 A 
ATOM     20  HE1 TRP A   1     -39.925  51.109 -52.566  1.00  0.00     0.165 HD
ATOM     21  CD1 TRP A   1     -40.203  52.489 -54.147  1.00  0.00     0.096 A 
ENDBRANCH  11  12
ENDBRANCH   7  11
ENDBRANCH   5   7
BRANCH   1  22
HETATM   22  C   UNK A   0     -43.163  59.060 -53.850  1.00  0.00     0.066 A 
HETATM   23  C   UNK A   0     -44.478  59.404 -53.513  1.00  0.00     0.038 A 
HETATM   24  C   UNK A   0     -44.812  59.743 -52.197  1.00  0.00    -0.059 A 
HETATM   25  C   UNK A   0     -46.217  60.126 -51.836  1.00  0.00     0.048 C 
HETATM   26  C   UNK A   0     -43.804  59.784 -51.230  1.00  0.00     0.020 A 
HETATM   27  C   UNK A   0     -42.476  59.481 -51.566  1.00  0.00    -0.005 A 
HETATM   28  C   UNK A   0     -42.140  59.117 -52.887  1.00  0.00     0.093 A 
HETATM   29  C   UNK A   0     -41.451  59.539 -50.611  1.00  0.00     0.015 A 
HETATM   30  N   UNK A   0     -40.862  58.827 -53.235  1.00  0.00    -0.258 NA
HETATM   31  C   UNK A   0     -39.903  58.894 -52.288  1.00  0.00     0.117 A 
HETATM   32  C   UNK A   0     -40.144  59.242 -50.974  1.00  0.00     0.020 A 
ENDBRANCH   1  22
TORSDOF 6
ENDMDL
MODEL 5
REMARK VINA RESULT:      -7.5      2.975      7.550
REMARK  6 active torsions:
REMARK  status: ('A' for Active; 'I' for Inactive)
REMARK    1  A    between atoms: C_4  and  N_5 
REMARK       I    between atoms: N_5  and  C_6 
REMARK       I    between atoms: C_6  and  N_16 
REMARK    2  A    between atoms: N_16  and  CA_17 
REMARK    3  A    between atoms: CA_17  and  C_18 
REMARK    4  A    between atoms: CA_17  and  CB_20 
REMARK    5  A    between atoms: C_18  and  O_19 
REMARK    6  A    between atoms: CB_20  and  CG_21 
ROOT
HETATM    1  N   UNK A   0     -43.064  56.661 -50.894  1.00  0.00    -0.307 N 
HETATM    2  C   UNK A   0     -42.683  55.429 -50.478  1.00  0.00     0.321 C 
HETATM    3  O   UNK A   0     -43.485  54.497 -50.527  1.00  0.00    -0.247 OA
HETATM    4  H   UNK A   0     -43.962  56.645 -51.377  1.00  0.00     0.170 HD
ATOM      5  N   TRP A   1     -41.402  55.267 -50.052  1.00  0.00    -0.336 N 
ATOM      6  H   TRP A   1     -40.723  55.861 -50.507  1.00  0.00     0.164 HD
ENDROOT
BRANCH   5   7
ATOM      7  CA  TRP A   1     -40.887  53.942 -49.680  1.00  0.00     0.114 C 
BRANCH   7   8
ATOM      8  C   TRP A   1     -40.592  53.926 -48.172  1.00  0.00     0.189 C 
BRANCH   8   9
ATOM      9  O   TRP A   1     -40.986  55.157 -47.562  1.00  0.00    -0.399 OA
ATOM     10  H   TRP A   1     -40.313  55.813 -47.813  1.00  0.00     0.209 HD
ENDBRANCH   8   9
ENDBRANCH   7   8
BRANCH   7  11
ATOM     11  CB  TRP A   1     -39.649  53.585 -50.530  1.00  0.00     0.068 C 
BRANCH  11  12
ATOM     12  CG  TRP A   1     -39.989  53.128 -51.917  1.00  0.00    -0.028 A 
ATOM     13  CD2 TRP A   1     -39.874  51.804 -52.451  1.00  0.00    -0.002 A 
ATOM     14  CE2 TRP A   1     -40.284  51.855 -53.784  1.00  0.00     0.042 A 
ATOM     15  CE3 TRP A   1     -39.456  50.565 -51.925  1.00  0.00     0.014 A 
ATOM     16  CZ2 TRP A   1     -40.295  50.731 -54.619  1.00  0.00     0.030 A 
ATOM     17  NE1 TRP A   1     -40.633  53.158 -54.051  1.00  0.00    -0.365 N 
ATOM     18  CH2 TRP A   1     -39.875  49.515 -54.071  1.00  0.00     0.002 A 
ATOM     19  CZ3 TRP A   1     -39.462  49.430 -52.744  1.00  0.00     0.001 A 
ATOM     20  HE1 TRP A   1     -40.959  53.493 -54.947  1.00  0.00     0.165 HD
ATOM     21  CD1 TRP A   1     -40.461  53.931 -52.937  1.00  0.00     0.096 A 
ENDBRANCH  11  12
ENDBRANCH   7  11
ENDBRANCH   5   7
BRANCH   1  22
HETATM   22  C   UNK A   0     -42.516  57.961 -50.800  1.00  0.00     0.066 A 
HETATM   23  C   UNK A   0     -41.157  58.226 -50.592  1.00  0.00     0.038 A 
HETATM   24  C   UNK A   0     -40.690  59.544 -50.520  1.00  0.00    -0.059 A 
HETATM   25  C   UNK A   0     -39.236  59.831 -50.282  1.00  0.00     0.048 C 
HETATM   26  C   UNK A   0     -41.607  60.595 -50.608  1.00  0.00     0.020 A 
HETATM   27  C   UNK A   0     -42.977  60.338 -50.775  1.00  0.00    -0.005 A 
HETATM   28  C   UNK A   0     -43.447  59.012 -50.871  1.00  0.00     0.093 A 
HETATM   29  C   UNK A   0     -43.910  61.383 -50.844  1.00  0.00     0.015 A 
HETATM   30  N   UNK A   0     -44.767  58.742 -51.026  1.00  0.00    -0.258 NA
HETATM   31  C   UNK A   0     -45.635  59.774 -51.087  1.00  0.00     0.117 A 
HETATM   32  C   UNK A   0     -45.260  61.099 -51.001  1.00  0.00     0.020 A 
ENDBRANCH   1  22
TORSDOF 6
ENDMDL
MODEL 6
REMARK VINA RESULT:      -7.5      2.684      5.379
REMARK  6 active torsions:
REMARK  status: ('A' for Active; 'I' for Inactive)
REMARK    1  A    between atoms: C_4  and  N_5 
REMARK       I    between atoms: N_5  and  C_6 
REMARK       I    between atoms: C_6  and  N_16 
REMARK    2  A    between atoms: N_16  and  CA_17 
REMARK    3  A    between atoms: CA_17  and  C_18 
REMARK    4  A    between atoms: CA_17  and  CB_20 
REMARK    5  A    between atoms: C_18  and  O_19 
REMARK    6  A    between atoms: CB_20  and  CG_21 
ROOT
HETATM    1  N   UNK A   0     -40.497  54.361 -53.615  1.00  0.00    -0.307 N 
HETATM    2  C   UNK A   0     -41.239  55.431 -53.992  1.00  0.00     0.321 C 
HETATM    3  O   UNK A   0     -40.939  56.046 -55.015  1.00  0.00    -0.247 OA
HETATM    4  H   UNK A   0     -39.841  54.071 -54.340  1.00  0.00     0.170 HD
ATOM      5  N   TRP A   1     -42.317  55.760 -53.232  1.00  0.00    -0.336 N 
ATOM      6  H   TRP A   1     -42.777  54.979 -52.784  1.00  0.00     0.164 HD
ENDROOT
BRANCH   5   7
ATOM      7  CA  TRP A   1     -43.225  56.843 -53.631  1.00  0.00     0.114 C 
BRANCH   7   8
ATOM      8  C   TRP A   1     -44.082  57.249 -52.421  1.00  0.00     0.189 C 
BRANCH   8   9
ATOM      9  O   TRP A   1     -44.309  56.131 -51.560  1.00  0.00    -0.399 OA
ATOM     10  H   TRP A   1     -43.843  56.328 -50.729  1.00  0.00     0.209 HD
ENDBRANCH   8   9
ENDBRANCH   7   8
BRANCH   7  11
ATOM     11  CB  TRP A   1     -44.078  56.414 -54.843  1.00  0.00     0.068 C 
BRANCH  11  12
ATOM     12  CG  TRP A   1     -43.971  57.350 -56.011  1.00  0.00    -0.028 A 
ATOM     13  CD2 TRP A   1     -43.572  57.031 -57.349  1.00  0.00    -0.002 A 
ATOM     14  CE2 TRP A   1     -43.601  58.216 -58.086  1.00  0.00     0.042 A 
ATOM     15  CE3 TRP A   1     -43.185  55.843 -58.003  1.00  0.00     0.014 A 
ATOM     16  CZ2 TRP A   1     -43.260  58.274 -59.443  1.00  0.00     0.030 A 
ATOM     17  NE1 TRP A   1     -43.999  59.216 -57.230  1.00  0.00    -0.365 N 
ATOM     18  CH2 TRP A   1     -42.880  57.082 -60.066  1.00  0.00     0.002 A 
ATOM     19  CZ3 TRP A   1     -42.843  55.883 -59.360  1.00  0.00     0.001 A 
ATOM     20  HE1 TRP A   1     -44.100  60.187 -57.490  1.00  0.00     0.165 HD
ATOM     21  CD1 TRP A   1     -44.226  58.707 -55.982  1.00  0.00     0.096 A 
ENDBRANCH  11  12
ENDBRANCH   7  11
ENDBRANCH   5   7
BRANCH   1  22
HETATM   22  C   UNK A   0     -40.410  53.568 -52.448  1.00  0.00     0.066 A 
HETATM   23  C   UNK A   0     -40.543  54.069 -51.147  1.00  0.00     0.038 A 
HETATM   24  C   UNK A   0     -40.453  53.215 -50.041  1.00  0.00    -0.059 A 
HETATM   25  C   UNK A   0     -40.581  53.751 -48.645  1.00  0.00     0.048 C 
HETATM   26  C   UNK A   0     -40.179  51.861 -50.250  1.00  0.00     0.020 A 
HETATM   27  C   UNK A   0     -40.003  51.357 -51.547  1.00  0.00    -0.005 A 
HETATM   28  C   UNK A   0     -40.115  52.210 -52.664  1.00  0.00     0.093 A 
HETATM   29  C   UNK A   0     -39.705  50.004 -51.769  1.00  0.00     0.015 A 
HETATM   30  N   UNK A   0     -39.942  51.745 -53.927  1.00  0.00    -0.258 NA
HETATM   31  C   UNK A   0     -39.656  50.437 -54.100  1.00  0.00     0.117 A 
HETATM   32  C   UNK A   0     -39.528  49.535 -53.064  1.00  0.00     0.020 A 
ENDBRANCH   1  22
TORSDOF 6
ENDMDL
MODEL 7
REMARK VINA RESULT:      -7.4      2.409      4.428
REMARK  6 active torsions:
REMARK  status: ('A' for Active; 'I' for Inactive)
REMARK    1  A    between atoms: C_4  and  N_5 
REMARK       I    between atoms: N_5  and  C_6 
REMARK       I    between atoms: C_6  and  N_16 
REMARK    2  A    between atoms: N_16  and  CA_17 
REMARK    3  A    between atoms: CA_17  and  C_18 
REMARK    4  A    between atoms: CA_17  and  CB_20 
REMARK    5  A    between atoms: C_18  and  O_19 
REMARK    6  A    between atoms: CB_20  and  CG_21 
ROOT
HETATM    1  N   UNK A   0     -40.820  56.042 -53.952  1.00  0.00    -0.307 N 
HETATM    2  C   UNK A   0     -41.776  57.001 -53.893  1.00  0.00     0.321 C 
HETATM    3  O   UNK A   0     -41.535  58.125 -54.334  1.00  0.00    -0.247 OA
HETATM    4  H   UNK A   0     -40.027  56.322 -54.529  1.00  0.00     0.170 HD
ATOM      5  N   TRP A   1     -42.986  56.665 -53.374  1.00  0.00    -0.336 N 
ATOM      6  H   TRP A   1     -43.265  55.705 -53.529  1.00  0.00     0.164 HD
ENDROOT
BRANCH   5   7
ATOM      7  CA  TRP A   1     -44.102  57.621 -53.368  1.00  0.00     0.114 C 
BRANCH   7   8
ATOM      8  C   TRP A   1     -44.759  57.614 -51.979  1.00  0.00     0.189 C 
BRANCH   8   9
ATOM      9  O   TRP A   1     -43.770  57.562 -50.948  1.00  0.00    -0.399 OA
ATOM     10  H   TRP A   1     -44.246  57.360 -50.123  1.00  0.00     0.209 HD
ENDBRANCH   8   9
ENDBRANCH   7   8
BRANCH   7  11
ATOM     11  CB  TRP A   1     -45.101  57.292 -54.497  1.00  0.00     0.068 C 
BRANCH  11  12
ATOM     12  CG  TRP A   1     -44.821  58.024 -55.775  1.00  0.00    -0.028 A 
ATOM     13  CD2 TRP A   1     -44.081  57.551 -56.907  1.00  0.00    -0.002 A 
ATOM     14  CE2 TRP A   1     -44.063  58.578 -57.852  1.00  0.00     0.042 A 
ATOM     15  CE3 TRP A   1     -43.421  56.344 -57.215  1.00  0.00     0.014 A 
ATOM     16  CZ2 TRP A   1     -43.417  58.460 -59.088  1.00  0.00     0.030 A 
ATOM     17  NE1 TRP A   1     -44.762  59.634 -57.317  1.00  0.00    -0.365 N 
ATOM     18  CH2 TRP A   1     -42.770  57.253 -59.368  1.00  0.00     0.002 A 
ATOM     19  CZ3 TRP A   1     -42.771  56.208 -58.447  1.00  0.00     0.001 A 
ATOM     20  HE1 TRP A   1     -44.903  60.522 -57.779  1.00  0.00     0.165 HD
ATOM     21  CD1 TRP A   1     -45.223  59.312 -56.071  1.00  0.00     0.096 A 
ENDBRANCH  11  12
ENDBRANCH   7  11
ENDBRANCH   5   7
BRANCH   1  22
HETATM   22  C   UNK A   0     -40.660  54.755 -53.388  1.00  0.00     0.066 A 
HETATM   23  C   UNK A   0     -40.476  53.587 -54.137  1.00  0.00     0.038 A 
HETATM   24  C   UNK A   0     -40.314  52.350 -53.502  1.00  0.00    -0.059 A 
HETATM   25  C   UNK A   0     -40.131  51.094 -54.303  1.00  0.00     0.048 C 
HETATM   26  C   UNK A   0     -40.389  52.288 -52.108  1.00  0.00     0.020 A 
HETATM   27  C   UNK A   0     -40.615  53.447 -51.350  1.00  0.00    -0.005 A 
HETATM   28  C   UNK A   0     -40.755  54.698 -51.986  1.00  0.00     0.093 A 
HETATM   29  C   UNK A   0     -40.714  53.396 -49.952  1.00  0.00     0.015 A 
HETATM   30  N   UNK A   0     -40.981  55.830 -51.273  1.00  0.00    -0.258 NA
HETATM   31  C   UNK A   0     -41.071  55.740 -49.930  1.00  0.00     0.117 A 
HETATM   32  C   UNK A   0     -40.946  54.557 -49.229  1.00  0.00     0.020 A 
ENDBRANCH   1  22
TORSDOF 6
ENDMDL
MODEL 8
REMARK VINA RESULT:      -7.3      2.290      5.555
REMARK  6 active torsions:
REMARK  status: ('A' for Active; 'I' for Inactive)
REMARK    1  A    between atoms: C_4  and  N_5 
REMARK       I    between atoms: N_5  and  C_6 
REMARK       I    between atoms: C_6  and  N_16 
REMARK    2  A    between atoms: N_16  and  CA_17 
REMARK    3  A    between atoms: CA_17  and  C_18 
REMARK    4  A    between atoms: CA_17  and  CB_20 
REMARK    5  A    between atoms: C_18  and  O_19 
REMARK    6  A    between atoms: CB_20  and  CG_21 
ROOT
HETATM    1  N   UNK A   0     -40.881  57.638 -53.577  1.00  0.00    -0.307 N 
HETATM    2  C   UNK A   0     -41.787  58.450 -54.174  1.00  0.00     0.321 C 
HETATM    3  O   UNK A   0     -41.414  59.514 -54.667  1.00  0.00    -0.247 OA
HETATM    4  H   UNK A   0     -39.922  57.933 -53.753  1.00  0.00     0.170 HD
ATOM      5  N   TRP A   1     -43.079  58.031 -54.234  1.00  0.00    -0.336 N 
ATOM      6  H   TRP A   1     -43.200  57.030 -54.303  1.00  0.00     0.164 HD
ENDROOT
BRANCH   5   7
ATOM      7  CA  TRP A   1     -44.097  58.810 -54.951  1.00  0.00     0.114 C 
BRANCH   7   8
ATOM      8  C   TRP A   1     -45.116  59.355 -53.938  1.00  0.00     0.189 C 
BRANCH   8   9
ATOM      9  O   TRP A   1     -44.800  58.919 -52.613  1.00  0.00    -0.399 OA
ATOM     10  H   TRP A   1     -45.219  58.048 -52.506  1.00  0.00     0.209 HD
ENDBRANCH   8   9
ENDBRANCH   7   8
BRANCH   7  11
ATOM     11  CB  TRP A   1     -44.757  57.953 -56.052  1.00  0.00     0.068 C 
BRANCH  11  12
ATOM     12  CG  TRP A   1     -43.792  57.471 -57.093  1.00  0.00    -0.028 A 
ATOM     13  CD2 TRP A   1     -43.314  58.188 -58.237  1.00  0.00    -0.002 A 
ATOM     14  CE2 TRP A   1     -42.451  57.339 -58.931  1.00  0.00     0.042 A 
ATOM     15  CE3 TRP A   1     -43.539  59.482 -58.750  1.00  0.00     0.014 A 
ATOM     16  CZ2 TRP A   1     -41.802  57.717 -60.113  1.00  0.00     0.030 A 
ATOM     17  NE1 TRP A   1     -42.406  56.153 -58.238  1.00  0.00    -0.365 N 
ATOM     18  CH2 TRP A   1     -42.043  59.005 -60.599  1.00  0.00     0.002 A 
ATOM     19  CZ3 TRP A   1     -42.898  59.877 -59.930  1.00  0.00     0.001 A 
ATOM     20  HE1 TRP A   1     -41.864  55.346 -58.516  1.00  0.00     0.165 HD
ATOM     21  CD1 TRP A   1     -43.206  56.221 -57.132  1.00  0.00     0.096 A 
ENDBRANCH  11  12
ENDBRANCH   7  11
ENDBRANCH   5   7
BRANCH   1  22
HETATM   22  C   UNK A   0     -40.959  56.489 -52.755  1.00  0.00     0.066 A 
HETATM   23  C   UNK A   0     -41.179  56.527 -51.373  1.00  0.00     0.038 A 
HETATM   24  C   UNK A   0     -41.253  55.343 -50.630  1.00  0.00    -0.059 A 
HETATM   25  C   UNK A   0     -41.475  55.381 -49.146  1.00  0.00     0.048 C 
HETATM   26  C   UNK A   0     -41.053  54.121 -51.278  1.00  0.00     0.020 A 
HETATM   27  C   UNK A   0     -40.790  54.075 -52.656  1.00  0.00    -0.005 A 
HETATM   28  C   UNK A   0     -40.738  55.265 -53.411  1.00  0.00     0.093 A 
HETATM   29  C   UNK A   0     -40.567  52.858 -53.315  1.00  0.00     0.015 A 
HETATM   30  N   UNK A   0     -40.479  55.244 -54.743  1.00  0.00    -0.258 NA
HETATM   31  C   UNK A   0     -40.268  54.053 -55.341  1.00  0.00     0.117 A 
HETATM   32  C   UNK A   0     -40.301  52.843 -54.677  1.00  0.00     0.020 A 
ENDBRANCH   1  22
TORSDOF 6
ENDMDL
MODEL 9
REMARK VINA RESULT:      -7.3      2.560      4.296
REMARK  6 active torsions:
REMARK  status: ('A' for Active; 'I' for Inactive)
REMARK    1  A    between atoms: C_4  and  N_5 
REMARK       I    between atoms: N_5  and  C_6 
REMARK       I    between atoms: C_6  and  N_16 
REMARK    2  A    between atoms: N_16  and  CA_17 
REMARK    3  A    between atoms: CA_17  and  C_18 
REMARK    4  A    between atoms: CA_17  and  CB_20 
REMARK    5  A    between atoms: C_18  and  O_19 
REMARK    6  A    between atoms: CB_20  and  CG_21 
ROOT
HETATM    1  N   UNK A   0     -41.339  57.965 -51.485  1.00  0.00    -0.307 N 
HETATM    2  C   UNK A   0     -42.371  58.808 -51.244  1.00  0.00     0.321 C 
HETATM    3  O   UNK A   0     -42.183  59.818 -50.566  1.00  0.00    -0.247 OA
HETATM    4  H   UNK A   0     -40.443  58.360 -51.203  1.00  0.00     0.170 HD
ATOM      5  N   TRP A   1     -43.577  58.517 -51.800  1.00  0.00    -0.336 N 
ATOM      6  H   TRP A   1     -43.533  58.041 -52.690  1.00  0.00     0.164 HD
ENDROOT
BRANCH   5   7
ATOM      7  CA  TRP A   1     -44.717  59.435 -51.666  1.00  0.00     0.114 C 
BRANCH   7   8
ATOM      8  C   TRP A   1     -45.810  58.756 -50.825  1.00  0.00     0.189 C 
BRANCH   8   9
ATOM      9  O   TRP A   1     -45.720  59.154 -49.455  1.00  0.00    -0.399 OA
ATOM     10  H   TRP A   1     -46.455  58.712 -48.995  1.00  0.00     0.209 HD
ENDBRANCH   8   9
ENDBRANCH   7   8
BRANCH   7  11
ATOM     11  CB  TRP A   1     -45.225  59.871 -53.056  1.00  0.00     0.068 C 
BRANCH  11  12
ATOM     12  CG  TRP A   1     -44.130  60.040 -54.067  1.00  0.00    -0.028 A 
ATOM     13  CD2 TRP A   1     -43.744  59.122 -55.096  1.00  0.00    -0.002 A 
ATOM     14  CE2 TRP A   1     -42.668  59.690 -55.780  1.00  0.00     0.042 A 
ATOM     15  CE3 TRP A   1     -44.209  57.856 -55.509  1.00  0.00     0.014 A 
ATOM     16  CZ2 TRP A   1     -42.032  59.056 -56.854  1.00  0.00     0.030 A 
ATOM     17  NE1 TRP A   1     -42.408  60.904 -55.190  1.00  0.00    -0.365 N 
ATOM     18  CH2 TRP A   1     -42.513  57.802 -57.242  1.00  0.00     0.002 A 
ATOM     19  CZ3 TRP A   1     -43.585  57.209 -56.581  1.00  0.00     0.001 A 
ATOM     20  HE1 TRP A   1     -41.671  61.534 -55.474  1.00  0.00     0.165 HD
ATOM     21  CD1 TRP A   1     -43.281  61.126 -54.161  1.00  0.00     0.096 A 
ENDBRANCH  11  12
ENDBRANCH   7  11
ENDBRANCH   5   7
BRANCH   1  22
HETATM   22  C   UNK A   0     -41.218  56.661 -52.020  1.00  0.00     0.066 A 
HETATM   23  C   UNK A   0     -41.256  56.368 -53.389  1.00  0.00     0.038 A 
HETATM   24  C   UNK A   0     -41.119  55.049 -53.839  1.00  0.00    -0.059 A 
HETATM   25  C   UNK A   0     -41.173  54.730 -55.305  1.00  0.00     0.048 C 
HETATM   26  C   UNK A   0     -40.995  54.021 -52.902  1.00  0.00     0.020 A 
HETATM   27  C   UNK A   0     -40.998  54.300 -51.527  1.00  0.00    -0.005 A 
HETATM   28  C   UNK A   0     -41.113  55.629 -51.070  1.00  0.00     0.093 A 
HETATM   29  C   UNK A   0     -40.896  53.275 -50.575  1.00  0.00     0.015 A 
HETATM   30  N   UNK A   0     -41.125  55.921 -49.745  1.00  0.00    -0.258 NA
HETATM   31  C   UNK A   0     -41.025  54.907 -48.860  1.00  0.00     0.117 A 
HETATM   32  C   UNK A   0     -40.910  53.581 -49.221  1.00  0.00     0.020 A 
ENDBRANCH   1  22
TORSDOF 6
ENDMDL
MODEL 10
REMARK VINA RESULT:      -7.3      2.499      3.969
REMARK  6 active torsions:
REMARK  status: ('A' for Active; 'I' for Inactive)
REMARK    1  A    between atoms: C_4  and  N_5 
REMARK       I    between atoms: N_5  and  C_6 
REMARK       I    between atoms: C_6  and  N_16 
REMARK    2  A    between atoms: N_16  and  CA_17 
REMARK    3  A    between atoms: CA_17  and  C_18 
REMARK    4  A    between atoms: CA_17  and  CB_20 
REMARK    5  A    between atoms: C_18  and  O_19 
REMARK    6  A    between atoms: CB_20  and  CG_21 
ROOT
HETATM    1  N   UNK A   0     -43.552  55.713 -51.883  1.00  0.00    -0.307 N 
HETATM    2  C   UNK A   0     -43.636  56.926 -52.480  1.00  0.00     0.321 C 
HETATM    3  O   UNK A   0     -44.695  57.274 -53.000  1.00  0.00    -0.247 OA
HETATM    4  H   UNK A   0     -44.463  55.267 -51.784  1.00  0.00     0.170 HD
ATOM      5  N   TRP A   1     -42.541  57.732 -52.446  1.00  0.00    -0.336 N 
ATOM      6  H   TRP A   1     -41.962  57.631 -51.623  1.00  0.00     0.164 HD
ENDROOT
BRANCH   5   7
ATOM      7  CA  TRP A   1     -42.587  59.099 -52.982  1.00  0.00     0.114 C 
BRANCH   7   8
ATOM      8  C   TRP A   1     -41.394  59.304 -53.930  1.00  0.00     0.189 C 
BRANCH   8   9
ATOM      9  O   TRP A   1     -40.157  59.211 -53.219  1.00  0.00    -0.399 OA
ATOM     10  H   TRP A   1     -40.281  58.518 -52.548  1.00  0.00     0.209 HD
ENDBRANCH   8   9
ENDBRANCH   7   8
BRANCH   7  11
ATOM     11  CB  TRP A   1     -42.616  60.130 -51.834  1.00  0.00     0.068 C 
BRANCH  11  12
ATOM     12  CG  TRP A   1     -43.952  60.785 -51.653  1.00  0.00    -0.028 A 
ATOM     13  CD2 TRP A   1     -44.510  61.306 -50.441  1.00  0.00    -0.002 A 
ATOM     14  CE2 TRP A   1     -45.778  61.803 -50.746  1.00  0.00     0.042 A 
ATOM     15  CE3 TRP A   1     -44.056  61.398 -49.110  1.00  0.00     0.014 A 
ATOM     16  CZ2 TRP A   1     -46.616  62.385 -49.787  1.00  0.00     0.030 A 
ATOM     17  NE1 TRP A   1     -45.984  61.592 -52.089  1.00  0.00    -0.365 N 
ATOM     18  CH2 TRP A   1     -46.141  62.464 -48.475  1.00  0.00     0.002 A 
ATOM     19  CZ3 TRP A   1     -44.880  61.979 -48.139  1.00  0.00     0.001 A 
ATOM     20  HE1 TRP A   1     -46.827  61.844 -52.587  1.00  0.00     0.165 HD
ATOM     21  CD1 TRP A   1     -44.893  60.983 -52.644  1.00  0.00     0.096 A 
ENDBRANCH  11  12
ENDBRANCH   7  11
ENDBRANCH   5   7
BRANCH   1  22
HETATM   22  C   UNK A   0     -42.495  54.916 -51.385  1.00  0.00     0.066 A 
HETATM   23  C   UNK A   0     -42.028  54.968 -50.065  1.00  0.00     0.038 A 
HETATM   24  C   UNK A   0     -40.982  54.137 -49.646  1.00  0.00    -0.059 A 
HETATM   25  C   UNK A   0     -40.470  54.201 -48.237  1.00  0.00     0.048 C 
HETATM   26  C   UNK A   0     -40.374  53.289 -50.575  1.00  0.00     0.020 A 
HETATM   27  C   UNK A   0     -40.807  53.261 -51.910  1.00  0.00    -0.005 A 
HETATM   28  C   UNK A   0     -41.875  54.079 -52.330  1.00  0.00     0.093 A 
HETATM   29  C   UNK A   0     -40.191  52.430 -52.858  1.00  0.00     0.015 A 
HETATM   30  N   UNK A   0     -42.306  54.072 -53.616  1.00  0.00    -0.258 NA
HETATM   31  C   UNK A   0     -41.687  53.260 -54.500  1.00  0.00     0.117 A 
HETATM   32  C   UNK A   0     -40.635  52.429 -54.173  1.00  0.00     0.020 A 
ENDBRANCH   1  22
TORSDOF 6
ENDMDL
