MODEL 1
REMARK VINA RESULT:      -8.4      0.000      0.000
REMARK  8 active torsions:
REMARK  status: ('A' for Active; 'I' for Inactive)
REMARK       I    between atoms: C_2  and  N_3 
REMARK    1  A    between atoms: N_3  and  C_4 
REMARK    2  A    between atoms: C_6  and  N_7 
REMARK       I    between atoms: N_7  and  C_8 
REMARK    3  A    between atoms: C_8  and  C_9 
REMARK       I    between atoms: C_9  and  N_10 
REMARK    4  A    between atoms: N_10  and  C_11 
REMARK    5  A    between atoms: C_11  and  C_12 
REMARK    6  A    between atoms: C_12  and  S_13 
REMARK    7  A    between atoms: S_13  and  C_14 
REMARK    8  A    between atoms: C_16  and  C_17 
ROOT
HETATM    1  C   UNL     1     -41.857  59.347 -54.360  1.00  0.00     0.309 C 
HETATM    2  N   UNL     1     -43.011  59.042 -53.678  1.00  0.00    -0.352 N 
HETATM    3  O   UNL     1     -40.741  59.481 -53.877  1.00  0.00    -0.262 OA
HETATM    4  H   UNL     1     -43.869  59.074 -54.226  1.00  0.00     0.162 HD
ENDROOT
BRANCH   1   5
HETATM    5  C   UNL     1     -42.067  59.526 -55.880  1.00  0.00     0.313 C 
HETATM    6  N   UNL     1     -42.562  58.383 -56.470  1.00  0.00    -0.319 N 
HETATM    7  H   UNL     1     -42.747  57.625 -55.818  1.00  0.00     0.169 HD
HETATM    8  O   UNL     1     -41.801  60.611 -56.378  1.00  0.00    -0.262 OA
BRANCH   6   9
HETATM    9  C   UNL     1     -42.836  58.163 -57.832  1.00  0.00     0.037 A 
HETATM   10  C   UNL     1     -44.123  57.955 -58.345  1.00  0.00     0.059 A 
HETATM   11  C   UNL     1     -44.322  57.752 -59.717  1.00  0.00     0.036 A 
HETATM   12  C   UNL     1     -43.211  57.741 -60.571  1.00  0.00     0.029 A 
HETATM   13  C   UNL     1     -41.927  57.951 -60.068  1.00  0.00     0.004 A 
HETATM   14  C   UNL     1     -41.743  58.167 -58.704  1.00  0.00     0.029 A 
BRANCH  11  15
HETATM   15  N   UNL     1     -45.584  57.550 -60.317  1.00  0.00    -0.327 N 
HETATM   16  C   UNL     1     -46.236  56.350 -60.531  1.00  0.00     0.218 C 
HETATM   17  C   UNL     1     -47.563  56.516 -61.232  1.00  0.00     0.117 C 
HETATM   18  O   UNL     1     -45.855  55.233 -60.199  1.00  0.00    -0.274 OA
HETATM   19  H   UNL     1     -46.082  58.390 -60.582  1.00  0.00     0.169 HD
ENDBRANCH  11  15
ENDBRANCH   6   9
ENDBRANCH   1   5
BRANCH   2  20
HETATM   20  C   UNL     1     -43.091  59.018 -52.233  1.00  0.00     0.133 C 
BRANCH  20  21
HETATM   21  C   UNL     1     -43.175  57.601 -51.659  1.00  0.00     0.102 C 
BRANCH  21  22
HETATM   22  S   UNL     1     -41.548  57.057 -51.032  1.00  0.00    -0.090 SA
BRANCH  22  23
HETATM   23  C   UNL     1     -41.235  55.731 -52.083  1.00  0.00     0.166 A 
HETATM   24  N   UNL     1     -40.904  54.507 -51.759  1.00  0.00    -0.223 NA
HETATM   25  C   UNL     1     -40.734  53.847 -52.961  1.00  0.00     0.085 A 
HETATM   26  C   UNL     1     -40.983  54.705 -54.014  1.00  0.00     0.122 A 
HETATM   27  N   UNL     1     -41.302  55.903 -53.433  1.00  0.00    -0.343 N 
HETATM   28  H   UNL     1     -41.543  56.768 -53.896  1.00  0.00     0.167 HD
BRANCH  25  29
HETATM   29  C   UNL     1     -40.345  52.446 -53.050  1.00  0.00    -0.006 A 
HETATM   30  C   UNL     1     -39.840  51.798 -51.914  1.00  0.00     0.014 A 
HETATM   31  C   UNL     1     -39.452  50.456 -51.964  1.00  0.00     0.001 A 
HETATM   32  C   UNL     1     -39.564  49.744 -53.155  1.00  0.00     0.000 A 
HETATM   33  C   UNL     1     -40.062  50.372 -54.294  1.00  0.00     0.001 A 
HETATM   34  C   UNL     1     -40.451  51.715 -54.242  1.00  0.00     0.014 A 
ENDBRANCH  25  29
ENDBRANCH  22  23
ENDBRANCH  21  22
ENDBRANCH  20  21
ENDBRANCH   2  20
TORSDOF 8
ENDMDL
MODEL 2
REMARK VINA RESULT:      -8.3      2.839      8.148
REMARK  8 active torsions:
REMARK  status: ('A' for Active; 'I' for Inactive)
REMARK       I    between atoms: C_2  and  N_3 
REMARK    1  A    between atoms: N_3  and  C_4 
REMARK    2  A    between atoms: C_6  and  N_7 
REMARK       I    between atoms: N_7  and  C_8 
REMARK    3  A    between atoms: C_8  and  C_9 
REMARK       I    between atoms: C_9  and  N_10 
REMARK    4  A    between atoms: N_10  and  C_11 
REMARK    5  A    between atoms: C_11  and  C_12 
REMARK    6  A    between atoms: C_12  and  S_13 
REMARK    7  A    between atoms: S_13  and  C_14 
REMARK    8  A    between atoms: C_16  and  C_17 
ROOT
HETATM    1  C   UNL     1     -42.500  55.443 -56.473  1.00  0.00     0.309 C 
HETATM    2  N   UNL     1     -42.227  56.663 -57.043  1.00  0.00    -0.352 N 
HETATM    3  O   UNL     1     -43.351  54.644 -56.839  1.00  0.00    -0.262 OA
HETATM    4  H   UNL     1     -41.556  57.245 -56.543  1.00  0.00     0.162 HD
ENDROOT
BRANCH   1   5
HETATM    5  C   UNL     1     -41.609  55.118 -55.254  1.00  0.00     0.313 C 
HETATM    6  N   UNL     1     -41.671  53.784 -54.910  1.00  0.00    -0.319 N 
HETATM    7  H   UNL     1     -42.253  53.223 -55.527  1.00  0.00     0.169 HD
HETATM    8  O   UNL     1     -40.961  56.024 -54.752  1.00  0.00    -0.262 OA
BRANCH   6   9
HETATM    9  C   UNL     1     -41.033  53.137 -53.838  1.00  0.00     0.037 A 
HETATM   10  C   UNL     1     -41.234  53.471 -52.492  1.00  0.00     0.059 A 
HETATM   11  C   UNL     1     -40.570  52.774 -51.475  1.00  0.00     0.036 A 
HETATM   12  C   UNL     1     -39.684  51.745 -51.821  1.00  0.00     0.029 A 
HETATM   13  C   UNL     1     -39.482  51.404 -53.158  1.00  0.00     0.004 A 
HETATM   14  C   UNL     1     -40.159  52.093 -54.161  1.00  0.00     0.029 A 
BRANCH  11  15
HETATM   15  N   UNL     1     -40.726  53.038 -50.096  1.00  0.00    -0.327 N 
HETATM   16  C   UNL     1     -39.962  53.874 -49.304  1.00  0.00     0.218 C 
HETATM   17  C   UNL     1     -40.403  53.884 -47.860  1.00  0.00     0.117 C 
HETATM   18  O   UNL     1     -39.026  54.580 -49.662  1.00  0.00    -0.274 OA
HETATM   19  H   UNL     1     -41.517  52.590 -49.653  1.00  0.00     0.169 HD
ENDBRANCH  11  15
ENDBRANCH   6   9
ENDBRANCH   1   5
BRANCH   2  20
HETATM   20  C   UNL     1     -43.056  57.259 -58.070  1.00  0.00     0.133 C 
BRANCH  20  21
HETATM   21  C   UNL     1     -43.563  58.655 -57.699  1.00  0.00     0.102 C 
BRANCH  21  22
HETATM   22  S   UNL     1     -45.202  58.560 -56.899  1.00  0.00    -0.090 SA
BRANCH  22  23
HETATM   23  C   UNL     1     -44.753  58.720 -55.246  1.00  0.00     0.166 A 
HETATM   24  N   UNL     1     -43.663  58.293 -54.662  1.00  0.00    -0.223 NA
HETATM   25  C   UNL     1     -43.803  58.642 -53.333  1.00  0.00     0.085 A 
HETATM   26  C   UNL     1     -45.001  59.300 -53.137  1.00  0.00     0.122 A 
HETATM   27  N   UNL     1     -45.593  59.340 -54.371  1.00  0.00    -0.343 N 
HETATM   28  H   UNL     1     -46.486  59.745 -54.613  1.00  0.00     0.167 HD
BRANCH  25  29
HETATM   29  C   UNL     1     -42.800  58.335 -52.320  1.00  0.00    -0.006 A 
HETATM   30  C   UNL     1     -42.720  57.034 -51.804  1.00  0.00     0.014 A 
HETATM   31  C   UNL     1     -41.775  56.705 -50.828  1.00  0.00     0.001 A 
HETATM   32  C   UNL     1     -40.897  57.676 -50.355  1.00  0.00     0.000 A 
HETATM   33  C   UNL     1     -40.964  58.974 -50.856  1.00  0.00     0.001 A 
HETATM   34  C   UNL     1     -41.910  59.302 -51.833  1.00  0.00     0.014 A 
ENDBRANCH  25  29
ENDBRANCH  22  23
ENDBRANCH  21  22
ENDBRANCH  20  21
ENDBRANCH   2  20
TORSDOF 8
ENDMDL
MODEL 3
REMARK VINA RESULT:      -8.1      1.482      1.903
REMARK  8 active torsions:
REMARK  status: ('A' for Active; 'I' for Inactive)
REMARK       I    between atoms: C_2  and  N_3 
REMARK    1  A    between atoms: N_3  and  C_4 
REMARK    2  A    between atoms: C_6  and  N_7 
REMARK       I    between atoms: N_7  and  C_8 
REMARK    3  A    between atoms: C_8  and  C_9 
REMARK       I    between atoms: C_9  and  N_10 
REMARK    4  A    between atoms: N_10  and  C_11 
REMARK    5  A    between atoms: C_11  and  C_12 
REMARK    6  A    between atoms: C_12  and  S_13 
REMARK    7  A    between atoms: S_13  and  C_14 
REMARK    8  A    between atoms: C_16  and  C_17 
ROOT
HETATM    1  C   UNL     1     -41.813  59.301 -54.214  1.00  0.00     0.309 C 
HETATM    2  N   UNL     1     -42.916  59.270 -53.395  1.00  0.00    -0.352 N 
HETATM    3  O   UNL     1     -40.655  59.484 -53.867  1.00  0.00    -0.262 OA
HETATM    4  H   UNL     1     -43.817  59.213 -53.868  1.00  0.00     0.162 HD
ENDROOT
BRANCH   1   5
HETATM    5  C   UNL     1     -42.147  59.080 -55.707  1.00  0.00     0.313 C 
HETATM    6  N   UNL     1     -42.971  57.991 -55.894  1.00  0.00    -0.319 N 
HETATM    7  H   UNL     1     -43.259  57.534 -55.033  1.00  0.00     0.169 HD
HETATM    8  O   UNL     1     -41.684  59.860 -56.526  1.00  0.00    -0.262 OA
BRANCH   6   9
HETATM    9  C   UNL     1     -43.445  57.466 -57.109  1.00  0.00     0.037 A 
HETATM   10  C   UNL     1     -44.428  58.083 -57.896  1.00  0.00     0.059 A 
HETATM   11  C   UNL     1     -44.844  57.506 -59.103  1.00  0.00     0.036 A 
HETATM   12  C   UNL     1     -44.278  56.289 -59.507  1.00  0.00     0.029 A 
HETATM   13  C   UNL     1     -43.297  55.672 -58.731  1.00  0.00     0.004 A 
HETATM   14  C   UNL     1     -42.879  56.262 -57.541  1.00  0.00     0.029 A 
BRANCH  11  15
HETATM   15  N   UNL     1     -45.816  58.068 -59.960  1.00  0.00    -0.327 N 
HETATM   16  C   UNL     1     -46.961  57.467 -60.448  1.00  0.00     0.218 C 
HETATM   17  C   UNL     1     -47.752  58.364 -61.369  1.00  0.00     0.117 C 
HETATM   18  O   UNL     1     -47.372  56.341 -60.190  1.00  0.00    -0.274 OA
HETATM   19  H   UNL     1     -45.671  59.037 -60.209  1.00  0.00     0.169 HD
ENDBRANCH  11  15
ENDBRANCH   6   9
ENDBRANCH   1   5
BRANCH   2  20
HETATM   20  C   UNL     1     -42.871  59.640 -51.996  1.00  0.00     0.133 C 
BRANCH  20  21
HETATM   21  C   UNL     1     -42.929  58.435 -51.053  1.00  0.00     0.102 C 
BRANCH  21  22
HETATM   22  S   UNL     1     -44.407  57.418 -51.388  1.00  0.00    -0.090 SA
BRANCH  22  23
HETATM   23  C   UNL     1     -43.701  56.119 -52.269  1.00  0.00     0.166 A 
HETATM   24  N   UNL     1     -42.698  55.358 -51.915  1.00  0.00    -0.223 NA
HETATM   25  C   UNL     1     -42.502  54.499 -52.979  1.00  0.00     0.085 A 
HETATM   26  C   UNL     1     -43.421  54.759 -53.976  1.00  0.00     0.122 A 
HETATM   27  N   UNL     1     -44.179  55.797 -53.503  1.00  0.00    -0.343 N 
HETATM   28  H   UNL     1     -44.951  56.256 -53.965  1.00  0.00     0.167 HD
BRANCH  25  29
HETATM   29  C   UNL     1     -41.458  53.482 -52.998  1.00  0.00    -0.006 A 
HETATM   30  C   UNL     1     -41.239  52.742 -54.169  1.00  0.00     0.014 A 
HETATM   31  C   UNL     1     -40.250  51.756 -54.222  1.00  0.00     0.001 A 
HETATM   32  C   UNL     1     -39.467  51.497 -53.101  1.00  0.00     0.000 A 
HETATM   33  C   UNL     1     -39.671  52.221 -51.929  1.00  0.00     0.001 A 
HETATM   34  C   UNL     1     -40.661  53.209 -51.878  1.00  0.00     0.014 A 
ENDBRANCH  25  29
ENDBRANCH  22  23
ENDBRANCH  21  22
ENDBRANCH  20  21
ENDBRANCH   2  20
TORSDOF 8
ENDMDL
MODEL 4
REMARK VINA RESULT:      -8.0      3.287      7.635
REMARK  8 active torsions:
REMARK  status: ('A' for Active; 'I' for Inactive)
REMARK       I    between atoms: C_2  and  N_3 
REMARK    1  A    between atoms: N_3  and  C_4 
REMARK    2  A    between atoms: C_6  and  N_7 
REMARK       I    between atoms: N_7  and  C_8 
REMARK    3  A    between atoms: C_8  and  C_9 
REMARK       I    between atoms: C_9  and  N_10 
REMARK    4  A    between atoms: N_10  and  C_11 
REMARK    5  A    between atoms: C_11  and  C_12 
REMARK    6  A    between atoms: C_12  and  S_13 
REMARK    7  A    between atoms: S_13  and  C_14 
REMARK    8  A    between atoms: C_16  and  C_17 
ROOT
HETATM    1  C   UNL     1     -44.252  57.135 -51.459  1.00  0.00     0.309 C 
HETATM    2  N   UNL     1     -44.174  58.144 -52.389  1.00  0.00    -0.352 N 
HETATM    3  O   UNL     1     -45.106  57.010 -50.592  1.00  0.00    -0.262 OA
HETATM    4  H   UNL     1     -43.336  58.147 -52.969  1.00  0.00     0.162 HD
ENDROOT
BRANCH   1   5
HETATM    5  C   UNL     1     -43.116  56.095 -51.580  1.00  0.00     0.313 C 
HETATM    6  N   UNL     1     -42.808  55.819 -52.894  1.00  0.00    -0.319 N 
HETATM    7  H   UNL     1     -43.340  56.362 -53.569  1.00  0.00     0.169 HD
HETATM    8  O   UNL     1     -42.620  55.657 -50.552  1.00  0.00    -0.262 OA
BRANCH   6   9
HETATM    9  C   UNL     1     -41.863  54.900 -53.386  1.00  0.00     0.037 A 
HETATM   10  C   UNL     1     -41.527  53.704 -52.739  1.00  0.00     0.059 A 
HETATM   11  C   UNL     1     -40.583  52.831 -53.294  1.00  0.00     0.036 A 
HETATM   12  C   UNL     1     -39.962  53.178 -54.502  1.00  0.00     0.029 A 
HETATM   13  C   UNL     1     -40.295  54.365 -55.154  1.00  0.00     0.004 A 
HETATM   14  C   UNL     1     -41.247  55.218 -54.600  1.00  0.00     0.029 A 
BRANCH  11  15
HETATM   15  N   UNL     1     -40.198  51.601 -52.715  1.00  0.00    -0.327 N 
HETATM   16  C   UNL     1     -39.829  51.364 -51.404  1.00  0.00     0.218 C 
HETATM   17  C   UNL     1     -39.448  49.925 -51.150  1.00  0.00     0.117 C 
HETATM   18  O   UNL     1     -39.810  52.173 -50.484  1.00  0.00    -0.274 OA
HETATM   19  H   UNL     1     -40.238  50.798 -53.328  1.00  0.00     0.169 HD
ENDBRANCH  11  15
ENDBRANCH   6   9
ENDBRANCH   1   5
BRANCH   2  20
HETATM   20  C   UNL     1     -45.013  59.323 -52.348  1.00  0.00     0.133 C 
BRANCH  20  21
HETATM   21  C   UNL     1     -44.344  60.560 -52.952  1.00  0.00     0.102 C 
BRANCH  21  22
HETATM   22  S   UNL     1     -42.544  60.304 -53.127  1.00  0.00    -0.090 SA
BRANCH  22  23
HETATM   23  C   UNL     1     -42.440  59.946 -54.807  1.00  0.00     0.166 A 
HETATM   24  N   UNL     1     -42.633  58.795 -55.398  1.00  0.00    -0.223 NA
HETATM   25  C   UNL     1     -42.398  59.032 -56.739  1.00  0.00     0.085 A 
HETATM   26  C   UNL     1     -42.068  60.358 -56.936  1.00  0.00     0.122 A 
HETATM   27  N   UNL     1     -42.102  60.925 -55.691  1.00  0.00    -0.343 N 
HETATM   28  H   UNL     1     -41.912  61.887 -55.447  1.00  0.00     0.167 HD
BRANCH  25  29
HETATM   29  C   UNL     1     -42.493  57.995 -57.758  1.00  0.00    -0.006 A 
HETATM   30  C   UNL     1     -43.061  56.756 -57.428  1.00  0.00     0.014 A 
HETATM   31  C   UNL     1     -43.164  55.736 -58.379  1.00  0.00     0.001 A 
HETATM   32  C   UNL     1     -42.699  55.944 -59.674  1.00  0.00     0.000 A 
HETATM   33  C   UNL     1     -42.132  57.169 -60.020  1.00  0.00     0.001 A 
HETATM   34  C   UNL     1     -42.030  58.189 -59.067  1.00  0.00     0.014 A 
ENDBRANCH  25  29
ENDBRANCH  22  23
ENDBRANCH  21  22
ENDBRANCH  20  21
ENDBRANCH   2  20
TORSDOF 8
ENDMDL
MODEL 5
REMARK VINA RESULT:      -7.9      1.801      2.380
REMARK  8 active torsions:
REMARK  status: ('A' for Active; 'I' for Inactive)
REMARK       I    between atoms: C_2  and  N_3 
REMARK    1  A    between atoms: N_3  and  C_4 
REMARK    2  A    between atoms: C_6  and  N_7 
REMARK       I    between atoms: N_7  and  C_8 
REMARK    3  A    between atoms: C_8  and  C_9 
REMARK       I    between atoms: C_9  and  N_10 
REMARK    4  A    between atoms: N_10  and  C_11 
REMARK    5  A    between atoms: C_11  and  C_12 
REMARK    6  A    between atoms: C_12  and  S_13 
REMARK    7  A    between atoms: S_13  and  C_14 
REMARK    8  A    between atoms: C_16  and  C_17 
ROOT
HETATM    1  C   UNL     1     -42.579  59.299 -56.553  1.00  0.00     0.309 C 
HETATM    2  N   UNL     1     -43.396  58.879 -55.530  1.00  0.00    -0.352 N 
HETATM    3  O   UNL     1     -41.730  60.177 -56.491  1.00  0.00    -0.262 OA
HETATM    4  H   UNL     1     -44.118  58.208 -55.789  1.00  0.00     0.162 HD
ENDROOT
BRANCH   1   5
HETATM    5  C   UNL     1     -42.814  58.544 -57.880  1.00  0.00     0.313 C 
HETATM    6  N   UNL     1     -43.857  57.648 -57.786  1.00  0.00    -0.319 N 
HETATM    7  H   UNL     1     -44.328  57.652 -56.885  1.00  0.00     0.169 HD
HETATM    8  O   UNL     1     -42.098  58.813 -58.834  1.00  0.00    -0.262 OA
BRANCH   6   9
HETATM    9  C   UNL     1     -44.329  56.764 -58.772  1.00  0.00     0.037 A 
HETATM   10  C   UNL     1     -45.443  57.019 -59.582  1.00  0.00     0.059 A 
HETATM   11  C   UNL     1     -45.849  56.095 -60.553  1.00  0.00     0.036 A 
HETATM   12  C   UNL     1     -45.136  54.897 -60.693  1.00  0.00     0.029 A 
HETATM   13  C   UNL     1     -44.023  54.637 -59.893  1.00  0.00     0.004 A 
HETATM   14  C   UNL     1     -43.619  55.571 -58.942  1.00  0.00     0.029 A 
BRANCH  11  15
HETATM   15  N   UNL     1     -46.950  56.281 -61.418  1.00  0.00    -0.327 N 
HETATM   16  C   UNL     1     -47.789  57.378 -61.494  1.00  0.00     0.218 C 
HETATM   17  C   UNL     1     -48.885  57.211 -62.519  1.00  0.00     0.117 C 
HETATM   18  O   UNL     1     -47.705  58.418 -60.851  1.00  0.00    -0.274 OA
HETATM   19  H   UNL     1     -47.114  55.537 -62.083  1.00  0.00     0.169 HD
ENDBRANCH  11  15
ENDBRANCH   6   9
ENDBRANCH   1   5
BRANCH   2  20
HETATM   20  C   UNL     1     -43.487  59.566 -54.259  1.00  0.00     0.133 C 
BRANCH  20  21
HETATM   21  C   UNL     1     -44.408  58.862 -53.259  1.00  0.00     0.102 C 
BRANCH  21  22
HETATM   22  S   UNL     1     -43.443  58.134 -51.890  1.00  0.00    -0.090 SA
BRANCH  22  23
HETATM   23  C   UNL     1     -43.128  56.567 -52.527  1.00  0.00     0.166 A 
HETATM   24  N   UNL     1     -42.107  55.787 -52.278  1.00  0.00    -0.223 NA
HETATM   25  C   UNL     1     -42.309  54.666 -53.059  1.00  0.00     0.085 A 
HETATM   26  C   UNL     1     -43.483  54.790 -53.776  1.00  0.00     0.122 A 
HETATM   27  N   UNL     1     -43.991  56.011 -53.421  1.00  0.00    -0.343 N 
HETATM   28  H   UNL     1     -44.844  56.441 -53.750  1.00  0.00     0.167 HD
BRANCH  25  29
HETATM   29  C   UNL     1     -41.383  53.541 -53.089  1.00  0.00    -0.006 A 
HETATM   30  C   UNL     1     -40.676  53.200 -51.926  1.00  0.00     0.014 A 
HETATM   31  C   UNL     1     -39.776  52.130 -51.920  1.00  0.00     0.001 A 
HETATM   32  C   UNL     1     -39.571  51.388 -53.080  1.00  0.00     0.000 A 
HETATM   33  C   UNL     1     -40.262  51.714 -54.244  1.00  0.00     0.001 A 
HETATM   34  C   UNL     1     -41.164  52.784 -54.249  1.00  0.00     0.014 A 
ENDBRANCH  25  29
ENDBRANCH  22  23
ENDBRANCH  21  22
ENDBRANCH  20  21
ENDBRANCH   2  20
TORSDOF 8
ENDMDL
MODEL 6
REMARK VINA RESULT:      -7.8      2.743      5.780
REMARK  8 active torsions:
REMARK  status: ('A' for Active; 'I' for Inactive)
REMARK       I    between atoms: C_2  and  N_3 
REMARK    1  A    between atoms: N_3  and  C_4 
REMARK    2  A    between atoms: C_6  and  N_7 
REMARK       I    between atoms: N_7  and  C_8 
REMARK    3  A    between atoms: C_8  and  C_9 
REMARK       I    between atoms: C_9  and  N_10 
REMARK    4  A    between atoms: N_10  and  C_11 
REMARK    5  A    between atoms: C_11  and  C_12 
REMARK    6  A    between atoms: C_12  and  S_13 
REMARK    7  A    between atoms: S_13  and  C_14 
REMARK    8  A    between atoms: C_16  and  C_17 
ROOT
HETATM    1  C   UNL     1     -40.359  52.940 -53.293  1.00  0.00     0.309 C 
HETATM    2  N   UNL     1     -40.343  53.637 -52.108  1.00  0.00    -0.352 N 
HETATM    3  O   UNL     1     -40.228  51.732 -53.427  1.00  0.00    -0.262 OA
HETATM    4  H   UNL     1     -40.360  54.652 -52.192  1.00  0.00     0.162 HD
ENDROOT
BRANCH   1   5
HETATM    5  C   UNL     1     -40.563  53.838 -54.534  1.00  0.00     0.313 C 
HETATM    6  N   UNL     1     -41.686  54.627 -54.419  1.00  0.00    -0.319 N 
HETATM    7  H   UNL     1     -42.176  54.528 -53.533  1.00  0.00     0.169 HD
HETATM    8  O   UNL     1     -39.743  53.771 -55.438  1.00  0.00    -0.262 OA
BRANCH   6   9
HETATM    9  C   UNL     1     -42.208  55.531 -55.362  1.00  0.00     0.037 A 
HETATM   10  C   UNL     1     -42.904  55.143 -56.515  1.00  0.00     0.059 A 
HETATM   11  C   UNL     1     -43.405  56.101 -57.405  1.00  0.00     0.036 A 
HETATM   12  C   UNL     1     -43.185  57.459 -57.138  1.00  0.00     0.029 A 
HETATM   13  C   UNL     1     -42.496  57.854 -55.991  1.00  0.00     0.004 A 
HETATM   14  C   UNL     1     -42.016  56.892 -55.104  1.00  0.00     0.029 A 
BRANCH  11  15
HETATM   15  N   UNL     1     -44.127  55.795 -58.579  1.00  0.00    -0.327 N 
HETATM   16  C   UNL     1     -43.668  55.815 -59.883  1.00  0.00     0.218 C 
HETATM   17  C   UNL     1     -44.736  55.460 -60.889  1.00  0.00     0.117 C 
HETATM   18  O   UNL     1     -42.528  56.060 -60.261  1.00  0.00    -0.274 OA
HETATM   19  H   UNL     1     -45.081  55.489 -58.438  1.00  0.00     0.169 HD
ENDBRANCH  11  15
ENDBRANCH   6   9
ENDBRANCH   1   5
BRANCH   2  20
HETATM   20  C   UNL     1     -39.977  53.035 -50.843  1.00  0.00     0.133 C 
BRANCH  20  21
HETATM   21  C   UNL     1     -39.484  54.054 -49.812  1.00  0.00     0.102 C 
BRANCH  21  22
HETATM   22  S   UNL     1     -40.832  54.532 -48.676  1.00  0.00    -0.090 SA
BRANCH  22  23
HETATM   23  C   UNL     1     -41.881  55.357 -49.763  1.00  0.00     0.166 A 
HETATM   24  N   UNL     1     -41.707  56.530 -50.314  1.00  0.00    -0.223 NA
HETATM   25  C   UNL     1     -42.843  56.747 -51.069  1.00  0.00     0.085 A 
HETATM   26  C   UNL     1     -43.698  55.668 -50.963  1.00  0.00     0.122 A 
HETATM   27  N   UNL     1     -43.065  54.790 -50.125  1.00  0.00    -0.343 N 
HETATM   28  H   UNL     1     -43.395  53.887 -49.816  1.00  0.00     0.167 HD
BRANCH  25  29
HETATM   29  C   UNL     1     -43.062  57.961 -51.847  1.00  0.00    -0.006 A 
HETATM   30  C   UNL     1     -42.012  58.878 -51.999  1.00  0.00     0.014 A 
HETATM   31  C   UNL     1     -42.187  60.055 -52.733  1.00  0.00     0.001 A 
HETATM   32  C   UNL     1     -43.417  60.329 -53.325  1.00  0.00     0.000 A 
HETATM   33  C   UNL     1     -44.471  59.429 -53.182  1.00  0.00     0.001 A 
HETATM   34  C   UNL     1     -44.294  58.251 -52.448  1.00  0.00     0.014 A 
ENDBRANCH  25  29
ENDBRANCH  22  23
ENDBRANCH  21  22
ENDBRANCH  20  21
ENDBRANCH   2  20
TORSDOF 8
ENDMDL
MODEL 7
REMARK VINA RESULT:      -7.8      4.318      7.415
REMARK  8 active torsions:
REMARK  status: ('A' for Active; 'I' for Inactive)
REMARK       I    between atoms: C_2  and  N_3 
REMARK    1  A    between atoms: N_3  and  C_4 
REMARK    2  A    between atoms: C_6  and  N_7 
REMARK       I    between atoms: N_7  and  C_8 
REMARK    3  A    between atoms: C_8  and  C_9 
REMARK       I    between atoms: C_9  and  N_10 
REMARK    4  A    between atoms: N_10  and  C_11 
REMARK    5  A    between atoms: C_11  and  C_12 
REMARK    6  A    between atoms: C_12  and  S_13 
REMARK    7  A    between atoms: S_13  and  C_14 
REMARK    8  A    between atoms: C_16  and  C_17 
ROOT
HETATM    1  C   UNL     1     -41.604  59.959 -50.480  1.00  0.00     0.309 C 
HETATM    2  N   UNL     1     -42.923  60.228 -50.204  1.00  0.00    -0.352 N 
HETATM    3  O   UNL     1     -40.704  60.779 -50.595  1.00  0.00    -0.262 OA
HETATM    4  H   UNL     1     -43.556  59.431 -50.249  1.00  0.00     0.162 HD
ENDROOT
BRANCH   1   5
HETATM    5  C   UNL     1     -41.304  58.453 -50.652  1.00  0.00     0.313 C 
HETATM    6  N   UNL     1     -42.453  57.720 -50.858  1.00  0.00    -0.319 N 
HETATM    7  H   UNL     1     -43.301  58.279 -50.904  1.00  0.00     0.169 HD
HETATM    8  O   UNL     1     -40.140  58.085 -50.606  1.00  0.00    -0.262 OA
BRANCH   6   9
HETATM    9  C   UNL     1     -42.573  56.327 -51.013  1.00  0.00     0.037 A 
HETATM   10  C   UNL     1     -41.541  55.501 -51.479  1.00  0.00     0.059 A 
HETATM   11  C   UNL     1     -41.730  54.118 -51.598  1.00  0.00     0.036 A 
HETATM   12  C   UNL     1     -42.975  53.570 -51.260  1.00  0.00     0.029 A 
HETATM   13  C   UNL     1     -44.005  54.385 -50.792  1.00  0.00     0.004 A 
HETATM   14  C   UNL     1     -43.801  55.757 -50.663  1.00  0.00     0.029 A 
BRANCH  11  15
HETATM   15  N   UNL     1     -40.741  53.215 -52.045  1.00  0.00    -0.327 N 
HETATM   16  C   UNL     1     -40.126  52.209 -51.323  1.00  0.00     0.218 C 
HETATM   17  C   UNL     1     -39.086  51.461 -52.122  1.00  0.00     0.117 C 
HETATM   18  O   UNL     1     -40.360  51.883 -50.165  1.00  0.00    -0.274 OA
HETATM   19  H   UNL     1     -40.485  53.295 -53.021  1.00  0.00     0.169 HD
ENDBRANCH  11  15
ENDBRANCH   6   9
ENDBRANCH   1   5
BRANCH   2  20
HETATM   20  C   UNL     1     -43.470  61.568 -50.192  1.00  0.00     0.133 C 
BRANCH  20  21
HETATM   21  C   UNL     1     -44.355  61.868 -51.404  1.00  0.00     0.102 C 
BRANCH  21  22
HETATM   22  S   UNL     1     -45.778  60.725 -51.468  1.00  0.00    -0.090 SA
BRANCH  22  23
HETATM   23  C   UNL     1     -45.301  59.703 -52.767  1.00  0.00     0.166 A 
HETATM   24  N   UNL     1     -44.531  58.646 -52.720  1.00  0.00    -0.223 NA
HETATM   25  C   UNL     1     -44.434  58.210 -54.027  1.00  0.00     0.085 A 
HETATM   26  C   UNL     1     -45.175  59.027 -54.858  1.00  0.00     0.122 A 
HETATM   27  N   UNL     1     -45.722  59.974 -54.034  1.00  0.00    -0.343 N 
HETATM   28  H   UNL     1     -46.325  60.742 -54.294  1.00  0.00     0.167 HD
BRANCH  25  29
HETATM   29  C   UNL     1     -43.647  57.048 -54.421  1.00  0.00    -0.006 A 
HETATM   30  C   UNL     1     -44.229  55.773 -54.372  1.00  0.00     0.014 A 
HETATM   31  C   UNL     1     -43.503  54.637 -54.737  1.00  0.00     0.001 A 
HETATM   32  C   UNL     1     -42.181  54.762 -55.155  1.00  0.00     0.000 A 
HETATM   33  C   UNL     1     -41.586  56.020 -55.209  1.00  0.00     0.001 A 
HETATM   34  C   UNL     1     -42.315  57.157 -54.844  1.00  0.00     0.014 A 
ENDBRANCH  25  29
ENDBRANCH  22  23
ENDBRANCH  21  22
ENDBRANCH  20  21
ENDBRANCH   2  20
TORSDOF 8
ENDMDL
MODEL 8
REMARK VINA RESULT:      -7.7      4.020      7.572
REMARK  8 active torsions:
REMARK  status: ('A' for Active; 'I' for Inactive)
REMARK       I    between atoms: C_2  and  N_3 
REMARK    1  A    between atoms: N_3  and  C_4 
REMARK    2  A    between atoms: C_6  and  N_7 
REMARK       I    between atoms: N_7  and  C_8 
REMARK    3  A    between atoms: C_8  and  C_9 
REMARK       I    between atoms: C_9  and  N_10 
REMARK    4  A    between atoms: N_10  and  C_11 
REMARK    5  A    between atoms: C_11  and  C_12 
REMARK    6  A    between atoms: C_12  and  S_13 
REMARK    7  A    between atoms: S_13  and  C_14 
REMARK    8  A    between atoms: C_16  and  C_17 
ROOT
HETATM    1  C   UNL     1     -42.070  58.762 -51.233  1.00  0.00     0.309 C 
HETATM    2  N   UNL     1     -43.255  59.415 -51.473  1.00  0.00    -0.352 N 
HETATM    3  O   UNL     1     -40.954  59.262 -51.221  1.00  0.00    -0.262 OA
HETATM    4  H   UNL     1     -44.080  58.822 -51.550  1.00  0.00     0.162 HD
ENDROOT
BRANCH   1   5
HETATM    5  C   UNL     1     -42.242  57.250 -50.965  1.00  0.00     0.313 C 
HETATM    6  N   UNL     1     -41.075  56.671 -50.516  1.00  0.00    -0.319 N 
HETATM    7  H   UNL     1     -40.306  57.324 -50.395  1.00  0.00     0.169 HD
HETATM    8  O   UNL     1     -43.341  56.750 -51.153  1.00  0.00    -0.262 OA
BRANCH   6   9
HETATM    9  C   UNL     1     -40.844  55.318 -50.211  1.00  0.00     0.037 A 
HETATM   10  C   UNL     1     -40.561  54.338 -51.172  1.00  0.00     0.059 A 
HETATM   11  C   UNL     1     -40.330  53.009 -50.792  1.00  0.00     0.036 A 
HETATM   12  C   UNL     1     -40.404  52.666 -49.436  1.00  0.00     0.029 A 
HETATM   13  C   UNL     1     -40.682  53.636 -48.473  1.00  0.00     0.004 A 
HETATM   14  C   UNL     1     -40.894  54.957 -48.860  1.00  0.00     0.029 A 
BRANCH  11  15
HETATM   15  N   UNL     1     -40.026  51.966 -51.694  1.00  0.00    -0.327 N 
HETATM   16  C   UNL     1     -39.797  50.634 -51.400  1.00  0.00     0.218 C 
HETATM   17  C   UNL     1     -39.465  49.810 -52.621  1.00  0.00     0.117 C 
HETATM   18  O   UNL     1     -39.860  50.100 -50.299  1.00  0.00    -0.274 OA
HETATM   19  H   UNL     1     -40.014  52.223 -52.672  1.00  0.00     0.169 HD
ENDBRANCH  11  15
ENDBRANCH   6   9
ENDBRANCH   1   5
BRANCH   2  20
HETATM   20  C   UNL     1     -43.322  60.786 -51.935  1.00  0.00     0.133 C 
BRANCH  20  21
HETATM   21  C   UNL     1     -42.721  60.982 -53.329  1.00  0.00     0.102 C 
BRANCH  21  22
HETATM   22  S   UNL     1     -43.927  60.531 -54.625  1.00  0.00    -0.090 SA
BRANCH  22  23
HETATM   23  C   UNL     1     -43.814  58.814 -54.574  1.00  0.00     0.166 A 
HETATM   24  N   UNL     1     -42.736  58.076 -54.636  1.00  0.00    -0.223 NA
HETATM   25  C   UNL     1     -43.187  56.771 -54.588  1.00  0.00     0.085 A 
HETATM   26  C   UNL     1     -44.564  56.747 -54.485  1.00  0.00     0.122 A 
HETATM   27  N   UNL     1     -44.945  58.062 -54.477  1.00  0.00    -0.343 N 
HETATM   28  H   UNL     1     -45.884  58.430 -54.414  1.00  0.00     0.167 HD
BRANCH  25  29
HETATM   29  C   UNL     1     -42.296  55.619 -54.644  1.00  0.00    -0.006 A 
HETATM   30  C   UNL     1     -42.812  54.337 -54.405  1.00  0.00     0.014 A 
HETATM   31  C   UNL     1     -41.986  53.211 -54.445  1.00  0.00     0.001 A 
HETATM   32  C   UNL     1     -40.630  53.353 -54.725  1.00  0.00     0.000 A 
HETATM   33  C   UNL     1     -40.099  54.619 -54.963  1.00  0.00     0.001 A 
HETATM   34  C   UNL     1     -40.928  55.746 -54.924  1.00  0.00     0.014 A 
ENDBRANCH  25  29
ENDBRANCH  22  23
ENDBRANCH  21  22
ENDBRANCH  20  21
ENDBRANCH   2  20
TORSDOF 8
ENDMDL
MODEL 9
REMARK VINA RESULT:      -7.5      1.962      2.631
REMARK  8 active torsions:
REMARK  status: ('A' for Active; 'I' for Inactive)
REMARK       I    between atoms: C_2  and  N_3 
REMARK    1  A    between atoms: N_3  and  C_4 
REMARK    2  A    between atoms: C_6  and  N_7 
REMARK       I    between atoms: N_7  and  C_8 
REMARK    3  A    between atoms: C_8  and  C_9 
REMARK       I    between atoms: C_9  and  N_10 
REMARK    4  A    between atoms: N_10  and  C_11 
REMARK    5  A    between atoms: C_11  and  C_12 
REMARK    6  A    between atoms: C_12  and  S_13 
REMARK    7  A    between atoms: S_13  and  C_14 
REMARK    8  A    between atoms: C_16  and  C_17 
ROOT
HETATM    1  C   UNL     1     -42.646  60.662 -54.247  1.00  0.00     0.309 C 
HETATM    2  N   UNL     1     -42.017  59.610 -53.624  1.00  0.00    -0.352 N 
HETATM    3  O   UNL     1     -42.841  61.774 -53.776  1.00  0.00    -0.262 OA
HETATM    4  H   UNL     1     -42.037  58.723 -54.126  1.00  0.00     0.162 HD
ENDROOT
BRANCH   1   5
HETATM    5  C   UNL     1     -43.130  60.332 -55.676  1.00  0.00     0.313 C 
HETATM    6  N   UNL     1     -44.388  59.769 -55.677  1.00  0.00    -0.319 N 
HETATM    7  H   UNL     1     -44.811  59.695 -54.756  1.00  0.00     0.169 HD
HETATM    8  O   UNL     1     -42.394  60.604 -56.614  1.00  0.00    -0.262 OA
BRANCH   6   9
HETATM    9  C   UNL     1     -45.126  59.305 -56.781  1.00  0.00     0.037 A 
HETATM   10  C   UNL     1     -44.903  58.072 -57.408  1.00  0.00     0.059 A 
HETATM   11  C   UNL     1     -45.687  57.672 -58.497  1.00  0.00     0.036 A 
HETATM   12  C   UNL     1     -46.690  58.530 -58.967  1.00  0.00     0.029 A 
HETATM   13  C   UNL     1     -46.921  59.757 -58.345  1.00  0.00     0.004 A 
HETATM   14  C   UNL     1     -46.146  60.139 -57.253  1.00  0.00     0.029 A 
BRANCH  11  15
HETATM   15  N   UNL     1     -45.537  56.442 -59.176  1.00  0.00    -0.327 N 
HETATM   16  C   UNL     1     -44.615  56.124 -60.156  1.00  0.00     0.218 C 
HETATM   17  C   UNL     1     -44.773  54.717 -60.680  1.00  0.00     0.117 C 
HETATM   18  O   UNL     1     -43.721  56.842 -60.589  1.00  0.00    -0.274 OA
HETATM   19  H   UNL     1     -46.155  55.699 -58.876  1.00  0.00     0.169 HD
ENDBRANCH  11  15
ENDBRANCH   6   9
ENDBRANCH   1   5
BRANCH   2  20
HETATM   20  C   UNL     1     -41.653  59.625 -52.223  1.00  0.00     0.133 C 
BRANCH  20  21
HETATM   21  C   UNL     1     -42.341  58.524 -51.411  1.00  0.00     0.102 C 
BRANCH  21  22
HETATM   22  S   UNL     1     -43.888  57.989 -52.221  1.00  0.00    -0.090 SA
BRANCH  22  23
HETATM   23  C   UNL     1     -43.422  56.433 -52.789  1.00  0.00     0.166 A 
HETATM   24  N   UNL     1     -42.375  55.729 -52.440  1.00  0.00    -0.223 NA
HETATM   25  C   UNL     1     -42.442  54.579 -53.204  1.00  0.00     0.085 A 
HETATM   26  C   UNL     1     -43.561  54.609 -54.012  1.00  0.00     0.122 A 
HETATM   27  N   UNL     1     -44.174  55.800 -53.731  1.00  0.00    -0.343 N 
HETATM   28  H   UNL     1     -45.025  56.165 -54.136  1.00  0.00     0.167 HD
BRANCH  25  29
HETATM   29  C   UNL     1     -41.445  53.518 -53.132  1.00  0.00    -0.006 A 
HETATM   30  C   UNL     1     -41.144  52.777 -54.284  1.00  0.00     0.014 A 
HETATM   31  C   UNL     1     -40.198  51.749 -54.250  1.00  0.00     0.001 A 
HETATM   32  C   UNL     1     -39.540  51.448 -53.061  1.00  0.00     0.000 A 
HETATM   33  C   UNL     1     -39.828  52.173 -51.906  1.00  0.00     0.001 A 
HETATM   34  C   UNL     1     -40.774  53.203 -51.942  1.00  0.00     0.014 A 
ENDBRANCH  25  29
ENDBRANCH  22  23
ENDBRANCH  21  22
ENDBRANCH  20  21
ENDBRANCH   2  20
TORSDOF 8
ENDMDL
MODEL 10
REMARK VINA RESULT:      -7.5      3.689      9.936
REMARK  8 active torsions:
REMARK  status: ('A' for Active; 'I' for Inactive)
REMARK       I    between atoms: C_2  and  N_3 
REMARK    1  A    between atoms: N_3  and  C_4 
REMARK    2  A    between atoms: C_6  and  N_7 
REMARK       I    between atoms: N_7  and  C_8 
REMARK    3  A    between atoms: C_8  and  C_9 
REMARK       I    between atoms: C_9  and  N_10 
REMARK    4  A    between atoms: N_10  and  C_11 
REMARK    5  A    between atoms: C_11  and  C_12 
REMARK    6  A    between atoms: C_12  and  S_13 
REMARK    7  A    between atoms: S_13  and  C_14 
REMARK    8  A    between atoms: C_16  and  C_17 
ROOT
HETATM    1  C   UNL     1     -42.205  56.609 -56.233  1.00  0.00     0.309 C 
HETATM    2  N   UNL     1     -42.431  55.683 -57.223  1.00  0.00    -0.352 N 
HETATM    3  O   UNL     1     -42.502  57.795 -56.266  1.00  0.00    -0.262 OA
HETATM    4  H   UNL     1     -42.022  54.762 -57.068  1.00  0.00     0.162 HD
ENDROOT
BRANCH   1   5
HETATM    5  C   UNL     1     -41.501  56.023 -54.988  1.00  0.00     0.313 C 
HETATM    6  N   UNL     1     -41.490  54.645 -55.004  1.00  0.00    -0.319 N 
HETATM    7  H   UNL     1     -41.904  54.235 -55.837  1.00  0.00     0.169 HD
HETATM    8  O   UNL     1     -41.037  56.799 -54.166  1.00  0.00    -0.262 OA
BRANCH   6   9
HETATM    9  C   UNL     1     -40.979  53.774 -54.026  1.00  0.00     0.037 A 
HETATM   10  C   UNL     1     -41.185  53.937 -52.649  1.00  0.00     0.059 A 
HETATM   11  C   UNL     1     -40.653  53.022 -51.732  1.00  0.00     0.036 A 
HETATM   12  C   UNL     1     -39.893  51.945 -52.209  1.00  0.00     0.029 A 
HETATM   13  C   UNL     1     -39.687  51.773 -53.578  1.00  0.00     0.004 A 
HETATM   14  C   UNL     1     -40.234  52.681 -54.481  1.00  0.00     0.029 A 
BRANCH  11  15
HETATM   15  N   UNL     1     -40.825  53.106 -50.333  1.00  0.00    -0.327 N 
HETATM   16  C   UNL     1     -40.060  53.817 -49.428  1.00  0.00     0.218 C 
HETATM   17  C   UNL     1     -40.522  53.645 -48.001  1.00  0.00     0.117 C 
HETATM   18  O   UNL     1     -39.108  54.548 -49.680  1.00  0.00    -0.274 OA
HETATM   19  H   UNL     1     -41.629  52.617 -49.962  1.00  0.00     0.169 HD
ENDBRANCH  11  15
ENDBRANCH   6   9
ENDBRANCH   1   5
BRANCH   2  20
HETATM   20  C   UNL     1     -42.899  56.039 -58.546  1.00  0.00     0.133 C 
BRANCH  20  21
HETATM   21  C   UNL     1     -44.269  56.721 -58.535  1.00  0.00     0.102 C 
BRANCH  21  22
HETATM   22  S   UNL     1     -44.486  57.765 -60.018  1.00  0.00    -0.090 SA
BRANCH  22  23
HETATM   23  C   UNL     1     -43.520  59.123 -59.589  1.00  0.00     0.166 A 
HETATM   24  N   UNL     1     -42.681  59.784 -60.344  1.00  0.00    -0.223 NA
HETATM   25  C   UNL     1     -42.141  60.754 -59.521  1.00  0.00     0.085 A 
HETATM   26  C   UNL     1     -42.686  60.663 -58.256  1.00  0.00     0.122 A 
HETATM   27  N   UNL     1     -43.565  59.615 -58.320  1.00  0.00    -0.343 N 
HETATM   28  H   UNL     1     -44.148  59.254 -57.578  1.00  0.00     0.167 HD
BRANCH  25  29
HETATM   29  C   UNL     1     -41.139  61.712 -59.973  1.00  0.00    -0.006 A 
HETATM   30  C   UNL     1     -41.027  61.997 -61.342  1.00  0.00     0.014 A 
HETATM   31  C   UNL     1     -40.075  62.906 -61.811  1.00  0.00     0.001 A 
HETATM   32  C   UNL     1     -39.219  63.541 -60.915  1.00  0.00     0.000 A 
HETATM   33  C   UNL     1     -39.315  63.268 -59.552  1.00  0.00     0.001 A 
HETATM   34  C   UNL     1     -40.270  62.359 -59.084  1.00  0.00     0.014 A 
ENDBRANCH  25  29
ENDBRANCH  22  23
ENDBRANCH  21  22
ENDBRANCH  20  21
ENDBRANCH   2  20
TORSDOF 8
ENDMDL
