MODEL 1
REMARK VINA RESULT:      -8.5      0.000      0.000
REMARK  7 active torsions:
REMARK  status: ('A' for Active; 'I' for Inactive)
REMARK    1  A    between atoms: C_2  and  O_3 
REMARK    2  A    between atoms: O_3  and  C_4 
REMARK    3  A    between atoms: C_5  and  C_6 
REMARK       I    between atoms: C_6  and  N_7 
REMARK    4  A    between atoms: N_7  and  C_8 
REMARK    5  A    between atoms: C_8  and  C_9 
REMARK    6  A    between atoms: C_9  and  N_10 
REMARK    7  A    between atoms: N_14  and  C_15 
ROOT
HETATM    1  C   UNL     1     -41.075  54.328 -53.859  1.00  0.00     0.255 C 
HETATM    2  N   UNL     1     -42.437  54.517 -53.970  1.00  0.00    -0.355 N 
HETATM    3  O   UNL     1     -40.273  54.877 -54.609  1.00  0.00    -0.268 OA
HETATM    4  H   UNL     1     -43.028  53.984 -53.335  1.00  0.00     0.162 HD
ENDROOT
BRANCH   2   5
HETATM    5  C   UNL     1     -43.065  55.126 -55.136  1.00  0.00     0.150 C 
BRANCH   5   6
HETATM    6  C   UNL     1     -44.361  55.915 -54.854  1.00  0.00     0.254 C 
BRANCH   6   7
HETATM    7  N   UNL     1     -44.114  57.296 -54.304  1.00  0.00    -0.067 N 
HETATM    8  H   UNL     1     -44.951  57.866 -54.549  1.00  0.00     0.280 HD
HETATM    9  C   UNL     1     -44.054  57.377 -52.779  1.00  0.00     0.254 C 
HETATM   10  C   UNL     1     -43.904  58.849 -52.333  1.00  0.00     0.150 C 
HETATM   11  N   UNL     1     -42.710  59.460 -52.952  1.00  0.00    -0.378 N 
HETATM   12  C   UNL     1     -42.753  59.426 -54.431  1.00  0.00     0.150 C 
HETATM   13  C   UNL     1     -42.908  57.975 -54.941  1.00  0.00     0.254 C 
BRANCH  11  14
HETATM   14  C   UNL     1     -41.477  59.453 -52.304  1.00  0.00     0.030 A 
HETATM   15  C   UNL     1     -40.281  59.072 -52.937  1.00  0.00     0.031 A 
HETATM   16  C   UNL     1     -39.054  59.041 -52.257  1.00  0.00     0.026 A 
HETATM   17  C   UNL     1     -38.996  59.384 -50.915  1.00  0.00     0.034 A 
HETATM   18 CL   UNL     1     -37.497  59.340 -50.079  1.00  0.00    -0.084 Cl
HETATM   19  C   UNL     1     -40.157  59.748 -50.249  1.00  0.00     0.026 A 
HETATM   20  C   UNL     1     -41.377  59.773 -50.937  1.00  0.00     0.031 A 
ENDBRANCH  11  14
ENDBRANCH   6   7
ENDBRANCH   5   6
ENDBRANCH   2   5
BRANCH   1  21
HETATM   21  C   UNL     1     -40.634  53.442 -52.761  1.00  0.00     0.076 A 
HETATM   22  C   UNL     1     -40.608  53.975 -51.458  1.00  0.00     0.085 A 
HETATM   23  C   UNL     1     -40.234  53.146 -50.403  1.00  0.00     0.039 A 
HETATM   24  C   UNL     1     -39.867  51.818 -50.646  1.00  0.00     0.015 A 
HETATM   25  C   UNL     1     -39.859  51.290 -51.945  1.00  0.00    -0.025 A 
HETATM   26  C   UNL     1     -40.238  52.104 -53.038  1.00  0.00    -0.007 A 
HETATM   27  C   UNL     1     -39.470  49.959 -52.162  1.00  0.00     0.012 A 
HETATM   28  C   UNL     1     -40.177  51.533 -54.335  1.00  0.00     0.013 A 
HETATM   29  C   UNL     1     -39.785  50.208 -54.535  1.00  0.00     0.001 A 
HETATM   30  C   UNL     1     -39.436  49.419 -53.446  1.00  0.00     0.001 A 
BRANCH  22  31
HETATM   31  O   UNL     1     -41.010  55.277 -51.298  1.00  0.00    -0.350 OA
BRANCH  31  32
HETATM   32  C   UNL     1     -41.864  55.535 -50.179  1.00  0.00     0.171 C 
HETATM   33  C   UNL     1     -43.184  54.829 -50.429  1.00  0.00     0.034 C 
ENDBRANCH  31  32
ENDBRANCH  22  31
ENDBRANCH   1  21
TORSDOF 7
ENDMDL
MODEL 2
REMARK VINA RESULT:      -8.5      4.501      6.303
REMARK  7 active torsions:
REMARK  status: ('A' for Active; 'I' for Inactive)
REMARK    1  A    between atoms: C_2  and  O_3 
REMARK    2  A    between atoms: O_3  and  C_4 
REMARK    3  A    between atoms: C_5  and  C_6 
REMARK       I    between atoms: C_6  and  N_7 
REMARK    4  A    between atoms: N_7  and  C_8 
REMARK    5  A    between atoms: C_8  and  C_9 
REMARK    6  A    between atoms: C_9  and  N_10 
REMARK    7  A    between atoms: N_14  and  C_15 
ROOT
HETATM    1  C   UNL     1     -41.162  54.379 -53.954  1.00  0.00     0.255 C 
HETATM    2  N   UNL     1     -42.515  54.633 -54.036  1.00  0.00    -0.355 N 
HETATM    3  O   UNL     1     -40.360  54.827 -54.768  1.00  0.00    -0.268 OA
HETATM    4  H   UNL     1     -43.111  54.182 -53.343  1.00  0.00     0.162 HD
ENDROOT
BRANCH   2   5
HETATM    5  C   UNL     1     -43.152  55.186 -55.224  1.00  0.00     0.150 C 
BRANCH   5   6
HETATM    6  C   UNL     1     -43.279  56.724 -55.255  1.00  0.00     0.254 C 
BRANCH   6   7
HETATM    7  N   UNL     1     -43.211  57.302 -56.645  1.00  0.00    -0.067 N 
HETATM    8  H   UNL     1     -42.277  57.755 -56.731  1.00  0.00     0.280 HD
HETATM    9  C   UNL     1     -43.219  56.268 -57.769  1.00  0.00     0.254 C 
HETATM   10  C   UNL     1     -43.039  56.969 -59.135  1.00  0.00     0.150 C 
HETATM   11  N   UNL     1     -44.086  57.992 -59.335  1.00  0.00    -0.378 N 
HETATM   12  C   UNL     1     -44.084  59.028 -58.278  1.00  0.00     0.150 C 
HETATM   13  C   UNL     1     -44.256  58.386 -56.882  1.00  0.00     0.254 C 
BRANCH  11  14
HETATM   14  C   UNL     1     -45.278  57.686 -59.990  1.00  0.00     0.030 A 
HETATM   15  C   UNL     1     -45.608  56.386 -60.412  1.00  0.00     0.031 A 
HETATM   16  C   UNL     1     -46.800  56.106 -61.099  1.00  0.00     0.026 A 
HETATM   17  C   UNL     1     -47.690  57.129 -61.389  1.00  0.00     0.034 A 
HETATM   18 CL   UNL     1     -49.145  56.789 -62.235  1.00  0.00    -0.084 Cl
HETATM   19  C   UNL     1     -47.392  58.428 -61.006  1.00  0.00     0.026 A 
HETATM   20  C   UNL     1     -46.198  58.697 -60.324  1.00  0.00     0.031 A 
ENDBRANCH  11  14
ENDBRANCH   6   7
ENDBRANCH   5   6
ENDBRANCH   2   5
BRANCH   1  21
HETATM   21  C   UNL     1     -40.728  53.556 -52.805  1.00  0.00     0.076 A 
HETATM   22  C   UNL     1     -40.723  54.156 -51.532  1.00  0.00     0.085 A 
HETATM   23  C   UNL     1     -40.356  53.387 -50.430  1.00  0.00     0.039 A 
HETATM   24  C   UNL     1     -39.976  52.052 -50.599  1.00  0.00     0.015 A 
HETATM   25  C   UNL     1     -39.947  51.457 -51.869  1.00  0.00    -0.025 A 
HETATM   26  C   UNL     1     -40.318  52.209 -53.007  1.00  0.00    -0.007 A 
HETATM   27  C   UNL     1     -39.544  50.119 -52.011  1.00  0.00     0.012 A 
HETATM   28  C   UNL     1     -40.236  51.571 -54.272  1.00  0.00     0.013 A 
HETATM   29  C   UNL     1     -39.831  50.241 -54.397  1.00  0.00     0.001 A 
HETATM   30  C   UNL     1     -39.490  49.513 -53.265  1.00  0.00     0.001 A 
BRANCH  22  31
HETATM   31  O   UNL     1     -41.137  55.462 -51.445  1.00  0.00    -0.350 OA
BRANCH  31  32
HETATM   32  C   UNL     1     -42.010  55.769 -50.354  1.00  0.00     0.171 C 
HETATM   33  C   UNL     1     -43.401  55.289 -50.721  1.00  0.00     0.034 C 
ENDBRANCH  31  32
ENDBRANCH  22  31
ENDBRANCH   1  21
TORSDOF 7
ENDMDL
MODEL 3
REMARK VINA RESULT:      -8.5      3.506      4.684
REMARK  7 active torsions:
REMARK  status: ('A' for Active; 'I' for Inactive)
REMARK    1  A    between atoms: C_2  and  O_3 
REMARK    2  A    between atoms: O_3  and  C_4 
REMARK    3  A    between atoms: C_5  and  C_6 
REMARK       I    between atoms: C_6  and  N_7 
REMARK    4  A    between atoms: N_7  and  C_8 
REMARK    5  A    between atoms: C_8  and  C_9 
REMARK    6  A    between atoms: C_9  and  N_10 
REMARK    7  A    between atoms: N_14  and  C_15 
ROOT
HETATM    1  C   UNL     1     -41.082  54.332 -54.008  1.00  0.00     0.255 C 
HETATM    2  N   UNL     1     -42.439  54.424 -54.238  1.00  0.00    -0.355 N 
HETATM    3  O   UNL     1     -40.258  54.916 -54.705  1.00  0.00    -0.268 OA
HETATM    4  H   UNL     1     -43.046  53.868 -53.638  1.00  0.00     0.162 HD
ENDROOT
BRANCH   2   5
HETATM    5  C   UNL     1     -43.005  54.957 -55.470  1.00  0.00     0.150 C 
BRANCH   5   6
HETATM    6  C   UNL     1     -43.575  56.389 -55.374  1.00  0.00     0.254 C 
BRANCH   6   7
HETATM    7  N   UNL     1     -43.878  57.004 -56.716  1.00  0.00    -0.067 N 
HETATM    8  H   UNL     1     -44.709  56.499 -57.091  1.00  0.00     0.280 HD
HETATM    9  C   UNL     1     -44.334  58.461 -56.664  1.00  0.00     0.254 C 
HETATM   10  C   UNL     1     -44.716  58.947 -58.080  1.00  0.00     0.150 C 
HETATM   11  N   UNL     1     -43.585  58.769 -59.014  1.00  0.00    -0.378 N 
HETATM   12  C   UNL     1     -43.140  57.360 -59.110  1.00  0.00     0.150 C 
HETATM   13  C   UNL     1     -42.748  56.813 -57.719  1.00  0.00     0.254 C 
BRANCH  11  14
HETATM   14  C   UNL     1     -42.666  59.791 -59.239  1.00  0.00     0.030 A 
HETATM   15  C   UNL     1     -42.008  60.473 -58.199  1.00  0.00     0.031 A 
HETATM   16  C   UNL     1     -41.110  61.522 -58.447  1.00  0.00     0.026 A 
HETATM   17  C   UNL     1     -40.855  61.924 -59.750  1.00  0.00     0.034 A 
HETATM   18 CL   UNL     1     -39.762  63.212 -60.055  1.00  0.00    -0.084 Cl
HETATM   19  C   UNL     1     -41.498  61.290 -60.802  1.00  0.00     0.026 A 
HETATM   20  C   UNL     1     -42.396  60.245 -60.543  1.00  0.00     0.031 A 
ENDBRANCH  11  14
ENDBRANCH   6   7
ENDBRANCH   5   6
ENDBRANCH   2   5
BRANCH   1  21
HETATM   21  C   UNL     1     -40.679  53.508 -52.849  1.00  0.00     0.076 A 
HETATM   22  C   UNL     1     -40.692  54.111 -51.578  1.00  0.00     0.085 A 
HETATM   23  C   UNL     1     -40.354  53.341 -50.467  1.00  0.00     0.039 A 
HETATM   24  C   UNL     1     -39.983  52.002 -50.625  1.00  0.00     0.015 A 
HETATM   25  C   UNL     1     -39.936  51.403 -51.892  1.00  0.00    -0.025 A 
HETATM   26  C   UNL     1     -40.278  52.156 -53.040  1.00  0.00    -0.007 A 
HETATM   27  C   UNL     1     -39.544  50.061 -52.023  1.00  0.00     0.012 A 
HETATM   28  C   UNL     1     -40.178  51.514 -54.300  1.00  0.00     0.013 A 
HETATM   29  C   UNL     1     -39.784  50.179 -54.414  1.00  0.00     0.001 A 
HETATM   30  C   UNL     1     -39.472  49.452 -53.274  1.00  0.00     0.001 A 
BRANCH  22  31
HETATM   31  O   UNL     1     -41.095  55.421 -51.502  1.00  0.00    -0.350 OA
BRANCH  31  32
HETATM   32  C   UNL     1     -41.978  55.742 -50.423  1.00  0.00     0.171 C 
HETATM   33  C   UNL     1     -43.386  55.825 -50.983  1.00  0.00     0.034 C 
ENDBRANCH  31  32
ENDBRANCH  22  31
ENDBRANCH   1  21
TORSDOF 7
ENDMDL
MODEL 4
REMARK VINA RESULT:      -8.3      3.993      5.057
REMARK  7 active torsions:
REMARK  status: ('A' for Active; 'I' for Inactive)
REMARK    1  A    between atoms: C_2  and  O_3 
REMARK    2  A    between atoms: O_3  and  C_4 
REMARK    3  A    between atoms: C_5  and  C_6 
REMARK       I    between atoms: C_6  and  N_7 
REMARK    4  A    between atoms: N_7  and  C_8 
REMARK    5  A    between atoms: C_8  and  C_9 
REMARK    6  A    between atoms: C_9  and  N_10 
REMARK    7  A    between atoms: N_14  and  C_15 
ROOT
HETATM    1  C   UNL     1     -42.435  54.995 -53.867  1.00  0.00     0.255 C 
HETATM    2  N   UNL     1     -41.837  55.890 -54.729  1.00  0.00    -0.355 N 
HETATM    3  O   UNL     1     -43.613  54.667 -53.977  1.00  0.00    -0.268 OA
HETATM    4  H   UNL     1     -40.868  56.140 -54.534  1.00  0.00     0.162 HD
ENDROOT
BRANCH   2   5
HETATM    5  C   UNL     1     -42.588  56.743 -55.641  1.00  0.00     0.150 C 
BRANCH   5   6
HETATM    6  C   UNL     1     -42.886  56.131 -57.027  1.00  0.00     0.254 C 
BRANCH   6   7
HETATM    7  N   UNL     1     -43.280  57.154 -58.061  1.00  0.00    -0.067 N 
HETATM    8  H   UNL     1     -44.170  56.818 -58.486  1.00  0.00     0.280 HD
HETATM    9  C   UNL     1     -43.645  58.527 -57.497  1.00  0.00     0.254 C 
HETATM   10  C   UNL     1     -44.131  59.454 -58.633  1.00  0.00     0.150 C 
HETATM   11  N   UNL     1     -43.106  59.561 -59.691  1.00  0.00    -0.378 N 
HETATM   12  C   UNL     1     -42.753  58.250 -60.281  1.00  0.00     0.150 C 
HETATM   13  C   UNL     1     -42.262  57.273 -59.189  1.00  0.00     0.254 C 
BRANCH  11  14
HETATM   14  C   UNL     1     -42.155  60.580 -59.675  1.00  0.00     0.030 A 
HETATM   15  C   UNL     1     -41.717  61.237 -60.839  1.00  0.00     0.031 A 
HETATM   16  C   UNL     1     -40.735  62.239 -60.804  1.00  0.00     0.026 A 
HETATM   17  C   UNL     1     -40.157  62.602 -59.597  1.00  0.00     0.034 A 
HETATM   18 CL   UNL     1     -38.950  63.823 -59.553  1.00  0.00    -0.084 Cl
HETATM   19  C   UNL     1     -40.549  61.965 -58.429  1.00  0.00     0.026 A 
HETATM   20  C   UNL     1     -41.528  60.964 -58.475  1.00  0.00     0.031 A 
ENDBRANCH  11  14
ENDBRANCH   6   7
ENDBRANCH   5   6
ENDBRANCH   2   5
BRANCH   1  21
HETATM   21  C   UNL     1     -41.563  54.430 -52.816  1.00  0.00     0.076 A 
HETATM   22  C   UNL     1     -41.403  55.168 -51.629  1.00  0.00     0.085 A 
HETATM   23  C   UNL     1     -40.617  54.635 -50.609  1.00  0.00     0.039 A 
HETATM   24  C   UNL     1     -39.980  53.402 -50.783  1.00  0.00     0.015 A 
HETATM   25  C   UNL     1     -40.108  52.676 -51.976  1.00  0.00    -0.025 A 
HETATM   26  C   UNL     1     -40.903  53.188 -53.028  1.00  0.00    -0.007 A 
HETATM   27  C   UNL     1     -39.444  51.449 -52.129  1.00  0.00     0.012 A 
HETATM   28  C   UNL     1     -40.970  52.433 -54.227  1.00  0.00     0.013 A 
HETATM   29  C   UNL     1     -40.302  51.215 -54.365  1.00  0.00     0.001 A 
HETATM   30  C   UNL     1     -39.543  50.720 -53.313  1.00  0.00     0.001 A 
BRANCH  22  31
HETATM   31  O   UNL     1     -42.083  56.355 -51.523  1.00  0.00    -0.350 OA
BRANCH  31  32
HETATM   32  C   UNL     1     -41.338  57.458 -50.999  1.00  0.00     0.171 C 
HETATM   33  C   UNL     1     -40.745  58.218 -52.172  1.00  0.00     0.034 C 
ENDBRANCH  31  32
ENDBRANCH  22  31
ENDBRANCH   1  21
TORSDOF 7
ENDMDL
MODEL 5
REMARK VINA RESULT:      -8.0      3.508      4.798
REMARK  7 active torsions:
REMARK  status: ('A' for Active; 'I' for Inactive)
REMARK    1  A    between atoms: C_2  and  O_3 
REMARK    2  A    between atoms: O_3  and  C_4 
REMARK    3  A    between atoms: C_5  and  C_6 
REMARK       I    between atoms: C_6  and  N_7 
REMARK    4  A    between atoms: N_7  and  C_8 
REMARK    5  A    between atoms: C_8  and  C_9 
REMARK    6  A    between atoms: C_9  and  N_10 
REMARK    7  A    between atoms: N_14  and  C_15 
ROOT
HETATM    1  C   UNL     1     -41.567  55.680 -51.716  1.00  0.00     0.255 C 
HETATM    2  N   UNL     1     -42.934  55.863 -51.733  1.00  0.00    -0.355 N 
HETATM    3  O   UNL     1     -40.837  56.268 -50.925  1.00  0.00    -0.268 OA
HETATM    4  H   UNL     1     -43.456  55.369 -52.455  1.00  0.00     0.162 HD
ENDROOT
BRANCH   2   5
HETATM    5  C   UNL     1     -43.600  56.962 -51.044  1.00  0.00     0.150 C 
BRANCH   5   6
HETATM    6  C   UNL     1     -44.784  57.599 -51.802  1.00  0.00     0.254 C 
BRANCH   6   7
HETATM    7  N   UNL     1     -44.813  59.103 -51.709  1.00  0.00    -0.067 N 
HETATM    8  H   UNL     1     -44.803  59.460 -52.689  1.00  0.00     0.280 HD
HETATM    9  C   UNL     1     -46.100  59.684 -51.126  1.00  0.00     0.254 C 
HETATM   10  C   UNL     1     -46.056  61.228 -51.180  1.00  0.00     0.150 C 
HETATM   11  N   UNL     1     -44.865  61.739 -50.473  1.00  0.00    -0.378 N 
HETATM   12  C   UNL     1     -43.598  61.219 -51.036  1.00  0.00     0.150 C 
HETATM   13  C   UNL     1     -43.583  59.673 -51.014  1.00  0.00     0.254 C 
BRANCH  11  14
HETATM   14  C   UNL     1     -44.919  62.090 -49.126  1.00  0.00     0.030 A 
HETATM   15  C   UNL     1     -45.143  61.155 -48.099  1.00  0.00     0.031 A 
HETATM   16  C   UNL     1     -45.227  61.533 -46.751  1.00  0.00     0.026 A 
HETATM   17  C   UNL     1     -45.097  62.868 -46.396  1.00  0.00     0.034 A 
HETATM   18 CL   UNL     1     -45.206  63.334 -44.747  1.00  0.00    -0.084 Cl
HETATM   19  C   UNL     1     -44.894  63.824 -47.380  1.00  0.00     0.026 A 
HETATM   20  C   UNL     1     -44.815  63.435 -48.724  1.00  0.00     0.031 A 
ENDBRANCH  11  14
ENDBRANCH   6   7
ENDBRANCH   5   6
ENDBRANCH   2   5
BRANCH   1  21
HETATM   21  C   UNL     1     -41.036  54.707 -52.693  1.00  0.00     0.076 A 
HETATM   22  C   UNL     1     -41.002  55.087 -54.048  1.00  0.00     0.085 A 
HETATM   23  C   UNL     1     -40.468  54.200 -54.980  1.00  0.00     0.039 A 
HETATM   24  C   UNL     1     -40.001  52.947 -54.572  1.00  0.00     0.015 A 
HETATM   25  C   UNL     1     -40.062  52.547 -53.229  1.00  0.00    -0.025 A 
HETATM   26  C   UNL     1     -40.594  53.426 -52.257  1.00  0.00    -0.007 A 
HETATM   27  C   UNL     1     -39.602  51.276 -52.850  1.00  0.00     0.012 A 
HETATM   28  C   UNL     1     -40.667  52.960 -50.920  1.00  0.00     0.013 A 
HETATM   29  C   UNL     1     -40.208  51.692 -50.559  1.00  0.00     0.001 A 
HETATM   30  C   UNL     1     -39.670  50.851 -51.525  1.00  0.00     0.001 A 
BRANCH  22  31
HETATM   31  O   UNL     1     -41.451  56.345 -54.364  1.00  0.00    -0.350 OA
BRANCH  31  32
HETATM   32  C   UNL     1     -42.205  56.453 -55.575  1.00  0.00     0.171 C 
HETATM   33  C   UNL     1     -43.677  56.387 -55.214  1.00  0.00     0.034 C 
ENDBRANCH  31  32
ENDBRANCH  22  31
ENDBRANCH   1  21
TORSDOF 7
ENDMDL
MODEL 6
REMARK VINA RESULT:      -7.9      3.434      4.831
REMARK  7 active torsions:
REMARK  status: ('A' for Active; 'I' for Inactive)
REMARK    1  A    between atoms: C_2  and  O_3 
REMARK    2  A    between atoms: O_3  and  C_4 
REMARK    3  A    between atoms: C_5  and  C_6 
REMARK       I    between atoms: C_6  and  N_7 
REMARK    4  A    between atoms: N_7  and  C_8 
REMARK    5  A    between atoms: C_8  and  C_9 
REMARK    6  A    between atoms: C_9  and  N_10 
REMARK    7  A    between atoms: N_14  and  C_15 
ROOT
HETATM    1  C   UNL     1     -40.993  54.792 -51.289  1.00  0.00     0.255 C 
HETATM    2  N   UNL     1     -42.246  55.346 -51.454  1.00  0.00    -0.355 N 
HETATM    3  O   UNL     1     -40.254  55.108 -50.362  1.00  0.00    -0.268 OA
HETATM    4  H   UNL     1     -42.771  55.058 -52.278  1.00  0.00     0.162 HD
ENDROOT
BRANCH   2   5
HETATM    5  C   UNL     1     -42.687  56.543 -50.750  1.00  0.00     0.150 C 
BRANCH   5   6
HETATM    6  C   UNL     1     -42.125  57.876 -51.289  1.00  0.00     0.254 C 
BRANCH   6   7
HETATM    7  N   UNL     1     -43.192  58.898 -51.586  1.00  0.00    -0.067 N 
HETATM    8  H   UNL     1     -43.267  58.954 -52.624  1.00  0.00     0.280 HD
HETATM    9  C   UNL     1     -44.600  58.502 -51.143  1.00  0.00     0.254 C 
HETATM   10  C   UNL     1     -45.618  59.574 -51.593  1.00  0.00     0.150 C 
HETATM   11  N   UNL     1     -45.241  60.902 -51.069  1.00  0.00    -0.378 N 
HETATM   12  C   UNL     1     -43.893  61.329 -51.508  1.00  0.00     0.150 C 
HETATM   13  C   UNL     1     -42.827  60.291 -51.089  1.00  0.00     0.254 C 
BRANCH  11  14
HETATM   14  C   UNL     1     -45.744  61.368 -49.856  1.00  0.00     0.030 A 
HETATM   15  C   UNL     1     -46.660  62.431 -49.764  1.00  0.00     0.031 A 
HETATM   16  C   UNL     1     -47.129  62.908 -48.530  1.00  0.00     0.026 A 
HETATM   17  C   UNL     1     -46.681  62.332 -47.350  1.00  0.00     0.034 A 
HETATM   18 CL   UNL     1     -47.248  62.918 -45.839  1.00  0.00    -0.084 Cl
HETATM   19  C   UNL     1     -45.763  61.294 -47.397  1.00  0.00     0.026 A 
HETATM   20  C   UNL     1     -45.299  60.829 -48.634  1.00  0.00     0.031 A 
ENDBRANCH  11  14
ENDBRANCH   6   7
ENDBRANCH   5   6
ENDBRANCH   2   5
BRANCH   1  21
HETATM   21  C   UNL     1     -40.605  53.769 -52.283  1.00  0.00     0.076 A 
HETATM   22  C   UNL     1     -40.564  54.151 -53.637  1.00  0.00     0.085 A 
HETATM   23  C   UNL     1     -40.162  53.213 -54.585  1.00  0.00     0.039 A 
HETATM   24  C   UNL     1     -39.833  51.911 -54.193  1.00  0.00     0.015 A 
HETATM   25  C   UNL     1     -39.904  51.514 -52.850  1.00  0.00    -0.025 A 
HETATM   26  C   UNL     1     -40.303  52.444 -51.862  1.00  0.00    -0.007 A 
HETATM   27  C   UNL     1     -39.584  50.196 -52.487  1.00  0.00     0.012 A 
HETATM   28  C   UNL     1     -40.393  51.982 -50.524  1.00  0.00     0.013 A 
HETATM   29  C   UNL     1     -40.075  50.667 -50.179  1.00  0.00     0.001 A 
HETATM   30  C   UNL     1     -39.665  49.775 -51.162  1.00  0.00     0.001 A 
BRANCH  22  31
HETATM   31  O   UNL     1     -40.873  55.453 -53.938  1.00  0.00    -0.350 OA
BRANCH  31  32
HETATM   32  C   UNL     1     -41.567  55.663 -55.171  1.00  0.00     0.171 C 
HETATM   33  C   UNL     1     -43.026  55.312 -54.948  1.00  0.00     0.034 C 
ENDBRANCH  31  32
ENDBRANCH  22  31
ENDBRANCH   1  21
TORSDOF 7
ENDMDL
MODEL 7
REMARK VINA RESULT:      -7.8      2.762      4.720
REMARK  7 active torsions:
REMARK  status: ('A' for Active; 'I' for Inactive)
REMARK    1  A    between atoms: C_2  and  O_3 
REMARK    2  A    between atoms: O_3  and  C_4 
REMARK    3  A    between atoms: C_5  and  C_6 
REMARK       I    between atoms: C_6  and  N_7 
REMARK    4  A    between atoms: N_7  and  C_8 
REMARK    5  A    between atoms: C_8  and  C_9 
REMARK    6  A    between atoms: C_9  and  N_10 
REMARK    7  A    between atoms: N_14  and  C_15 
ROOT
HETATM    1  C   UNL     1     -40.779  54.578 -51.271  1.00  0.00     0.255 C 
HETATM    2  N   UNL     1     -41.987  55.234 -51.391  1.00  0.00    -0.355 N 
HETATM    3  O   UNL     1     -40.002  54.800 -50.347  1.00  0.00    -0.268 OA
HETATM    4  H   UNL     1     -42.546  55.020 -52.215  1.00  0.00     0.162 HD
ENDROOT
BRANCH   2   5
HETATM    5  C   UNL     1     -42.322  56.433 -50.634  1.00  0.00     0.150 C 
BRANCH   5   6
HETATM    6  C   UNL     1     -41.350  57.620 -50.806  1.00  0.00     0.254 C 
BRANCH   6   7
HETATM    7  N   UNL     1     -41.965  58.799 -51.515  1.00  0.00    -0.067 N 
HETATM    8  H   UNL     1     -41.600  59.652 -51.041  1.00  0.00     0.280 HD
HETATM    9  C   UNL     1     -41.524  58.974 -52.967  1.00  0.00     0.254 C 
HETATM   10  C   UNL     1     -42.133  60.267 -53.554  1.00  0.00     0.150 C 
HETATM   11  N   UNL     1     -43.605  60.249 -53.436  1.00  0.00    -0.378 N 
HETATM   12  C   UNL     1     -44.065  60.112 -52.035  1.00  0.00     0.150 C 
HETATM   13  C   UNL     1     -43.483  58.834 -51.390  1.00  0.00     0.254 C 
BRANCH  11  14
HETATM   14  C   UNL     1     -44.406  59.764 -54.468  1.00  0.00     0.030 A 
HETATM   15  C   UNL     1     -44.641  58.393 -54.676  1.00  0.00     0.031 A 
HETATM   16  C   UNL     1     -45.424  57.923 -55.741  1.00  0.00     0.026 A 
HETATM   17  C   UNL     1     -45.988  58.822 -56.635  1.00  0.00     0.034 A 
HETATM   18 CL   UNL     1     -46.942  58.249 -57.944  1.00  0.00    -0.084 Cl
HETATM   19  C   UNL     1     -45.765  60.181 -56.476  1.00  0.00     0.026 A 
HETATM   20  C   UNL     1     -44.978  60.638 -55.410  1.00  0.00     0.031 A 
ENDBRANCH  11  14
ENDBRANCH   6   7
ENDBRANCH   5   6
ENDBRANCH   2   5
BRANCH   1  21
HETATM   21  C   UNL     1     -40.488  53.568 -52.310  1.00  0.00     0.076 A 
HETATM   22  C   UNL     1     -40.500  53.985 -53.653  1.00  0.00     0.085 A 
HETATM   23  C   UNL     1     -40.189  53.058 -54.646  1.00  0.00     0.039 A 
HETATM   24  C   UNL     1     -39.899  51.733 -54.305  1.00  0.00     0.015 A 
HETATM   25  C   UNL     1     -39.918  51.302 -52.971  1.00  0.00    -0.025 A 
HETATM   26  C   UNL     1     -40.224  52.220 -51.940  1.00  0.00    -0.007 A 
HETATM   27  C   UNL     1     -39.639  49.961 -52.660  1.00  0.00     0.012 A 
HETATM   28  C   UNL     1     -40.266  51.725 -50.611  1.00  0.00     0.013 A 
HETATM   29  C   UNL     1     -39.989  50.388 -50.317  1.00  0.00     0.001 A 
HETATM   30  C   UNL     1     -39.670  49.508 -51.343  1.00  0.00     0.001 A 
BRANCH  22  31
HETATM   31  O   UNL     1     -40.765  55.308 -53.904  1.00  0.00    -0.350 OA
BRANCH  31  32
HETATM   32  C   UNL     1     -41.533  55.580 -55.081  1.00  0.00     0.171 C 
HETATM   33  C   UNL     1     -42.956  55.121 -54.823  1.00  0.00     0.034 C 
ENDBRANCH  31  32
ENDBRANCH  22  31
ENDBRANCH   1  21
TORSDOF 7
ENDMDL
MODEL 8
REMARK VINA RESULT:      -7.8      4.491      6.264
REMARK  7 active torsions:
REMARK  status: ('A' for Active; 'I' for Inactive)
REMARK    1  A    between atoms: C_2  and  O_3 
REMARK    2  A    between atoms: O_3  and  C_4 
REMARK    3  A    between atoms: C_5  and  C_6 
REMARK       I    between atoms: C_6  and  N_7 
REMARK    4  A    between atoms: N_7  and  C_8 
REMARK    5  A    between atoms: C_8  and  C_9 
REMARK    6  A    between atoms: C_9  and  N_10 
REMARK    7  A    between atoms: N_14  and  C_15 
ROOT
HETATM    1  C   UNL     1     -41.488  55.825 -53.558  1.00  0.00     0.255 C 
HETATM    2  N   UNL     1     -42.772  55.612 -54.016  1.00  0.00    -0.355 N 
HETATM    3  O   UNL     1     -40.726  56.624 -54.092  1.00  0.00    -0.268 OA
HETATM    4  H   UNL     1     -43.317  54.895 -53.539  1.00  0.00     0.162 HD
ENDROOT
BRANCH   2   5
HETATM    5  C   UNL     1     -43.240  56.069 -55.318  1.00  0.00     0.150 C 
BRANCH   5   6
HETATM    6  C   UNL     1     -42.732  55.257 -56.529  1.00  0.00     0.254 C 
BRANCH   6   7
HETATM    7  N   UNL     1     -42.717  56.045 -57.813  1.00  0.00    -0.067 N 
HETATM    8  H   UNL     1     -41.787  55.876 -58.253  1.00  0.00     0.280 HD
HETATM    9  C   UNL     1     -43.709  55.564 -58.871  1.00  0.00     0.254 C 
HETATM   10  C   UNL     1     -43.528  56.375 -60.174  1.00  0.00     0.150 C 
HETATM   11  N   UNL     1     -43.678  57.820 -59.912  1.00  0.00    -0.378 N 
HETATM   12  C   UNL     1     -42.708  58.324 -58.914  1.00  0.00     0.150 C 
HETATM   13  C   UNL     1     -42.837  57.546 -57.584  1.00  0.00     0.254 C 
BRANCH  11  14
HETATM   14  C   UNL     1     -44.911  58.455 -60.046  1.00  0.00     0.030 A 
HETATM   15  C   UNL     1     -46.082  57.779 -60.434  1.00  0.00     0.031 A 
HETATM   16  C   UNL     1     -47.308  58.444 -60.594  1.00  0.00     0.026 A 
HETATM   17  C   UNL     1     -47.389  59.811 -60.377  1.00  0.00     0.034 A 
HETATM   18 CL   UNL     1     -48.886  60.627 -60.579  1.00  0.00    -0.084 Cl
HETATM   19  C   UNL     1     -46.253  60.517 -60.012  1.00  0.00     0.026 A 
HETATM   20  C   UNL     1     -45.033  59.844 -59.858  1.00  0.00     0.031 A 
ENDBRANCH  11  14
ENDBRANCH   6   7
ENDBRANCH   5   6
ENDBRANCH   2   5
BRANCH   1  21
HETATM   21  C   UNL     1     -41.094  55.052 -52.362  1.00  0.00     0.076 A 
HETATM   22  C   UNL     1     -41.225  55.672 -51.106  1.00  0.00     0.085 A 
HETATM   23  C   UNL     1     -40.897  54.947 -49.962  1.00  0.00     0.039 A 
HETATM   24  C   UNL     1     -40.420  53.637 -50.072  1.00  0.00     0.015 A 
HETATM   25  C   UNL     1     -40.255  53.024 -51.322  1.00  0.00    -0.025 A 
HETATM   26  C   UNL     1     -40.584  53.731 -52.502  1.00  0.00    -0.007 A 
HETATM   27  C   UNL     1     -39.759  51.713 -51.404  1.00  0.00     0.012 A 
HETATM   28  C   UNL     1     -40.365  53.078 -53.742  1.00  0.00     0.013 A 
HETATM   29  C   UNL     1     -39.867  51.775 -53.807  1.00  0.00     0.001 A 
HETATM   30  C   UNL     1     -39.569  51.090 -52.636  1.00  0.00     0.001 A 
BRANCH  22  31
HETATM   31  O   UNL     1     -41.727  56.949 -51.079  1.00  0.00    -0.350 OA
BRANCH  31  32
HETATM   32  C   UNL     1     -40.814  57.972 -50.671  1.00  0.00     0.171 C 
HETATM   33  C   UNL     1     -41.481  59.314 -50.909  1.00  0.00     0.034 C 
ENDBRANCH  31  32
ENDBRANCH  22  31
ENDBRANCH   1  21
TORSDOF 7
ENDMDL
MODEL 9
REMARK VINA RESULT:      -7.7      4.876      9.697
REMARK  7 active torsions:
REMARK  status: ('A' for Active; 'I' for Inactive)
REMARK    1  A    between atoms: C_2  and  O_3 
REMARK    2  A    between atoms: O_3  and  C_4 
REMARK    3  A    between atoms: C_5  and  C_6 
REMARK       I    between atoms: C_6  and  N_7 
REMARK    4  A    between atoms: N_7  and  C_8 
REMARK    5  A    between atoms: C_8  and  C_9 
REMARK    6  A    between atoms: C_9  and  N_10 
REMARK    7  A    between atoms: N_14  and  C_15 
ROOT
HETATM    1  C   UNL     1     -45.002  60.774 -49.731  1.00  0.00     0.255 C 
HETATM    2  N   UNL     1     -43.795  60.444 -50.310  1.00  0.00    -0.355 N 
HETATM    3  O   UNL     1     -45.969  60.019 -49.756  1.00  0.00    -0.268 OA
HETATM    4  H   UNL     1     -43.062  61.152 -50.282  1.00  0.00     0.162 HD
ENDROOT
BRANCH   2   5
HETATM    5  C   UNL     1     -43.634  59.335 -51.243  1.00  0.00     0.150 C 
BRANCH   5   6
HETATM    6  C   UNL     1     -42.263  58.627 -51.200  1.00  0.00     0.254 C 
BRANCH   6   7
HETATM    7  N   UNL     1     -42.322  57.245 -50.601  1.00  0.00    -0.067 N 
HETATM    8  H   UNL     1     -42.828  57.337 -49.695  1.00  0.00     0.280 HD
HETATM    9  C   UNL     1     -43.166  56.242 -51.387  1.00  0.00     0.254 C 
HETATM   10  C   UNL     1     -43.239  54.900 -50.625  1.00  0.00     0.150 C 
HETATM   11  N   UNL     1     -41.883  54.376 -50.364  1.00  0.00    -0.378 N 
HETATM   12  C   UNL     1     -41.050  55.312 -49.575  1.00  0.00     0.150 C 
HETATM   13  C   UNL     1     -40.942  56.681 -50.286  1.00  0.00     0.254 C 
BRANCH  11  14
HETATM   14  C   UNL     1     -41.267  53.494 -51.248  1.00  0.00     0.030 A 
HETATM   15  C   UNL     1     -40.314  52.542 -50.843  1.00  0.00     0.031 A 
HETATM   16  C   UNL     1     -39.681  51.684 -51.755  1.00  0.00     0.026 A 
HETATM   17  C   UNL     1     -39.982  51.766 -53.107  1.00  0.00     0.034 A 
HETATM   18 CL   UNL     1     -39.204  50.722 -54.226  1.00  0.00    -0.084 Cl
HETATM   19  C   UNL     1     -40.903  52.704 -53.550  1.00  0.00     0.026 A 
HETATM   20  C   UNL     1     -41.526  53.558 -52.630  1.00  0.00     0.031 A 
ENDBRANCH  11  14
ENDBRANCH   6   7
ENDBRANCH   5   6
ENDBRANCH   2   5
BRANCH   1  21
HETATM   21  C   UNL     1     -45.054  62.085 -49.051  1.00  0.00     0.076 A 
HETATM   22  C   UNL     1     -45.140  63.238 -49.853  1.00  0.00     0.085 A 
HETATM   23  C   UNL     1     -45.231  64.482 -49.232  1.00  0.00     0.039 A 
HETATM   24  C   UNL     1     -45.208  64.575 -47.837  1.00  0.00     0.015 A 
HETATM   25  C   UNL     1     -45.089  63.433 -47.032  1.00  0.00    -0.025 A 
HETATM   26  C   UNL     1     -45.000  62.155 -47.631  1.00  0.00    -0.007 A 
HETATM   27  C   UNL     1     -45.051  63.557 -45.633  1.00  0.00     0.012 A 
HETATM   28  C   UNL     1     -44.844  61.036 -46.774  1.00  0.00     0.013 A 
HETATM   29  C   UNL     1     -44.806  61.176 -45.385  1.00  0.00     0.001 A 
HETATM   30  C   UNL     1     -44.915  62.438 -44.815  1.00  0.00     0.001 A 
BRANCH  22  31
HETATM   31  O   UNL     1     -45.187  63.062 -51.214  1.00  0.00    -0.350 OA
BRANCH  31  32
HETATM   32  C   UNL     1     -46.276  63.697 -51.890  1.00  0.00     0.171 C 
HETATM   33  C   UNL     1     -47.535  62.907 -51.586  1.00  0.00     0.034 C 
ENDBRANCH  31  32
ENDBRANCH  22  31
ENDBRANCH   1  21
TORSDOF 7
ENDMDL
MODEL 10
REMARK VINA RESULT:      -7.5      3.596      7.814
REMARK  7 active torsions:
REMARK  status: ('A' for Active; 'I' for Inactive)
REMARK    1  A    between atoms: C_2  and  O_3 
REMARK    2  A    between atoms: O_3  and  C_4 
REMARK    3  A    between atoms: C_5  and  C_6 
REMARK       I    between atoms: C_6  and  N_7 
REMARK    4  A    between atoms: N_7  and  C_8 
REMARK    5  A    between atoms: C_8  and  C_9 
REMARK    6  A    between atoms: C_9  and  N_10 
REMARK    7  A    between atoms: N_14  and  C_15 
ROOT
HETATM    1  C   UNL     1     -42.624  59.606 -55.665  1.00  0.00     0.255 C 
HETATM    2  N   UNL     1     -41.691  59.107 -54.779  1.00  0.00    -0.355 N 
HETATM    3  O   UNL     1     -43.450  60.452 -55.339  1.00  0.00    -0.268 OA
HETATM    4  H   UNL     1     -41.075  58.373 -55.124  1.00  0.00     0.162 HD
ENDROOT
BRANCH   2   5
HETATM    5  C   UNL     1     -41.779  59.298 -53.337  1.00  0.00     0.150 C 
BRANCH   5   6
HETATM    6  C   UNL     1     -43.030  58.694 -52.663  1.00  0.00     0.254 C 
BRANCH   6   7
HETATM    7  N   UNL     1     -42.716  57.552 -51.731  1.00  0.00    -0.067 N 
HETATM    8  H   UNL     1     -43.049  57.840 -50.787  1.00  0.00     0.280 HD
HETATM    9  C   UNL     1     -43.490  56.265 -52.012  1.00  0.00     0.254 C 
HETATM   10  C   UNL     1     -43.165  55.206 -50.935  1.00  0.00     0.150 C 
HETATM   11  N   UNL     1     -41.710  54.957 -50.872  1.00  0.00    -0.378 N 
HETATM   12  C   UNL     1     -40.933  56.181 -50.570  1.00  0.00     0.150 C 
HETATM   13  C   UNL     1     -41.220  57.284 -51.614  1.00  0.00     0.254 C 
BRANCH  11  14
HETATM   14  C   UNL     1     -41.119  53.941 -51.619  1.00  0.00     0.030 A 
HETATM   15  C   UNL     1     -41.368  53.752 -52.990  1.00  0.00     0.031 A 
HETATM   16  C   UNL     1     -40.787  52.701 -53.716  1.00  0.00     0.026 A 
HETATM   17  C   UNL     1     -39.944  51.802 -53.080  1.00  0.00     0.034 A 
HETATM   18 CL   UNL     1     -39.237  50.512 -53.965  1.00  0.00    -0.084 Cl
HETATM   19  C   UNL     1     -39.687  51.942 -51.724  1.00  0.00     0.026 A 
HETATM   20  C   UNL     1     -40.275  52.993 -51.008  1.00  0.00     0.031 A 
ENDBRANCH  11  14
ENDBRANCH   6   7
ENDBRANCH   5   6
ENDBRANCH   2   5
BRANCH   1  21
HETATM   21  C   UNL     1     -42.548  59.080 -57.044  1.00  0.00     0.076 A 
HETATM   22  C   UNL     1     -42.848  57.720 -57.245  1.00  0.00     0.085 A 
HETATM   23  C   UNL     1     -42.822  57.213 -58.543  1.00  0.00     0.039 A 
HETATM   24  C   UNL     1     -42.477  58.041 -59.615  1.00  0.00     0.015 A 
HETATM   25  C   UNL     1     -42.145  59.389 -59.418  1.00  0.00    -0.025 A 
HETATM   26  C   UNL     1     -42.166  59.936 -58.114  1.00  0.00    -0.007 A 
HETATM   27  C   UNL     1     -41.786  60.194 -60.512  1.00  0.00     0.012 A 
HETATM   28  C   UNL     1     -41.787  61.295 -57.965  1.00  0.00     0.013 A 
HETATM   29  C   UNL     1     -41.429  62.081 -59.062  1.00  0.00     0.001 A 
HETATM   30  C   UNL     1     -41.434  61.531 -60.337  1.00  0.00     0.001 A 
BRANCH  22  31
HETATM   31  O   UNL     1     -43.206  56.980 -56.146  1.00  0.00    -0.350 OA
BRANCH  31  32
HETATM   32  C   UNL     1     -42.332  55.898 -55.809  1.00  0.00     0.171 C 
HETATM   33  C   UNL     1     -43.069  54.602 -56.089  1.00  0.00     0.034 C 
ENDBRANCH  31  32
ENDBRANCH  22  31
ENDBRANCH   1  21
TORSDOF 7
ENDMDL
