MODEL 1
REMARK VINA RESULT:      -7.9      0.000      0.000
REMARK  5 active torsions:
REMARK  status: ('A' for Active; 'I' for Inactive)
REMARK    1  A    between atoms: C_8  and  N_9 
REMARK       I    between atoms: N_9  and  C_10 
REMARK       I    between atoms: C_10  and  N_11 
REMARK    2  A    between atoms: N_11  and  C_12 
REMARK    3  A    between atoms: C_13  and  O_14 
REMARK    4  A    between atoms: O_14  and  C_15 
REMARK    5  A    between atoms: C_15  and  C_16 
ROOT
HETATM    1  N   UNL     1     -41.489  55.933 -52.906  1.00  0.00    -0.305 N 
HETATM    2  C   UNL     1     -41.629  54.564 -52.766  1.00  0.00     0.325 C 
HETATM    3  N   UNL     1     -40.496  53.918 -53.232  1.00  0.00    -0.306 N 
HETATM    4  O   UNL     1     -42.605  53.997 -52.295  1.00  0.00    -0.247 OA
HETATM    5  H   UNL     1     -40.544  56.280 -52.954  1.00  0.00     0.171 HD
HETATM    6  H   UNL     1     -39.886  54.454 -53.837  1.00  0.00     0.171 HD
ENDROOT
BRANCH   3   7
HETATM    7  C   UNL     1     -40.194  52.541 -53.153  1.00  0.00     0.072 A 
HETATM    8  C   UNL     1     -39.689  52.062 -51.928  1.00  0.00     0.096 A 
HETATM    9  C   UNL     1     -39.406  50.707 -51.744  1.00  0.00     0.042 A 
HETATM   10  C   UNL     1     -39.596  49.820 -52.801  1.00  0.00     0.045 A 
HETATM   11  C   UNL     1     -40.077  50.296 -54.017  1.00  0.00     0.118 A 
HETATM   12  F   UNL     1     -40.265  49.434 -55.025  1.00  0.00    -0.206 F 
HETATM   13  C   UNL     1     -40.382  51.643 -54.202  1.00  0.00     0.074 A 
BRANCH   8  14
HETATM   14  O   UNL     1     -39.528  52.964 -50.903  1.00  0.00    -0.340 OA
BRANCH  14  15
HETATM   15  C   UNL     1     -40.449  52.716 -49.824  1.00  0.00     0.293 C 
BRANCH  15  16
HETATM   16  C   UNL     1     -40.730  54.010 -49.078  1.00  0.00     0.408 C 
HETATM   17  F   UNL     1     -42.020  54.388 -49.223  1.00  0.00    -0.169 F 
HETATM   18  F   UNL     1     -40.482  53.886 -47.755  1.00  0.00    -0.169 F 
HETATM   19  F   UNL     1     -39.954  55.013 -49.547  1.00  0.00    -0.169 F 
ENDBRANCH  15  16
ENDBRANCH  14  15
ENDBRANCH   8  14
ENDBRANCH   3   7
BRANCH   1  20
HETATM   20  C   UNL     1     -42.473  56.886 -52.699  1.00  0.00     0.086 A 
HETATM   21  C   UNL     1     -42.371  57.837 -51.700  1.00  0.00     0.052 A 
HETATM   22  C   UNL     1     -41.344  58.098 -50.664  1.00  0.00     0.072 C 
HETATM   23  N   UNL     1     -43.500  58.599 -51.795  1.00  0.00    -0.280 N 
HETATM   24  H   UNL     1     -43.777  59.385 -51.218  1.00  0.00     0.189 HD
HETATM   25  N   UNL     1     -44.312  58.239 -52.792  1.00  0.00    -0.177 NA
HETATM   26  C   UNL     1     -43.696  57.192 -53.363  1.00  0.00     0.079 A 
HETATM   27  C   UNL     1     -44.321  56.578 -54.561  1.00  0.00     0.075 C 
ENDBRANCH   1  20
TORSDOF 5
ENDMDL
MODEL 2
REMARK VINA RESULT:      -7.8      1.028      1.691
REMARK  5 active torsions:
REMARK  status: ('A' for Active; 'I' for Inactive)
REMARK    1  A    between atoms: C_8  and  N_9 
REMARK       I    between atoms: N_9  and  C_10 
REMARK       I    between atoms: C_10  and  N_11 
REMARK    2  A    between atoms: N_11  and  C_12 
REMARK    3  A    between atoms: C_13  and  O_14 
REMARK    4  A    between atoms: O_14  and  C_15 
REMARK    5  A    between atoms: C_15  and  C_16 
ROOT
HETATM    1  N   UNL     1     -41.775  56.013 -53.453  1.00  0.00    -0.305 N 
HETATM    2  C   UNL     1     -41.863  54.639 -53.324  1.00  0.00     0.325 C 
HETATM    3  N   UNL     1     -40.608  54.066 -53.447  1.00  0.00    -0.306 N 
HETATM    4  O   UNL     1     -42.894  54.011 -53.126  1.00  0.00    -0.247 OA
HETATM    5  H   UNL     1     -40.877  56.421 -53.247  1.00  0.00     0.171 HD
HETATM    6  H   UNL     1     -39.890  54.637 -53.875  1.00  0.00     0.171 HD
ENDROOT
BRANCH   3   7
HETATM    7  C   UNL     1     -40.255  52.713 -53.256  1.00  0.00     0.072 A 
HETATM    8  C   UNL     1     -39.776  52.345 -51.983  1.00  0.00     0.096 A 
HETATM    9  C   UNL     1     -39.447  51.020 -51.690  1.00  0.00     0.042 A 
HETATM   10  C   UNL     1     -39.563  50.052 -52.684  1.00  0.00     0.045 A 
HETATM   11  C   UNL     1     -40.017  50.417 -53.948  1.00  0.00     0.118 A 
HETATM   12  F   UNL     1     -40.134  49.478 -54.896  1.00  0.00    -0.206 F 
HETATM   13  C   UNL     1     -40.368  51.734 -54.242  1.00  0.00     0.074 A 
BRANCH   8  14
HETATM   14  O   UNL     1     -39.690  53.325 -51.023  1.00  0.00    -0.340 OA
BRANCH  14  15
HETATM   15  C   UNL     1     -40.635  53.114 -49.957  1.00  0.00     0.293 C 
BRANCH  15  16
HETATM   16  C   UNL     1     -41.249  54.441 -49.542  1.00  0.00     0.408 C 
HETATM   17  F   UNL     1     -42.591  54.433 -49.709  1.00  0.00    -0.169 F 
HETATM   18  F   UNL     1     -40.996  54.722 -48.244  1.00  0.00    -0.169 F 
HETATM   19  F   UNL     1     -40.749  55.454 -50.284  1.00  0.00    -0.169 F 
ENDBRANCH  15  16
ENDBRANCH  14  15
ENDBRANCH   8  14
ENDBRANCH   3   7
BRANCH   1  20
HETATM   20  C   UNL     1     -42.835  56.900 -53.545  1.00  0.00     0.086 A 
HETATM   21  C   UNL     1     -43.171  57.518 -54.735  1.00  0.00     0.052 A 
HETATM   22  C   UNL     1     -42.583  57.463 -56.095  1.00  0.00     0.072 C 
HETATM   23  N   UNL     1     -44.250  58.306 -54.454  1.00  0.00    -0.280 N 
HETATM   24  H   UNL     1     -44.763  58.916 -55.082  1.00  0.00     0.189 HD
HETATM   25  N   UNL     1     -44.662  58.226 -53.186  1.00  0.00    -0.177 NA
HETATM   26  C   UNL     1     -43.808  57.363 -52.612  1.00  0.00     0.079 A 
HETATM   27  C   UNL     1     -44.025  57.005 -51.188  1.00  0.00     0.075 C 
ENDBRANCH   1  20
TORSDOF 5
ENDMDL
MODEL 3
REMARK VINA RESULT:      -7.8      2.964      3.898
REMARK  5 active torsions:
REMARK  status: ('A' for Active; 'I' for Inactive)
REMARK    1  A    between atoms: C_8  and  N_9 
REMARK       I    between atoms: N_9  and  C_10 
REMARK       I    between atoms: C_10  and  N_11 
REMARK    2  A    between atoms: N_11  and  C_12 
REMARK    3  A    between atoms: C_13  and  O_14 
REMARK    4  A    between atoms: O_14  and  C_15 
REMARK    5  A    between atoms: C_15  and  C_16 
ROOT
HETATM    1  N   UNL     1     -42.136  56.070 -56.362  1.00  0.00    -0.305 N 
HETATM    2  C   UNL     1     -42.116  54.888 -55.644  1.00  0.00     0.325 C 
HETATM    3  N   UNL     1     -40.846  54.656 -55.142  1.00  0.00    -0.306 N 
HETATM    4  O   UNL     1     -43.075  54.150 -55.469  1.00  0.00    -0.247 OA
HETATM    5  H   UNL     1     -41.420  56.741 -56.132  1.00  0.00     0.171 HD
HETATM    6  H   UNL     1     -40.088  55.173 -55.570  1.00  0.00     0.171 HD
ENDROOT
BRANCH   3   7
HETATM    7  C   UNL     1     -40.441  53.630 -54.261  1.00  0.00     0.072 A 
HETATM    8  C   UNL     1     -40.536  53.892 -52.880  1.00  0.00     0.096 A 
HETATM    9  C   UNL     1     -40.202  52.919 -51.935  1.00  0.00     0.042 A 
HETATM   10  C   UNL     1     -39.736  51.680 -52.367  1.00  0.00     0.045 A 
HETATM   11  C   UNL     1     -39.624  51.427 -53.731  1.00  0.00     0.118 A 
HETATM   12  F   UNL     1     -39.183  50.228 -54.136  1.00  0.00    -0.206 F 
HETATM   13  C   UNL     1     -39.976  52.385 -54.679  1.00  0.00     0.074 A 
BRANCH   8  14
HETATM   14  O   UNL     1     -41.014  55.122 -52.491  1.00  0.00    -0.340 OA
BRANCH  14  15
HETATM   15  C   UNL     1     -41.773  55.038 -51.270  1.00  0.00     0.293 C 
BRANCH  15  16
HETATM   16  C   UNL     1     -43.258  54.973 -51.589  1.00  0.00     0.408 C 
HETATM   17  F   UNL     1     -43.995  55.533 -50.604  1.00  0.00    -0.169 F 
HETATM   18  F   UNL     1     -43.548  55.617 -52.740  1.00  0.00    -0.169 F 
HETATM   19  F   UNL     1     -43.663  53.690 -51.725  1.00  0.00    -0.169 F 
ENDBRANCH  15  16
ENDBRANCH  14  15
ENDBRANCH   8  14
ENDBRANCH   3   7
BRANCH   1  20
HETATM   20  C   UNL     1     -43.181  56.544 -57.138  1.00  0.00     0.086 A 
HETATM   21  C   UNL     1     -44.207  57.300 -56.601  1.00  0.00     0.052 A 
HETATM   22  C   UNL     1     -44.496  57.764 -55.223  1.00  0.00     0.072 C 
HETATM   23  N   UNL     1     -45.040  57.591 -57.643  1.00  0.00    -0.280 N 
HETATM   24  H   UNL     1     -45.905  58.119 -57.626  1.00  0.00     0.189 HD
HETATM   25  N   UNL     1     -44.624  57.111 -58.817  1.00  0.00    -0.177 NA
HETATM   26  C   UNL     1     -43.480  56.469 -58.529  1.00  0.00     0.079 A 
HETATM   27  C   UNL     1     -42.719  55.856 -59.647  1.00  0.00     0.075 C 
ENDBRANCH   1  20
TORSDOF 5
ENDMDL
MODEL 4
REMARK VINA RESULT:      -7.5      3.128      4.276
REMARK  5 active torsions:
REMARK  status: ('A' for Active; 'I' for Inactive)
REMARK    1  A    between atoms: C_8  and  N_9 
REMARK       I    between atoms: N_9  and  C_10 
REMARK       I    between atoms: C_10  and  N_11 
REMARK    2  A    between atoms: N_11  and  C_12 
REMARK    3  A    between atoms: C_13  and  O_14 
REMARK    4  A    between atoms: O_14  and  C_15 
REMARK    5  A    between atoms: C_15  and  C_16 
ROOT
HETATM    1  N   UNL     1     -42.241  56.425 -56.534  1.00  0.00    -0.305 N 
HETATM    2  C   UNL     1     -42.246  55.269 -55.776  1.00  0.00     0.325 C 
HETATM    3  N   UNL     1     -40.968  54.992 -55.319  1.00  0.00    -0.306 N 
HETATM    4  O   UNL     1     -43.231  54.584 -55.535  1.00  0.00    -0.247 OA
HETATM    5  H   UNL     1     -41.485  57.068 -56.357  1.00  0.00     0.171 HD
HETATM    6  H   UNL     1     -40.206  55.456 -55.796  1.00  0.00     0.171 HD
ENDROOT
BRANCH   3   7
HETATM    7  C   UNL     1     -40.575  53.977 -54.419  1.00  0.00     0.072 A 
HETATM    8  C   UNL     1     -40.628  54.279 -53.044  1.00  0.00     0.096 A 
HETATM    9  C   UNL     1     -40.302  53.321 -52.081  1.00  0.00     0.042 A 
HETATM   10  C   UNL     1     -39.886  52.057 -52.490  1.00  0.00     0.045 A 
HETATM   11  C   UNL     1     -39.814  51.764 -53.848  1.00  0.00     0.118 A 
HETATM   12  F   UNL     1     -39.421  50.542 -54.231  1.00  0.00    -0.206 F 
HETATM   13  C   UNL     1     -40.159  52.707 -54.814  1.00  0.00     0.074 A 
BRANCH   8  14
HETATM   14  O   UNL     1     -41.058  55.533 -52.679  1.00  0.00    -0.340 OA
BRANCH  14  15
HETATM   15  C   UNL     1     -41.848  55.496 -51.475  1.00  0.00     0.293 C 
BRANCH  15  16
HETATM   16  C   UNL     1     -43.321  55.375 -51.827  1.00  0.00     0.408 C 
HETATM   17  F   UNL     1     -43.637  56.157 -52.884  1.00  0.00    -0.169 F 
HETATM   18  F   UNL     1     -43.656  54.104 -52.139  1.00  0.00    -0.169 F 
HETATM   19  F   UNL     1     -44.096  55.759 -50.788  1.00  0.00    -0.169 F 
ENDBRANCH  15  16
ENDBRANCH  14  15
ENDBRANCH   8  14
ENDBRANCH   3   7
BRANCH   1  20
HETATM   20  C   UNL     1     -43.295  56.923 -57.282  1.00  0.00     0.086 A 
HETATM   21  C   UNL     1     -43.390  56.710 -58.645  1.00  0.00     0.052 A 
HETATM   22  C   UNL     1     -42.517  56.006 -59.614  1.00  0.00     0.072 C 
HETATM   23  N   UNL     1     -44.541  57.331 -59.039  1.00  0.00    -0.280 N 
HETATM   24  H   UNL     1     -44.931  57.396 -59.973  1.00  0.00     0.189 HD
HETATM   25  N   UNL     1     -45.216  57.903 -58.039  1.00  0.00    -0.177 NA
HETATM   26  C   UNL     1     -44.470  57.660 -56.951  1.00  0.00     0.079 A 
HETATM   27  C   UNL     1     -44.976  58.124 -55.635  1.00  0.00     0.075 C 
ENDBRANCH   1  20
TORSDOF 5
ENDMDL
MODEL 5
REMARK VINA RESULT:      -7.4      3.958      6.169
REMARK  5 active torsions:
REMARK  status: ('A' for Active; 'I' for Inactive)
REMARK    1  A    between atoms: C_8  and  N_9 
REMARK       I    between atoms: N_9  and  C_10 
REMARK       I    between atoms: C_10  and  N_11 
REMARK    2  A    between atoms: N_11  and  C_12 
REMARK    3  A    between atoms: C_13  and  O_14 
REMARK    4  A    between atoms: O_14  and  C_15 
REMARK    5  A    between atoms: C_15  and  C_16 
ROOT
HETATM    1  N   UNL     1     -42.376  55.819 -57.980  1.00  0.00    -0.305 N 
HETATM    2  C   UNL     1     -42.653  55.930 -56.630  1.00  0.00     0.325 C 
HETATM    3  N   UNL     1     -41.671  55.297 -55.887  1.00  0.00    -0.306 N 
HETATM    4  O   UNL     1     -43.620  56.505 -56.151  1.00  0.00    -0.247 OA
HETATM    5  H   UNL     1     -41.411  55.659 -58.223  1.00  0.00     0.171 HD
HETATM    6  H   UNL     1     -41.085  54.635 -56.381  1.00  0.00     0.171 HD
ENDROOT
BRANCH   3   7
HETATM    7  C   UNL     1     -41.521  55.289 -54.483  1.00  0.00     0.072 A 
HETATM    8  C   UNL     1     -41.300  54.042 -53.866  1.00  0.00     0.096 A 
HETATM    9  C   UNL     1     -41.094  53.945 -52.488  1.00  0.00     0.042 A 
HETATM   10  C   UNL     1     -41.142  55.097 -51.708  1.00  0.00     0.045 A 
HETATM   11  C   UNL     1     -41.379  56.327 -52.314  1.00  0.00     0.118 A 
HETATM   12  F   UNL     1     -41.414  57.431 -51.556  1.00  0.00    -0.206 F 
HETATM   13  C   UNL     1     -41.563  56.435 -53.691  1.00  0.00     0.074 A 
BRANCH   8  14
HETATM   14  O   UNL     1     -41.245  52.929 -54.670  1.00  0.00    -0.340 OA
BRANCH  14  15
HETATM   15  C   UNL     1     -39.995  52.229 -54.528  1.00  0.00     0.293 C 
BRANCH  15  16
HETATM   16  C   UNL     1     -40.255  50.752 -54.278  1.00  0.00     0.408 C 
HETATM   17  F   UNL     1     -41.528  50.420 -54.593  1.00  0.00    -0.169 F 
HETATM   18  F   UNL     1     -39.431  49.970 -55.008  1.00  0.00    -0.169 F 
HETATM   19  F   UNL     1     -40.062  50.445 -52.975  1.00  0.00    -0.169 F 
ENDBRANCH  15  16
ENDBRANCH  14  15
ENDBRANCH   8  14
ENDBRANCH   3   7
BRANCH   1  20
HETATM   20  C   UNL     1     -43.209  56.186 -59.024  1.00  0.00     0.086 A 
HETATM   21  C   UNL     1     -43.153  57.444 -59.597  1.00  0.00     0.052 A 
HETATM   22  C   UNL     1     -42.326  58.640 -59.312  1.00  0.00     0.072 C 
HETATM   23  N   UNL     1     -44.098  57.445 -60.583  1.00  0.00    -0.280 N 
HETATM   24  H   UNL     1     -44.351  58.202 -61.209  1.00  0.00     0.189 HD
HETATM   25  N   UNL     1     -44.741  56.283 -60.717  1.00  0.00    -0.177 NA
HETATM   26  C   UNL     1     -44.205  55.494 -59.772  1.00  0.00     0.079 A 
HETATM   27  C   UNL     1     -44.670  54.087 -59.686  1.00  0.00     0.075 C 
ENDBRANCH   1  20
TORSDOF 5
ENDMDL
MODEL 6
REMARK VINA RESULT:      -7.2      2.095      4.611
REMARK  5 active torsions:
REMARK  status: ('A' for Active; 'I' for Inactive)
REMARK    1  A    between atoms: C_8  and  N_9 
REMARK       I    between atoms: N_9  and  C_10 
REMARK       I    between atoms: C_10  and  N_11 
REMARK    2  A    between atoms: N_11  and  C_12 
REMARK    3  A    between atoms: C_13  and  O_14 
REMARK    4  A    between atoms: O_14  and  C_15 
REMARK    5  A    between atoms: C_15  and  C_16 
ROOT
HETATM    1  N   UNL     1     -42.092  56.573 -54.865  1.00  0.00    -0.305 N 
HETATM    2  C   UNL     1     -42.327  55.757 -53.774  1.00  0.00     0.325 C 
HETATM    3  N   UNL     1     -41.130  55.278 -53.269  1.00  0.00    -0.306 N 
HETATM    4  O   UNL     1     -43.428  55.492 -53.311  1.00  0.00    -0.247 OA
HETATM    5  H   UNL     1     -41.178  56.993 -54.916  1.00  0.00     0.171 HD
HETATM    6  H   UNL     1     -40.325  55.335 -53.881  1.00  0.00     0.171 HD
ENDROOT
BRANCH   3   7
HETATM    7  C   UNL     1     -40.930  54.519 -52.095  1.00  0.00     0.072 A 
HETATM    8  C   UNL     1     -40.519  53.181 -52.255  1.00  0.00     0.096 A 
HETATM    9  C   UNL     1     -40.253  52.371 -51.148  1.00  0.00     0.042 A 
HETATM   10  C   UNL     1     -40.428  52.886 -49.867  1.00  0.00     0.045 A 
HETATM   11  C   UNL     1     -40.852  54.202 -49.708  1.00  0.00     0.118 A 
HETATM   12  F   UNL     1     -41.009  54.691 -48.471  1.00  0.00    -0.206 F 
HETATM   13  C   UNL     1     -41.099  55.023 -50.806  1.00  0.00     0.074 A 
BRANCH   8  14
HETATM   14  O   UNL     1     -40.343  52.713 -53.535  1.00  0.00    -0.340 OA
BRANCH  14  15
HETATM   15  C   UNL     1     -39.396  51.628 -53.580  1.00  0.00     0.293 C 
BRANCH  15  16
HETATM   16  C   UNL     1     -40.079  50.369 -54.089  1.00  0.00     0.408 C 
HETATM   17  F   UNL     1     -39.377  49.805 -55.098  1.00  0.00    -0.169 F 
HETATM   18  F   UNL     1     -40.211  49.445 -53.111  1.00  0.00    -0.169 F 
HETATM   19  F   UNL     1     -41.316  50.649 -54.556  1.00  0.00    -0.169 F 
ENDBRANCH  15  16
ENDBRANCH  14  15
ENDBRANCH   8  14
ENDBRANCH   3   7
BRANCH   1  20
HETATM   20  C   UNL     1     -43.046  57.099 -55.720  1.00  0.00     0.086 A 
HETATM   21  C   UNL     1     -43.765  58.238 -55.403  1.00  0.00     0.052 A 
HETATM   22  C   UNL     1     -43.767  59.124 -54.215  1.00  0.00     0.072 C 
HETATM   23  N   UNL     1     -44.595  58.461 -56.464  1.00  0.00    -0.280 N 
HETATM   24  H   UNL     1     -45.277  59.202 -56.582  1.00  0.00     0.189 HD
HETATM   25  N   UNL     1     -44.453  57.578 -57.456  1.00  0.00    -0.177 NA
HETATM   26  C   UNL     1     -43.503  56.737 -57.020  1.00  0.00     0.079 A 
HETATM   27  C   UNL     1     -43.062  55.648 -57.927  1.00  0.00     0.075 C 
ENDBRANCH   1  20
TORSDOF 5
ENDMDL
MODEL 7
REMARK VINA RESULT:      -7.2      1.794      4.611
REMARK  5 active torsions:
REMARK  status: ('A' for Active; 'I' for Inactive)
REMARK    1  A    between atoms: C_8  and  N_9 
REMARK       I    between atoms: N_9  and  C_10 
REMARK       I    between atoms: C_10  and  N_11 
REMARK    2  A    between atoms: N_11  and  C_12 
REMARK    3  A    between atoms: C_13  and  O_14 
REMARK    4  A    between atoms: O_14  and  C_15 
REMARK    5  A    between atoms: C_15  and  C_16 
ROOT
HETATM    1  N   UNL     1     -42.285  56.559 -54.097  1.00  0.00    -0.305 N 
HETATM    2  C   UNL     1     -42.425  55.579 -53.132  1.00  0.00     0.325 C 
HETATM    3  N   UNL     1     -41.185  55.232 -52.621  1.00  0.00    -0.306 N 
HETATM    4  O   UNL     1     -43.485  55.086 -52.772  1.00  0.00    -0.247 OA
HETATM    5  H   UNL     1     -41.450  57.121 -54.041  1.00  0.00     0.171 HD
HETATM    6  H   UNL     1     -40.378  55.495 -53.172  1.00  0.00     0.171 HD
ENDROOT
BRANCH   3   7
HETATM    7  C   UNL     1     -40.910  54.365 -51.540  1.00  0.00     0.072 A 
HETATM    8  C   UNL     1     -40.579  53.032 -51.852  1.00  0.00     0.096 A 
HETATM    9  C   UNL     1     -40.245  52.117 -50.851  1.00  0.00     0.042 A 
HETATM   10  C   UNL     1     -40.273  52.523 -49.519  1.00  0.00     0.045 A 
HETATM   11  C   UNL     1     -40.618  53.835 -49.209  1.00  0.00     0.118 A 
HETATM   12  F   UNL     1     -40.634  54.218 -47.925  1.00  0.00    -0.206 F 
HETATM   13  C   UNL     1     -40.931  54.759 -50.204  1.00  0.00     0.074 A 
BRANCH   8  14
HETATM   14  O   UNL     1     -40.547  52.672 -53.179  1.00  0.00    -0.340 OA
BRANCH  14  15
HETATM   15  C   UNL     1     -39.467  51.762 -53.459  1.00  0.00     0.293 C 
BRANCH  15  16
HETATM   16  C   UNL     1     -40.022  50.449 -53.986  1.00  0.00     0.408 C 
HETATM   17  F   UNL     1     -39.216  49.922 -54.936  1.00  0.00    -0.169 F 
HETATM   18  F   UNL     1     -40.153  49.533 -53.001  1.00  0.00    -0.169 F 
HETATM   19  F   UNL     1     -41.242  50.632 -54.539  1.00  0.00    -0.169 F 
ENDBRANCH  15  16
ENDBRANCH  14  15
ENDBRANCH   8  14
ENDBRANCH   3   7
BRANCH   1  20
HETATM   20  C   UNL     1     -43.279  57.038 -54.935  1.00  0.00     0.086 A 
HETATM   21  C   UNL     1     -43.460  56.542 -56.213  1.00  0.00     0.052 A 
HETATM   22  C   UNL     1     -42.746  55.508 -56.999  1.00  0.00     0.072 C 
HETATM   23  N   UNL     1     -44.517  57.233 -56.733  1.00  0.00    -0.280 N 
HETATM   24  H   UNL     1     -44.930  57.147 -57.655  1.00  0.00     0.189 HD
HETATM   25  N   UNL     1     -45.055  58.115 -55.887  1.00  0.00    -0.177 NA
HETATM   26  C   UNL     1     -44.312  58.006 -54.775  1.00  0.00     0.079 A 
HETATM   27  C   UNL     1     -44.688  58.828 -53.598  1.00  0.00     0.075 C 
ENDBRANCH   1  20
TORSDOF 5
ENDMDL
MODEL 8
REMARK VINA RESULT:      -6.9      3.898      5.098
REMARK  5 active torsions:
REMARK  status: ('A' for Active; 'I' for Inactive)
REMARK    1  A    between atoms: C_8  and  N_9 
REMARK       I    between atoms: N_9  and  C_10 
REMARK       I    between atoms: C_10  and  N_11 
REMARK    2  A    between atoms: N_11  and  C_12 
REMARK    3  A    between atoms: C_13  and  O_14 
REMARK    4  A    between atoms: O_14  and  C_15 
REMARK    5  A    between atoms: C_15  and  C_16 
ROOT
HETATM    1  N   UNL     1     -42.427  56.381 -57.276  1.00  0.00    -0.305 N 
HETATM    2  C   UNL     1     -42.486  55.400 -56.303  1.00  0.00     0.325 C 
HETATM    3  N   UNL     1     -41.227  55.177 -55.772  1.00  0.00    -0.306 N 
HETATM    4  O   UNL     1     -43.499  54.811 -55.953  1.00  0.00    -0.247 OA
HETATM    5  H   UNL     1     -41.651  57.020 -57.214  1.00  0.00     0.171 HD
HETATM    6  H   UNL     1     -40.441  55.511 -56.315  1.00  0.00     0.171 HD
ENDROOT
BRANCH   3   7
HETATM    7  C   UNL     1     -40.885  54.350 -54.680  1.00  0.00     0.072 A 
HETATM    8  C   UNL     1     -41.234  54.806 -53.393  1.00  0.00     0.096 A 
HETATM    9  C   UNL     1     -40.977  54.032 -52.258  1.00  0.00     0.042 A 
HETATM   10  C   UNL     1     -40.335  52.805 -52.401  1.00  0.00     0.045 A 
HETATM   11  C   UNL     1     -39.973  52.363 -53.669  1.00  0.00     0.118 A 
HETATM   12  F   UNL     1     -39.364  51.177 -53.796  1.00  0.00    -0.206 F 
HETATM   13  C   UNL     1     -40.246  53.119 -54.808  1.00  0.00     0.074 A 
BRANCH   8  14
HETATM   14  O   UNL     1     -41.879  56.016 -53.294  1.00  0.00    -0.340 OA
BRANCH  14  15
HETATM   15  C   UNL     1     -41.069  56.999 -52.622  1.00  0.00     0.293 C 
BRANCH  15  16
HETATM   16  C   UNL     1     -41.162  58.329 -53.353  1.00  0.00     0.408 C 
HETATM   17  F   UNL     1     -42.119  59.118 -52.814  1.00  0.00    -0.169 F 
HETATM   18  F   UNL     1     -39.993  59.006 -53.304  1.00  0.00    -0.169 F 
HETATM   19  F   UNL     1     -41.471  58.140 -54.656  1.00  0.00    -0.169 F 
ENDBRANCH  15  16
ENDBRANCH  14  15
ENDBRANCH   8  14
ENDBRANCH   3   7
BRANCH   1  20
HETATM   20  C   UNL     1     -43.450  56.754 -58.132  1.00  0.00     0.086 A 
HETATM   21  C   UNL     1     -43.913  58.056 -58.194  1.00  0.00     0.052 A 
HETATM   22  C   UNL     1     -43.541  59.289 -57.462  1.00  0.00     0.072 C 
HETATM   23  N   UNL     1     -44.903  58.054 -59.135  1.00  0.00    -0.280 N 
HETATM   24  H   UNL     1     -45.480  58.830 -59.441  1.00  0.00     0.189 HD
HETATM   25  N   UNL     1     -45.100  56.864 -59.709  1.00  0.00    -0.177 NA
HETATM   26  C   UNL     1     -44.213  56.054 -59.111  1.00  0.00     0.079 A 
HETATM   27  C   UNL     1     -44.132  54.644 -59.567  1.00  0.00     0.075 C 
ENDBRANCH   1  20
TORSDOF 5
ENDMDL
MODEL 9
REMARK VINA RESULT:      -6.8      3.451      4.690
REMARK  5 active torsions:
REMARK  status: ('A' for Active; 'I' for Inactive)
REMARK    1  A    between atoms: C_8  and  N_9 
REMARK       I    between atoms: N_9  and  C_10 
REMARK       I    between atoms: C_10  and  N_11 
REMARK    2  A    between atoms: N_11  and  C_12 
REMARK    3  A    between atoms: C_13  and  O_14 
REMARK    4  A    between atoms: O_14  and  C_15 
REMARK    5  A    between atoms: C_15  and  C_16 
ROOT
HETATM    1  N   UNL     1     -42.350  56.869 -56.958  1.00  0.00    -0.305 N 
HETATM    2  C   UNL     1     -42.364  55.680 -56.252  1.00  0.00     0.325 C 
HETATM    3  N   UNL     1     -41.190  55.537 -55.532  1.00  0.00    -0.306 N 
HETATM    4  O   UNL     1     -43.278  54.867 -56.254  1.00  0.00    -0.247 OA
HETATM    5  H   UNL     1     -41.742  57.589 -56.600  1.00  0.00     0.171 HD
HETATM    6  H   UNL     1     -40.411  56.119 -55.815  1.00  0.00     0.171 HD
ENDROOT
BRANCH   3   7
HETATM    7  C   UNL     1     -40.869  54.530 -54.596  1.00  0.00     0.072 A 
HETATM    8  C   UNL     1     -41.256  54.746 -53.259  1.00  0.00     0.096 A 
HETATM    9  C   UNL     1     -41.021  53.783 -52.274  1.00  0.00     0.042 A 
HETATM   10  C   UNL     1     -40.363  52.605 -52.616  1.00  0.00     0.045 A 
HETATM   11  C   UNL     1     -39.963  52.399 -53.933  1.00  0.00     0.118 A 
HETATM   12  F   UNL     1     -39.339  51.258 -54.253  1.00  0.00    -0.206 F 
HETATM   13  C   UNL     1     -40.213  53.345 -54.924  1.00  0.00     0.074 A 
BRANCH   8  14
HETATM   14  O   UNL     1     -41.917  55.915 -52.963  1.00  0.00    -0.340 OA
BRANCH  14  15
HETATM   15  C   UNL     1     -41.142  56.759 -52.090  1.00  0.00     0.293 C 
BRANCH  15  16
HETATM   16  C   UNL     1     -41.937  57.069 -50.832  1.00  0.00     0.408 C 
HETATM   17  F   UNL     1     -41.163  56.971 -49.728  1.00  0.00    -0.169 F 
HETATM   18  F   UNL     1     -42.455  58.316 -50.865  1.00  0.00    -0.169 F 
HETATM   19  F   UNL     1     -42.966  56.203 -50.690  1.00  0.00    -0.169 F 
ENDBRANCH  15  16
ENDBRANCH  14  15
ENDBRANCH   8  14
ENDBRANCH   3   7
BRANCH   1  20
HETATM   20  C   UNL     1     -43.274  57.275 -57.906  1.00  0.00     0.086 A 
HETATM   21  C   UNL     1     -43.048  57.120 -59.261  1.00  0.00     0.052 A 
HETATM   22  C   UNL     1     -41.906  56.572 -60.032  1.00  0.00     0.072 C 
HETATM   23  N   UNL     1     -44.157  57.618 -59.883  1.00  0.00    -0.280 N 
HETATM   24  H   UNL     1     -44.344  57.682 -60.877  1.00  0.00     0.189 HD
HETATM   25  N   UNL     1     -45.097  58.056 -59.041  1.00  0.00    -0.177 NA
HETATM   26  C   UNL     1     -44.576  57.849 -57.822  1.00  0.00     0.079 A 
HETATM   27  C   UNL     1     -45.406  58.184 -56.638  1.00  0.00     0.075 C 
ENDBRANCH   1  20
TORSDOF 5
ENDMDL
MODEL 10
REMARK VINA RESULT:      -6.8      2.383      4.831
REMARK  5 active torsions:
REMARK  status: ('A' for Active; 'I' for Inactive)
REMARK    1  A    between atoms: C_8  and  N_9 
REMARK       I    between atoms: N_9  and  C_10 
REMARK       I    between atoms: C_10  and  N_11 
REMARK    2  A    between atoms: N_11  and  C_12 
REMARK    3  A    between atoms: C_13  and  O_14 
REMARK    4  A    between atoms: O_14  and  C_15 
REMARK    5  A    between atoms: C_15  and  C_16 
ROOT
HETATM    1  N   UNL     1     -43.252  58.406 -51.976  1.00  0.00    -0.305 N 
HETATM    2  C   UNL     1     -43.228  57.172 -51.353  1.00  0.00     0.325 C 
HETATM    3  N   UNL     1     -41.939  56.667 -51.344  1.00  0.00    -0.306 N 
HETATM    4  O   UNL     1     -44.198  56.602 -50.872  1.00  0.00    -0.247 OA
HETATM    5  H   UNL     1     -42.381  58.912 -51.993  1.00  0.00     0.171 HD
HETATM    6  H   UNL     1     -41.285  57.082 -51.996  1.00  0.00     0.171 HD
ENDROOT
BRANCH   3   7
HETATM    7  C   UNL     1     -41.474  55.499 -50.699  1.00  0.00     0.072 A 
HETATM    8  C   UNL     1     -41.391  54.326 -51.474  1.00  0.00     0.096 A 
HETATM    9  C   UNL     1     -40.898  53.136 -50.932  1.00  0.00     0.042 A 
HETATM   10  C   UNL     1     -40.513  53.103 -49.595  1.00  0.00     0.045 A 
HETATM   11  C   UNL     1     -40.613  54.257 -48.823  1.00  0.00     0.118 A 
HETATM   12  F   UNL     1     -40.233  54.218 -47.540  1.00  0.00    -0.206 F 
HETATM   13  C   UNL     1     -41.083  55.453 -49.362  1.00  0.00     0.074 A 
BRANCH   8  14
HETATM   14  O   UNL     1     -41.765  54.401 -52.795  1.00  0.00    -0.340 OA
BRANCH  14  15
HETATM   15  C   UNL     1     -40.628  54.563 -53.664  1.00  0.00     0.293 C 
BRANCH  15  16
HETATM   16  C   UNL     1     -40.497  53.353 -54.575  1.00  0.00     0.408 C 
HETATM   17  F   UNL     1     -41.664  52.675 -54.658  1.00  0.00    -0.169 F 
HETATM   18  F   UNL     1     -40.136  53.710 -55.827  1.00  0.00    -0.169 F 
HETATM   19  F   UNL     1     -39.559  52.499 -54.106  1.00  0.00    -0.169 F 
ENDBRANCH  15  16
ENDBRANCH  14  15
ENDBRANCH   8  14
ENDBRANCH   3   7
BRANCH   1  20
HETATM   20  C   UNL     1     -44.380  59.136 -52.312  1.00  0.00     0.086 A 
HETATM   21  C   UNL     1     -44.812  59.255 -53.621  1.00  0.00     0.052 A 
HETATM   22  C   UNL     1     -44.280  58.738 -54.904  1.00  0.00     0.072 C 
HETATM   23  N   UNL     1     -45.937  60.028 -53.572  1.00  0.00    -0.280 N 
HETATM   24  H   UNL     1     -46.521  60.335 -54.342  1.00  0.00     0.189 HD
HETATM   25  N   UNL     1     -46.288  60.395 -52.337  1.00  0.00    -0.177 NA
HETATM   26  C   UNL     1     -45.347  59.853 -51.548  1.00  0.00     0.079 A 
HETATM   27  C   UNL     1     -45.476  60.030 -50.080  1.00  0.00     0.075 C 
ENDBRANCH   1  20
TORSDOF 5
ENDMDL
