MODEL 1
REMARK VINA RESULT:      -8.0      0.000      0.000
REMARK  5 active torsions:
REMARK  status: ('A' for Active; 'I' for Inactive)
REMARK    1  A    between atoms: C_4  and  C_5 
REMARK    2  A    between atoms: C_5  and  C_6 
REMARK    3  A    between atoms: C_6  and  N_7 
REMARK       I    between atoms: N_7  and  C_8 
REMARK       I    between atoms: C_8  and  N_9 
REMARK    4  A    between atoms: N_9  and  N_10 
REMARK       I    between atoms: N_10  and  C_11 
REMARK    5  A    between atoms: C_11  and  C_12 
ROOT
HETATM    1  N   UNL     1     -42.040  57.540 -55.208  1.00  0.00    -0.341 N 
HETATM    2  C   UNL     1     -42.530  57.070 -56.404  1.00  0.00     0.334 C 
HETATM    3  N   UNL     1     -42.108  55.805 -56.718  1.00  0.00    -0.249 N 
HETATM    4  O   UNL     1     -43.284  57.697 -57.138  1.00  0.00    -0.246 OA
HETATM    5  H   UNL     1     -41.108  57.186 -55.041  1.00  0.00     0.164 HD
HETATM    6  H   UNL     1     -42.355  55.416 -57.627  1.00  0.00     0.192 HD
ENDROOT
BRANCH   3   7
HETATM    7  N   UNL     1     -41.361  55.005 -55.840  1.00  0.00    -0.262 N 
HETATM    8  C   UNL     1     -42.064  54.133 -55.021  1.00  0.00     0.272 C 
HETATM    9  O   UNL     1     -43.258  53.901 -55.197  1.00  0.00    -0.266 OA
HETATM   10  H   UNL     1     -40.487  55.405 -55.518  1.00  0.00     0.190 HD
BRANCH   8  11
HETATM   11  C   UNL     1     -41.294  53.546 -53.923  1.00  0.00     0.061 A 
HETATM   12  C   UNL     1     -41.054  54.143 -52.635  1.00  0.00     0.008 A 
HETATM   13  C   UNL     1     -40.271  53.258 -51.894  1.00  0.00     0.043 A 
HETATM   14  C   UNL     1     -41.430  55.362 -52.030  1.00  0.00     0.015 A 
HETATM   15  C   UNL     1     -39.847  53.528 -50.586  1.00  0.00     0.030 A 
HETATM   16  N   UNL     1     -40.041  52.160 -52.686  1.00  0.00    -0.364 N 
HETATM   17  C   UNL     1     -40.235  54.742 -50.015  1.00  0.00     0.002 A 
HETATM   18  C   UNL     1     -41.017  55.649 -50.724  1.00  0.00     0.001 A 
HETATM   19  H   UNL     1     -39.498  51.356 -52.401  1.00  0.00     0.165 HD
HETATM   20  C   UNL     1     -40.653  52.315 -53.904  1.00  0.00     0.106 A 
ENDBRANCH   8  11
ENDBRANCH   3   7
BRANCH   1  21
HETATM   21  C   UNL     1     -42.313  58.915 -54.837  1.00  0.00     0.138 C 
BRANCH  21  22
HETATM   22  C   UNL     1     -42.921  59.020 -53.424  1.00  0.00     0.003 C 
HETATM   23  C   UNL     1     -44.021  57.962 -53.048  1.00  0.00     0.016 C 
HETATM   24  C   UNL     1     -45.108  59.013 -53.323  1.00  0.00     0.002 C 
HETATM   25  C   UNL     1     -44.036  60.108 -53.222  1.00  0.00     0.016 C 
BRANCH  22  26
HETATM   26  C   UNL     1     -41.669  59.114 -52.390  1.00  0.00    -0.048 A 
HETATM   27  C   UNL     1     -41.854  59.429 -51.027  1.00  0.00     0.008 A 
HETATM   28  C   UNL     1     -40.782  59.542 -50.138  1.00  0.00     0.001 A 
HETATM   29  C   UNL     1     -39.481  59.344 -50.588  1.00  0.00     0.000 A 
HETATM   30  C   UNL     1     -39.257  59.038 -51.926  1.00  0.00     0.001 A 
HETATM   31  C   UNL     1     -40.335  58.928 -52.809  1.00  0.00     0.008 A 
ENDBRANCH  22  26
ENDBRANCH  21  22
ENDBRANCH   1  21
TORSDOF 5
ENDMDL
MODEL 2
REMARK VINA RESULT:      -8.0      2.054      6.601
REMARK  5 active torsions:
REMARK  status: ('A' for Active; 'I' for Inactive)
REMARK    1  A    between atoms: C_4  and  C_5 
REMARK    2  A    between atoms: C_5  and  C_6 
REMARK    3  A    between atoms: C_6  and  N_7 
REMARK       I    between atoms: N_7  and  C_8 
REMARK       I    between atoms: C_8  and  N_9 
REMARK    4  A    between atoms: N_9  and  N_10 
REMARK       I    between atoms: N_10  and  C_11 
REMARK    5  A    between atoms: C_11  and  C_12 
ROOT
HETATM    1  N   UNL     1     -42.118  55.068 -53.527  1.00  0.00    -0.341 N 
HETATM    2  C   UNL     1     -43.049  54.642 -54.445  1.00  0.00     0.334 C 
HETATM    3  N   UNL     1     -44.256  55.282 -54.352  1.00  0.00    -0.249 N 
HETATM    4  O   UNL     1     -42.843  53.777 -55.290  1.00  0.00    -0.246 OA
HETATM    5  H   UNL     1     -42.567  55.325 -52.658  1.00  0.00     0.164 HD
HETATM    6  H   UNL     1     -45.028  54.966 -54.937  1.00  0.00     0.192 HD
ENDROOT
BRANCH   3   7
HETATM    7  N   UNL     1     -44.483  56.370 -53.494  1.00  0.00    -0.262 N 
HETATM    8  C   UNL     1     -44.433  57.639 -54.052  1.00  0.00     0.272 C 
HETATM    9  O   UNL     1     -44.413  57.811 -55.269  1.00  0.00    -0.266 OA
HETATM   10  H   UNL     1     -44.207  56.232 -52.529  1.00  0.00     0.190 HD
BRANCH   8  11
HETATM   11  C   UNL     1     -44.372  58.743 -53.093  1.00  0.00     0.061 A 
HETATM   12  C   UNL     1     -43.286  59.030 -52.191  1.00  0.00     0.008 A 
HETATM   13  C   UNL     1     -43.635  60.158 -51.448  1.00  0.00     0.043 A 
HETATM   14  C   UNL     1     -42.035  58.427 -51.934  1.00  0.00     0.015 A 
HETATM   15  C   UNL     1     -42.801  60.711 -50.468  1.00  0.00     0.030 A 
HETATM   16  N   UNL     1     -44.877  60.555 -51.876  1.00  0.00    -0.364 N 
HETATM   17  C   UNL     1     -41.570  60.094 -50.237  1.00  0.00     0.002 A 
HETATM   18  C   UNL     1     -41.188  58.967 -50.960  1.00  0.00     0.001 A 
HETATM   19  H   UNL     1     -45.378  61.353 -51.508  1.00  0.00     0.165 HD
HETATM   20  C   UNL     1     -45.330  59.720 -52.866  1.00  0.00     0.106 A 
ENDBRANCH   8  11
ENDBRANCH   3   7
BRANCH   1  21
HETATM   21  C   UNL     1     -40.850  54.369 -53.447  1.00  0.00     0.138 C 
BRANCH  21  22
HETATM   22  C   UNL     1     -40.714  53.572 -52.134  1.00  0.00     0.003 C 
HETATM   23  C   UNL     1     -41.932  53.631 -51.142  1.00  0.00     0.016 C 
HETATM   24  C   UNL     1     -41.178  54.670 -50.298  1.00  0.00     0.002 C 
HETATM   25  C   UNL     1     -39.875  54.247 -50.990  1.00  0.00     0.016 C 
BRANCH  22  26
HETATM   26  C   UNL     1     -40.234  52.076 -52.552  1.00  0.00    -0.048 A 
HETATM   27  C   UNL     1     -40.225  51.648 -53.897  1.00  0.00     0.008 A 
HETATM   28  C   UNL     1     -39.843  50.355 -54.263  1.00  0.00     0.001 A 
HETATM   29  C   UNL     1     -39.457  49.441 -53.289  1.00  0.00     0.000 A 
HETATM   30  C   UNL     1     -39.457  49.823 -51.952  1.00  0.00     0.001 A 
HETATM   31  C   UNL     1     -39.842  51.118 -51.593  1.00  0.00     0.008 A 
ENDBRANCH  22  26
ENDBRANCH  21  22
ENDBRANCH   1  21
TORSDOF 5
ENDMDL
MODEL 3
REMARK VINA RESULT:      -8.0      3.020      7.397
REMARK  5 active torsions:
REMARK  status: ('A' for Active; 'I' for Inactive)
REMARK    1  A    between atoms: C_4  and  C_5 
REMARK    2  A    between atoms: C_5  and  C_6 
REMARK    3  A    between atoms: C_6  and  N_7 
REMARK       I    between atoms: N_7  and  C_8 
REMARK       I    between atoms: C_8  and  N_9 
REMARK    4  A    between atoms: N_9  and  N_10 
REMARK       I    between atoms: N_10  and  C_11 
REMARK    5  A    between atoms: C_11  and  C_12 
ROOT
HETATM    1  N   UNL     1     -42.226  55.160 -52.276  1.00  0.00    -0.341 N 
HETATM    2  C   UNL     1     -42.898  55.142 -51.076  1.00  0.00     0.334 C 
HETATM    3  N   UNL     1     -43.984  55.976 -51.034  1.00  0.00    -0.249 N 
HETATM    4  O   UNL     1     -42.584  54.447 -50.117  1.00  0.00    -0.246 OA
HETATM    5  H   UNL     1     -42.260  56.082 -52.689  1.00  0.00     0.164 HD
HETATM    6  H   UNL     1     -44.485  56.087 -50.154  1.00  0.00     0.192 HD
ENDROOT
BRANCH   3   7
HETATM    7  N   UNL     1     -44.454  56.678 -52.154  1.00  0.00    -0.262 N 
HETATM    8  C   UNL     1     -43.925  57.941 -52.380  1.00  0.00     0.272 C 
HETATM    9  O   UNL     1     -42.938  58.347 -51.770  1.00  0.00    -0.266 OA
HETATM   10  H   UNL     1     -45.407  56.474 -52.432  1.00  0.00     0.190 HD
BRANCH   8  11
HETATM   11  C   UNL     1     -44.643  58.756 -53.361  1.00  0.00     0.061 A 
HETATM   12  C   UNL     1     -44.645  58.566 -54.789  1.00  0.00     0.008 A 
HETATM   13  C   UNL     1     -45.445  59.561 -55.351  1.00  0.00     0.043 A 
HETATM   14  C   UNL     1     -44.033  57.637 -55.659  1.00  0.00     0.015 A 
HETATM   15  C   UNL     1     -45.664  59.674 -56.730  1.00  0.00     0.030 A 
HETATM   16  N   UNL     1     -45.922  60.328 -54.317  1.00  0.00    -0.364 N 
HETATM   17  C   UNL     1     -45.045  58.740 -57.565  1.00  0.00     0.002 A 
HETATM   18  C   UNL     1     -44.241  57.733 -57.039  1.00  0.00     0.001 A 
HETATM   19  H   UNL     1     -46.532  61.126 -54.434  1.00  0.00     0.165 HD
HETATM   20  C   UNL     1     -45.454  59.855 -53.117  1.00  0.00     0.106 A 
ENDBRANCH   8  11
ENDBRANCH   3   7
BRANCH   1  21
HETATM   21  C   UNL     1     -40.986  54.417 -52.390  1.00  0.00     0.138 C 
BRANCH  21  22
HETATM   22  C   UNL     1     -40.897  53.647 -53.723  1.00  0.00     0.003 C 
HETATM   23  C   UNL     1     -40.114  54.347 -54.893  1.00  0.00     0.016 C 
HETATM   24  C   UNL     1     -41.451  54.776 -55.515  1.00  0.00     0.002 C 
HETATM   25  C   UNL     1     -42.159  53.719 -54.656  1.00  0.00     0.016 C 
BRANCH  22  26
HETATM   26  C   UNL     1     -40.395  52.145 -53.354  1.00  0.00    -0.048 A 
HETATM   27  C   UNL     1     -39.951  51.808 -52.058  1.00  0.00     0.008 A 
HETATM   28  C   UNL     1     -39.490  50.528 -51.739  1.00  0.00     0.001 A 
HETATM   29  C   UNL     1     -39.455  49.539 -52.715  1.00  0.00     0.000 A 
HETATM   30  C   UNL     1     -39.879  49.832 -54.006  1.00  0.00     0.001 A 
HETATM   31  C   UNL     1     -40.339  51.116 -54.317  1.00  0.00     0.008 A 
ENDBRANCH  22  26
ENDBRANCH  21  22
ENDBRANCH   1  21
TORSDOF 5
ENDMDL
MODEL 4
REMARK VINA RESULT:      -7.9      2.618      4.897
REMARK  5 active torsions:
REMARK  status: ('A' for Active; 'I' for Inactive)
REMARK    1  A    between atoms: C_4  and  C_5 
REMARK    2  A    between atoms: C_5  and  C_6 
REMARK    3  A    between atoms: C_6  and  N_7 
REMARK       I    between atoms: N_7  and  C_8 
REMARK       I    between atoms: C_8  and  N_9 
REMARK    4  A    between atoms: N_9  and  N_10 
REMARK       I    between atoms: N_10  and  C_11 
REMARK    5  A    between atoms: C_11  and  C_12 
ROOT
HETATM    1  N   UNL     1     -43.633  56.895 -52.846  1.00  0.00    -0.341 N 
HETATM    2  C   UNL     1     -44.083  57.393 -51.645  1.00  0.00     0.334 C 
HETATM    3  N   UNL     1     -43.934  56.528 -50.593  1.00  0.00    -0.249 N 
HETATM    4  O   UNL     1     -44.570  58.508 -51.497  1.00  0.00    -0.246 OA
HETATM    5  H   UNL     1     -43.783  55.896 -52.896  1.00  0.00     0.164 HD
HETATM    6  H   UNL     1     -44.321  56.784 -49.687  1.00  0.00     0.192 HD
ENDROOT
BRANCH   3   7
HETATM    7  N   UNL     1     -43.256  55.303 -50.698  1.00  0.00    -0.262 N 
HETATM    8  C   UNL     1     -41.909  55.293 -50.369  1.00  0.00     0.272 C 
HETATM    9  O   UNL     1     -41.374  56.244 -49.802  1.00  0.00    -0.266 OA
HETATM   10  H   UNL     1     -43.607  54.666 -51.404  1.00  0.00     0.190 HD
BRANCH   8  11
HETATM   11  C   UNL     1     -41.173  54.093 -50.772  1.00  0.00     0.061 A 
HETATM   12  C   UNL     1     -40.924  53.661 -52.123  1.00  0.00     0.008 A 
HETATM   13  C   UNL     1     -40.199  52.471 -52.063  1.00  0.00     0.043 A 
HETATM   14  C   UNL     1     -41.252  54.174 -53.397  1.00  0.00     0.015 A 
HETATM   15  C   UNL     1     -39.789  51.770 -53.205  1.00  0.00     0.030 A 
HETATM   16  N   UNL     1     -40.005  52.182 -50.734  1.00  0.00    -0.364 N 
HETATM   17  C   UNL     1     -40.128  52.303 -54.451  1.00  0.00     0.002 A 
HETATM   18  C   UNL     1     -40.849  53.489 -54.549  1.00  0.00     0.001 A 
HETATM   19  H   UNL     1     -39.507  51.370 -50.395  1.00  0.00     0.165 HD
HETATM   20  C   UNL     1     -40.579  53.149 -49.948  1.00  0.00     0.106 A 
ENDBRANCH   8  11
ENDBRANCH   3   7
BRANCH   1  21
HETATM   21  C   UNL     1     -43.860  57.670 -54.050  1.00  0.00     0.138 C 
BRANCH  21  22
HETATM   22  C   UNL     1     -42.539  58.041 -54.753  1.00  0.00     0.003 C 
HETATM   23  C   UNL     1     -41.211  57.749 -53.963  1.00  0.00     0.016 C 
HETATM   24  C   UNL     1     -41.131  59.232 -53.573  1.00  0.00     0.002 C 
HETATM   25  C   UNL     1     -42.122  59.555 -54.701  1.00  0.00     0.016 C 
BRANCH  22  26
HETATM   26  C   UNL     1     -42.615  57.396 -56.244  1.00  0.00    -0.048 A 
HETATM   27  C   UNL     1     -42.367  58.167 -57.400  1.00  0.00     0.008 A 
HETATM   28  C   UNL     1     -42.459  57.629 -58.686  1.00  0.00     0.001 A 
HETATM   29  C   UNL     1     -42.807  56.294 -58.858  1.00  0.00     0.000 A 
HETATM   30  C   UNL     1     -43.064  55.502 -57.744  1.00  0.00     0.001 A 
HETATM   31  C   UNL     1     -42.971  56.049 -56.460  1.00  0.00     0.008 A 
ENDBRANCH  22  26
ENDBRANCH  21  22
ENDBRANCH   1  21
TORSDOF 5
ENDMDL
MODEL 5
REMARK VINA RESULT:      -7.9      2.748      6.646
REMARK  5 active torsions:
REMARK  status: ('A' for Active; 'I' for Inactive)
REMARK    1  A    between atoms: C_4  and  C_5 
REMARK    2  A    between atoms: C_5  and  C_6 
REMARK    3  A    between atoms: C_6  and  N_7 
REMARK       I    between atoms: N_7  and  C_8 
REMARK       I    between atoms: C_8  and  N_9 
REMARK    4  A    between atoms: N_9  and  N_10 
REMARK       I    between atoms: N_10  and  C_11 
REMARK    5  A    between atoms: C_11  and  C_12 
ROOT
HETATM    1  N   UNL     1     -43.612  55.686 -52.458  1.00  0.00    -0.341 N 
HETATM    2  C   UNL     1     -44.247  56.745 -51.853  1.00  0.00     0.334 C 
HETATM    3  N   UNL     1     -44.376  57.848 -52.656  1.00  0.00    -0.249 N 
HETATM    4  O   UNL     1     -44.679  56.731 -50.706  1.00  0.00    -0.246 OA
HETATM    5  H   UNL     1     -42.905  56.015 -53.101  1.00  0.00     0.164 HD
HETATM    6  H   UNL     1     -44.757  58.705 -52.258  1.00  0.00     0.192 HD
ENDROOT
BRANCH   3   7
HETATM    7  N   UNL     1     -44.021  57.854 -54.014  1.00  0.00    -0.262 N 
HETATM    8  C   UNL     1     -42.725  58.236 -54.330  1.00  0.00     0.272 C 
HETATM    9  O   UNL     1     -41.856  58.352 -53.467  1.00  0.00    -0.266 OA
HETATM   10  H   UNL     1     -44.775  58.044 -54.664  1.00  0.00     0.190 HD
BRANCH   8  11
HETATM   11  C   UNL     1     -42.482  58.519 -55.745  1.00  0.00     0.061 A 
HETATM   12  C   UNL     1     -42.638  57.595 -56.838  1.00  0.00     0.008 A 
HETATM   13  C   UNL     1     -42.297  58.263 -58.014  1.00  0.00     0.043 A 
HETATM   14  C   UNL     1     -43.038  56.244 -56.935  1.00  0.00     0.015 A 
HETATM   15  C   UNL     1     -42.333  57.653 -59.275  1.00  0.00     0.030 A 
HETATM   16  N   UNL     1     -41.950  59.545 -57.664  1.00  0.00    -0.364 N 
HETATM   17  C   UNL     1     -42.733  56.316 -59.339  1.00  0.00     0.002 A 
HETATM   18  C   UNL     1     -43.082  55.618 -58.186  1.00  0.00     0.001 A 
HETATM   19  H   UNL     1     -41.657  60.255 -58.322  1.00  0.00     0.165 HD
HETATM   20  C   UNL     1     -42.061  59.715 -56.308  1.00  0.00     0.106 A 
ENDBRANCH   8  11
ENDBRANCH   3   7
BRANCH   1  21
HETATM   21  C   UNL     1     -43.304  54.514 -51.662  1.00  0.00     0.138 C 
BRANCH  21  22
HETATM   22  C   UNL     1     -41.829  54.496 -51.211  1.00  0.00     0.003 C 
HETATM   23  C   UNL     1     -41.564  54.375 -49.666  1.00  0.00     0.016 C 
HETATM   24  C   UNL     1     -41.307  55.888 -49.604  1.00  0.00     0.002 C 
HETATM   25  C   UNL     1     -41.108  55.890 -51.126  1.00  0.00     0.016 C 
BRANCH  22  26
HETATM   26  C   UNL     1     -41.080  53.385 -52.132  1.00  0.00    -0.048 A 
HETATM   27  C   UNL     1     -40.119  52.502 -51.594  1.00  0.00     0.008 A 
HETATM   28  C   UNL     1     -39.449  51.564 -52.384  1.00  0.00     0.001 A 
HETATM   29  C   UNL     1     -39.717  51.482 -53.745  1.00  0.00     0.000 A 
HETATM   30  C   UNL     1     -40.653  52.339 -54.314  1.00  0.00     0.001 A 
HETATM   31  C   UNL     1     -41.319  53.275 -53.518  1.00  0.00     0.008 A 
ENDBRANCH  22  26
ENDBRANCH  21  22
ENDBRANCH   1  21
TORSDOF 5
ENDMDL
MODEL 6
REMARK VINA RESULT:      -7.8      2.761      7.240
REMARK  5 active torsions:
REMARK  status: ('A' for Active; 'I' for Inactive)
REMARK    1  A    between atoms: C_4  and  C_5 
REMARK    2  A    between atoms: C_5  and  C_6 
REMARK    3  A    between atoms: C_6  and  N_7 
REMARK       I    between atoms: N_7  and  C_8 
REMARK       I    between atoms: C_8  and  N_9 
REMARK    4  A    between atoms: N_9  and  N_10 
REMARK       I    between atoms: N_10  and  C_11 
REMARK    5  A    between atoms: C_11  and  C_12 
ROOT
HETATM    1  N   UNL     1     -41.572  55.626 -52.445  1.00  0.00    -0.341 N 
HETATM    2  C   UNL     1     -42.687  55.818 -51.663  1.00  0.00     0.334 C 
HETATM    3  N   UNL     1     -43.211  57.082 -51.744  1.00  0.00    -0.249 N 
HETATM    4  O   UNL     1     -43.194  54.956 -50.956  1.00  0.00    -0.246 OA
HETATM    5  H   UNL     1     -41.024  56.474 -52.499  1.00  0.00     0.164 HD
HETATM    6  H   UNL     1     -43.985  57.333 -51.132  1.00  0.00     0.192 HD
ENDROOT
BRANCH   3   7
HETATM    7  N   UNL     1     -42.743  58.049 -52.646  1.00  0.00    -0.262 N 
HETATM    8  C   UNL     1     -43.617  58.466 -53.640  1.00  0.00     0.272 C 
HETATM    9  O   UNL     1     -44.812  58.179 -53.614  1.00  0.00    -0.266 OA
HETATM   10  H   UNL     1     -41.746  58.037 -52.825  1.00  0.00     0.190 HD
BRANCH   8  11
HETATM   11  C   UNL     1     -43.009  59.236 -54.727  1.00  0.00     0.061 A 
HETATM   12  C   UNL     1     -42.762  58.770 -56.067  1.00  0.00     0.008 A 
HETATM   13  C   UNL     1     -42.163  59.810 -56.777  1.00  0.00     0.043 A 
HETATM   14  C   UNL     1     -42.992  57.551 -56.743  1.00  0.00     0.015 A 
HETATM   15  C   UNL     1     -41.784  59.695 -58.121  1.00  0.00     0.030 A 
HETATM   16  N   UNL     1     -42.049  60.873 -55.917  1.00  0.00    -0.364 N 
HETATM   17  C   UNL     1     -42.024  58.478 -58.763  1.00  0.00     0.002 A 
HETATM   18  C   UNL     1     -42.621  57.418 -58.086  1.00  0.00     0.001 A 
HETATM   19  H   UNL     1     -41.648  61.767 -56.167  1.00  0.00     0.165 HD
HETATM   20  C   UNL     1     -42.557  60.547 -54.685  1.00  0.00     0.106 A 
ENDBRANCH   8  11
ENDBRANCH   3   7
BRANCH   1  21
HETATM   21  C   UNL     1     -40.856  54.369 -52.338  1.00  0.00     0.138 C 
BRANCH  21  22
HETATM   22  C   UNL     1     -40.814  53.615 -53.683  1.00  0.00     0.003 C 
HETATM   23  C   UNL     1     -40.077  54.332 -54.872  1.00  0.00     0.016 C 
HETATM   24  C   UNL     1     -41.438  54.763 -55.440  1.00  0.00     0.002 C 
HETATM   25  C   UNL     1     -42.110  53.694 -54.568  1.00  0.00     0.016 C 
BRANCH  22  26
HETATM   26  C   UNL     1     -40.294  52.111 -53.351  1.00  0.00    -0.048 A 
HETATM   27  C   UNL     1     -40.291  51.094 -54.330  1.00  0.00     0.008 A 
HETATM   28  C   UNL     1     -39.874  49.791 -54.045  1.00  0.00     0.001 A 
HETATM   29  C   UNL     1     -39.446  49.461 -52.765  1.00  0.00     0.000 A 
HETATM   30  C   UNL     1     -39.439  50.434 -51.771  1.00  0.00     0.001 A 
HETATM   31  C   UNL     1     -39.859  51.735 -52.063  1.00  0.00     0.008 A 
ENDBRANCH  22  26
ENDBRANCH  21  22
ENDBRANCH   1  21
TORSDOF 5
ENDMDL
MODEL 7
REMARK VINA RESULT:      -7.8      2.936      7.140
REMARK  5 active torsions:
REMARK  status: ('A' for Active; 'I' for Inactive)
REMARK    1  A    between atoms: C_4  and  C_5 
REMARK    2  A    between atoms: C_5  and  C_6 
REMARK    3  A    between atoms: C_6  and  N_7 
REMARK       I    between atoms: N_7  and  C_8 
REMARK       I    between atoms: C_8  and  N_9 
REMARK    4  A    between atoms: N_9  and  N_10 
REMARK       I    between atoms: N_10  and  C_11 
REMARK    5  A    between atoms: C_11  and  C_12 
ROOT
HETATM    1  N   UNL     1     -41.643  56.202 -53.929  1.00  0.00    -0.341 N 
HETATM    2  C   UNL     1     -41.903  57.552 -53.969  1.00  0.00     0.334 C 
HETATM    3  N   UNL     1     -42.436  57.981 -55.157  1.00  0.00    -0.249 N 
HETATM    4  O   UNL     1     -41.697  58.325 -53.041  1.00  0.00    -0.246 OA
HETATM    5  H   UNL     1     -41.362  55.867 -54.840  1.00  0.00     0.164 HD
HETATM    6  H   UNL     1     -42.577  58.979 -55.301  1.00  0.00     0.192 HD
ENDROOT
BRANCH   3   7
HETATM    7  N   UNL     1     -42.814  57.106 -56.187  1.00  0.00    -0.262 N 
HETATM    8  C   UNL     1     -42.674  57.562 -57.490  1.00  0.00     0.272 C 
HETATM    9  O   UNL     1     -42.048  58.587 -57.753  1.00  0.00    -0.266 OA
HETATM   10  H   UNL     1     -43.554  56.452 -55.958  1.00  0.00     0.190 HD
BRANCH   8  11
HETATM   11  C   UNL     1     -43.349  56.759 -58.511  1.00  0.00     0.061 A 
HETATM   12  C   UNL     1     -44.696  56.942 -58.987  1.00  0.00     0.008 A 
HETATM   13  C   UNL     1     -44.945  55.963 -59.948  1.00  0.00     0.043 A 
HETATM   14  C   UNL     1     -45.730  57.854 -58.685  1.00  0.00     0.015 A 
HETATM   15  C   UNL     1     -46.170  55.848 -60.618  1.00  0.00     0.030 A 
HETATM   16  N   UNL     1     -43.803  55.210 -60.065  1.00  0.00    -0.364 N 
HETATM   17  C   UNL     1     -47.175  56.765 -60.298  1.00  0.00     0.002 A 
HETATM   18  C   UNL     1     -46.960  57.756 -59.345  1.00  0.00     0.001 A 
HETATM   19  H   UNL     1     -43.700  54.425 -60.694  1.00  0.00     0.165 HD
HETATM   20  C   UNL     1     -42.835  55.679 -59.214  1.00  0.00     0.106 A 
ENDBRANCH   8  11
ENDBRANCH   3   7
BRANCH   1  21
HETATM   21  C   UNL     1     -40.958  55.660 -52.772  1.00  0.00     0.138 C 
BRANCH  21  22
HETATM   22  C   UNL     1     -41.697  54.441 -52.184  1.00  0.00     0.003 C 
HETATM   23  C   UNL     1     -43.252  54.382 -52.409  1.00  0.00     0.016 C 
HETATM   24  C   UNL     1     -43.466  54.890 -50.975  1.00  0.00     0.002 C 
HETATM   25  C   UNL     1     -42.019  54.494 -50.647  1.00  0.00     0.016 C 
BRANCH  22  26
HETATM   26  C   UNL     1     -40.875  53.126 -52.673  1.00  0.00    -0.048 A 
HETATM   27  C   UNL     1     -40.991  52.625 -53.987  1.00  0.00     0.008 A 
HETATM   28  C   UNL     1     -40.312  51.478 -54.408  1.00  0.00     0.001 A 
HETATM   29  C   UNL     1     -39.493  50.790 -53.520  1.00  0.00     0.000 A 
HETATM   30  C   UNL     1     -39.358  51.248 -52.214  1.00  0.00     0.001 A 
HETATM   31  C   UNL     1     -40.041  52.396 -51.801  1.00  0.00     0.008 A 
ENDBRANCH  22  26
ENDBRANCH  21  22
ENDBRANCH   1  21
TORSDOF 5
ENDMDL
MODEL 8
REMARK VINA RESULT:      -7.8      3.076      7.530
REMARK  5 active torsions:
REMARK  status: ('A' for Active; 'I' for Inactive)
REMARK    1  A    between atoms: C_4  and  C_5 
REMARK    2  A    between atoms: C_5  and  C_6 
REMARK    3  A    between atoms: C_6  and  N_7 
REMARK       I    between atoms: N_7  and  C_8 
REMARK       I    between atoms: C_8  and  N_9 
REMARK    4  A    between atoms: N_9  and  N_10 
REMARK       I    between atoms: N_10  and  C_11 
REMARK    5  A    between atoms: C_11  and  C_12 
ROOT
HETATM    1  N   UNL     1     -42.238  55.330 -52.362  1.00  0.00    -0.341 N 
HETATM    2  C   UNL     1     -42.938  55.014 -51.221  1.00  0.00     0.334 C 
HETATM    3  N   UNL     1     -44.069  55.765 -51.036  1.00  0.00    -0.249 N 
HETATM    4  O   UNL     1     -42.610  54.140 -50.427  1.00  0.00    -0.246 OA
HETATM    5  H   UNL     1     -42.313  56.319 -52.562  1.00  0.00     0.164 HD
HETATM    6  H   UNL     1     -44.598  55.654 -50.172  1.00  0.00     0.192 HD
ENDROOT
BRANCH   3   7
HETATM    7  N   UNL     1     -44.550  56.675 -51.990  1.00  0.00    -0.262 N 
HETATM    8  C   UNL     1     -44.087  57.981 -51.912  1.00  0.00     0.272 C 
HETATM    9  O   UNL     1     -43.141  58.290 -51.191  1.00  0.00    -0.266 OA
HETATM   10  H   UNL     1     -45.482  56.491 -52.342  1.00  0.00     0.190 HD
BRANCH   8  11
HETATM   11  C   UNL     1     -44.825  58.956 -52.715  1.00  0.00     0.061 A 
HETATM   12  C   UNL     1     -45.512  60.122 -52.222  1.00  0.00     0.008 A 
HETATM   13  C   UNL     1     -46.089  60.771 -53.314  1.00  0.00     0.043 A 
HETATM   14  C   UNL     1     -45.700  60.685 -50.941  1.00  0.00     0.015 A 
HETATM   15  C   UNL     1     -46.840  61.947 -53.191  1.00  0.00     0.030 A 
HETATM   16  N   UNL     1     -45.768  60.043 -54.433  1.00  0.00    -0.364 N 
HETATM   17  C   UNL     1     -47.008  62.480 -51.910  1.00  0.00     0.002 A 
HETATM   18  C   UNL     1     -46.446  61.860 -50.798  1.00  0.00     0.001 A 
HETATM   19  H   UNL     1     -46.057  60.285 -55.371  1.00  0.00     0.165 HD
HETATM   20  C   UNL     1     -45.006  58.955 -54.091  1.00  0.00     0.106 A 
ENDBRANCH   8  11
ENDBRANCH   3   7
BRANCH   1  21
HETATM   21  C   UNL     1     -40.957  54.692 -52.591  1.00  0.00     0.138 C 
BRANCH  21  22
HETATM   22  C   UNL     1     -40.969  53.818 -53.862  1.00  0.00     0.003 C 
HETATM   23  C   UNL     1     -40.265  54.414 -55.136  1.00  0.00     0.016 C 
HETATM   24  C   UNL     1     -41.640  54.810 -55.695  1.00  0.00     0.002 C 
HETATM   25  C   UNL     1     -42.293  53.833 -54.707  1.00  0.00     0.016 C 
BRANCH  22  26
HETATM   26  C   UNL     1     -40.452  52.344 -53.412  1.00  0.00    -0.048 A 
HETATM   27  C   UNL     1     -39.969  52.093 -52.110  1.00  0.00     0.008 A 
HETATM   28  C   UNL     1     -39.496  50.836 -51.722  1.00  0.00     0.001 A 
HETATM   29  C   UNL     1     -39.488  49.785 -52.632  1.00  0.00     0.000 A 
HETATM   30  C   UNL     1     -39.951  49.994 -53.927  1.00  0.00     0.001 A 
HETATM   31  C   UNL     1     -40.422  51.254 -54.307  1.00  0.00     0.008 A 
ENDBRANCH  22  26
ENDBRANCH  21  22
ENDBRANCH   1  21
TORSDOF 5
ENDMDL
MODEL 9
REMARK VINA RESULT:      -7.7      2.930      5.730
REMARK  5 active torsions:
REMARK  status: ('A' for Active; 'I' for Inactive)
REMARK    1  A    between atoms: C_4  and  C_5 
REMARK    2  A    between atoms: C_5  and  C_6 
REMARK    3  A    between atoms: C_6  and  N_7 
REMARK       I    between atoms: N_7  and  C_8 
REMARK       I    between atoms: C_8  and  N_9 
REMARK    4  A    between atoms: N_9  and  N_10 
REMARK       I    between atoms: N_10  and  C_11 
REMARK    5  A    between atoms: C_11  and  C_12 
ROOT
HETATM    1  N   UNL     1     -44.488  57.249 -55.524  1.00  0.00    -0.341 N 
HETATM    2  C   UNL     1     -44.835  57.690 -54.269  1.00  0.00     0.334 C 
HETATM    3  N   UNL     1     -44.525  56.810 -53.265  1.00  0.00    -0.249 N 
HETATM    4  O   UNL     1     -45.365  58.770 -54.036  1.00  0.00    -0.246 OA
HETATM    5  H   UNL     1     -44.586  56.245 -55.588  1.00  0.00     0.164 HD
HETATM    6  H   UNL     1     -44.826  57.021 -52.315  1.00  0.00     0.192 HD
ENDROOT
BRANCH   3   7
HETATM    7  N   UNL     1     -43.794  55.631 -53.478  1.00  0.00    -0.262 N 
HETATM    8  C   UNL     1     -42.486  55.603 -53.018  1.00  0.00     0.272 C 
HETATM    9  O   UNL     1     -42.045  56.471 -52.267  1.00  0.00    -0.266 OA
HETATM   10  H   UNL     1     -44.051  55.098 -54.301  1.00  0.00     0.190 HD
BRANCH   8  11
HETATM   11  C   UNL     1     -41.670  54.494 -53.515  1.00  0.00     0.061 A 
HETATM   12  C   UNL     1     -41.003  53.500 -52.714  1.00  0.00     0.008 A 
HETATM   13  C   UNL     1     -40.331  52.636 -53.579  1.00  0.00     0.043 A 
HETATM   14  C   UNL     1     -40.906  53.258 -51.326  1.00  0.00     0.015 A 
HETATM   15  C   UNL     1     -39.571  51.549 -53.129  1.00  0.00     0.030 A 
HETATM   16  N   UNL     1     -40.575  53.073 -54.857  1.00  0.00    -0.364 N 
HETATM   17  C   UNL     1     -39.494  51.334 -51.751  1.00  0.00     0.002 A 
HETATM   18  C   UNL     1     -40.153  52.175 -50.859  1.00  0.00     0.001 A 
HETATM   19  H   UNL     1     -40.210  52.630 -55.690  1.00  0.00     0.165 HD
HETATM   20  C   UNL     1     -41.381  54.183 -54.836  1.00  0.00     0.106 A 
ENDBRANCH   8  11
ENDBRANCH   3   7
BRANCH   1  21
HETATM   21  C   UNL     1     -44.886  58.038 -56.673  1.00  0.00     0.138 C 
BRANCH  21  22
HETATM   22  C   UNL     1     -43.853  57.954 -57.815  1.00  0.00     0.003 C 
HETATM   23  C   UNL     1     -42.347  57.792 -57.395  1.00  0.00     0.016 C 
HETATM   24  C   UNL     1     -42.129  59.292 -57.642  1.00  0.00     0.002 C 
HETATM   25  C   UNL     1     -43.422  59.317 -58.468  1.00  0.00     0.016 C 
BRANCH  22  26
HETATM   26  C   UNL     1     -44.407  56.834 -58.855  1.00  0.00    -0.048 A 
HETATM   27  C   UNL     1     -43.727  55.615 -59.064  1.00  0.00     0.008 A 
HETATM   28  C   UNL     1     -44.179  54.659 -59.977  1.00  0.00     0.001 A 
HETATM   29  C   UNL     1     -45.332  54.895 -60.718  1.00  0.00     0.000 A 
HETATM   30  C   UNL     1     -46.027  56.086 -60.545  1.00  0.00     0.001 A 
HETATM   31  C   UNL     1     -45.568  57.038 -59.629  1.00  0.00     0.008 A 
ENDBRANCH  22  26
ENDBRANCH  21  22
ENDBRANCH   1  21
TORSDOF 5
ENDMDL
MODEL 10
REMARK VINA RESULT:      -7.7      2.560      4.530
REMARK  5 active torsions:
REMARK  status: ('A' for Active; 'I' for Inactive)
REMARK    1  A    between atoms: C_4  and  C_5 
REMARK    2  A    between atoms: C_5  and  C_6 
REMARK    3  A    between atoms: C_6  and  N_7 
REMARK       I    between atoms: N_7  and  C_8 
REMARK       I    between atoms: C_8  and  N_9 
REMARK    4  A    between atoms: N_9  and  N_10 
REMARK       I    between atoms: N_10  and  C_11 
REMARK    5  A    between atoms: C_11  and  C_12 
ROOT
HETATM    1  N   UNL     1     -41.770  58.512 -52.473  1.00  0.00    -0.341 N 
HETATM    2  C   UNL     1     -41.810  59.133 -51.247  1.00  0.00     0.334 C 
HETATM    3  N   UNL     1     -41.404  58.339 -50.207  1.00  0.00    -0.249 N 
HETATM    4  O   UNL     1     -42.163  60.294 -51.070  1.00  0.00    -0.246 OA
HETATM    5  H   UNL     1     -41.987  57.528 -52.381  1.00  0.00     0.164 HD
HETATM    6  H   UNL     1     -41.485  58.694 -49.256  1.00  0.00     0.192 HD
ENDROOT
BRANCH   3   7
HETATM    7  N   UNL     1     -40.863  57.057 -50.388  1.00  0.00    -0.262 N 
HETATM    8  C   UNL     1     -41.755  55.998 -50.476  1.00  0.00     0.272 C 
HETATM    9  O   UNL     1     -42.963  56.179 -50.613  1.00  0.00    -0.266 OA
HETATM   10  H   UNL     1     -39.942  56.909 -49.990  1.00  0.00     0.190 HD
BRANCH   8  11
HETATM   11  C   UNL     1     -41.160  54.666 -50.360  1.00  0.00     0.061 A 
HETATM   12  C   UNL     1     -40.737  53.823 -51.450  1.00  0.00     0.008 A 
HETATM   13  C   UNL     1     -40.237  52.641 -50.905  1.00  0.00     0.043 A 
HETATM   14  C   UNL     1     -40.739  53.958 -52.855  1.00  0.00     0.015 A 
HETATM   15  C   UNL     1     -39.741  51.591 -51.689  1.00  0.00     0.030 A 
HETATM   16  N   UNL     1     -40.340  52.749 -49.540  1.00  0.00    -0.364 N 
HETATM   17  C   UNL     1     -39.755  51.754 -53.077  1.00  0.00     0.002 A 
HETATM   18  C   UNL     1     -40.245  52.921 -53.655  1.00  0.00     0.001 A 
HETATM   19  H   UNL     1     -40.049  52.032 -48.889  1.00  0.00     0.165 HD
HETATM   20  C   UNL     1     -40.886  53.959 -49.198  1.00  0.00     0.106 A 
ENDBRANCH   8  11
ENDBRANCH   3   7
BRANCH   1  21
HETATM   21  C   UNL     1     -42.301  59.212 -53.626  1.00  0.00     0.138 C 
BRANCH  21  22
HETATM   22  C   UNL     1     -43.676  58.659 -54.052  1.00  0.00     0.003 C 
HETATM   23  C   UNL     1     -44.554  59.581 -54.975  1.00  0.00     0.016 C 
HETATM   24  C   UNL     1     -45.380  60.000 -53.749  1.00  0.00     0.002 C 
HETATM   25  C   UNL     1     -44.834  58.777 -52.997  1.00  0.00     0.016 C 
BRANCH  22  26
HETATM   26  C   UNL     1     -43.411  57.159 -54.623  1.00  0.00    -0.048 A 
HETATM   27  C   UNL     1     -42.677  56.935 -55.807  1.00  0.00     0.008 A 
HETATM   28  C   UNL     1     -42.470  55.652 -56.321  1.00  0.00     0.001 A 
HETATM   29  C   UNL     1     -42.996  54.546 -55.663  1.00  0.00     0.000 A 
HETATM   30  C   UNL     1     -43.730  54.726 -54.496  1.00  0.00     0.001 A 
HETATM   31  C   UNL     1     -43.934  56.013 -53.989  1.00  0.00     0.008 A 
ENDBRANCH  22  26
ENDBRANCH  21  22
ENDBRANCH   1  21
TORSDOF 5
ENDMDL
