MODEL 1
REMARK VINA RESULT:      -9.3      0.000      0.000
REMARK  6 active torsions:
REMARK  status: ('A' for Active; 'I' for Inactive)
REMARK    1  A    between atoms: C_4  and  C_5 
REMARK    2  A    between atoms: C_5  and  C_6 
REMARK    3  A    between atoms: C_10  and  C_11 
REMARK    4  A    between atoms: C_10  and  C_15 
REMARK    5  A    between atoms: N_19  and  C_20 
REMARK    6  A    between atoms: C_20  and  C_21 
ROOT
HETATM    1  C   UNL     1     -41.080  54.266 -53.861  1.00  0.00     0.084 C 
HETATM    2  N   UNL     1     -41.974  54.839 -54.638  1.00  0.00    -0.331 N 
HETATM    3  C   UNL     1     -42.898  55.748 -54.176  1.00  0.00     0.128 C 
HETATM    4  C   UNL     1     -42.974  55.986 -52.859  1.00  0.00     0.100 C 
HETATM    5  C   UNL     1     -42.118  55.302 -51.819  1.00  0.00     0.264 C 
HETATM    6  N   UNL     1     -43.722  56.398 -55.081  1.00  0.00    -0.278 N 
HETATM    7  C   UNL     1     -44.725  57.262 -54.665  1.00  0.00     0.331 C 
HETATM    8  O   UNL     1     -45.483  57.860 -55.421  1.00  0.00    -0.246 OA
HETATM    9  N   UNL     1     -44.827  57.447 -53.319  1.00  0.00    -0.275 N 
HETATM   10  C   UNL     1     -43.974  56.951 -52.394  1.00  0.00     0.262 C 
HETATM   11  O   UNL     1     -44.007  57.275 -51.218  1.00  0.00    -0.267 OA
HETATM   12  N   UNL     1     -41.050  54.481 -52.564  1.00  0.00    -0.351 N 
HETATM   13  H   UNL     1     -40.321  54.029 -52.003  1.00  0.00     0.162 HD
HETATM   14  H   UNL     1     -41.987  54.556 -55.620  1.00  0.00     0.168 HD
HETATM   15  H   UNL     1     -45.521  58.118 -53.012  1.00  0.00     0.173 HD
ENDROOT
BRANCH   5  16
HETATM   16  C   UNL     1     -42.917  54.320 -50.957  1.00  0.00     0.426 C 
HETATM   17  F   UNL     1     -43.873  53.732 -51.728  1.00  0.00    -0.168 F 
HETATM   18  F   UNL     1     -42.118  53.317 -50.523  1.00  0.00    -0.168 F 
HETATM   19  F   UNL     1     -43.537  54.856 -49.900  1.00  0.00    -0.168 F 
ENDBRANCH   5  16
BRANCH   5  20
HETATM   20  C   UNL     1     -41.372  56.216 -50.841  1.00  0.00     0.426 C 
HETATM   21  F   UNL     1     -40.909  57.311 -51.492  1.00  0.00    -0.168 F 
HETATM   22  F   UNL     1     -42.055  56.615 -49.764  1.00  0.00    -0.168 F 
HETATM   23  F   UNL     1     -40.268  55.557 -50.389  1.00  0.00    -0.168 F 
ENDBRANCH   5  20
BRANCH   1  24
HETATM   24  C   UNL     1     -40.061  53.359 -54.471  1.00  0.00     0.114 C 
BRANCH  24  25
HETATM   25  C   UNL     1     -39.923  52.008 -53.809  1.00  0.00    -0.051 A 
HETATM   26  C   UNL     1     -39.954  50.853 -54.609  1.00  0.00     0.007 A 
HETATM   27  C   UNL     1     -39.759  49.590 -54.046  1.00  0.00     0.001 A 
HETATM   28  C   UNL     1     -39.522  49.466 -52.680  1.00  0.00     0.000 A 
HETATM   29  C   UNL     1     -39.478  50.601 -51.877  1.00  0.00     0.001 A 
HETATM   30  C   UNL     1     -39.669  51.867 -52.437  1.00  0.00     0.007 A 
ENDBRANCH  24  25
ENDBRANCH   1  24
BRANCH   6  31
HETATM   31  C   UNL     1     -43.577  56.234 -56.532  1.00  0.00     0.200 C 
BRANCH  31  32
HETATM   32  C   UNL     1     -42.868  57.408 -57.101  1.00  0.00     0.070 A 
HETATM   33  O   UNL     1     -42.773  57.454 -58.466  1.00  0.00    -0.325 OA
HETATM   34  C   UNL     1     -42.104  58.597 -58.773  1.00  0.00     0.142 A 
HETATM   35  C   UNL     1     -41.775  59.284 -57.628  1.00  0.00     0.027 A 
HETATM   36  C   UNL     1     -42.268  58.518 -56.546  1.00  0.00     0.036 A 
ENDBRANCH  31  32
ENDBRANCH   6  31
TORSDOF 6
ENDMDL
MODEL 2
REMARK VINA RESULT:      -9.2      2.300      3.206
REMARK  6 active torsions:
REMARK  status: ('A' for Active; 'I' for Inactive)
REMARK    1  A    between atoms: C_4  and  C_5 
REMARK    2  A    between atoms: C_5  and  C_6 
REMARK    3  A    between atoms: C_10  and  C_11 
REMARK    4  A    between atoms: C_10  and  C_15 
REMARK    5  A    between atoms: N_19  and  C_20 
REMARK    6  A    between atoms: C_20  and  C_21 
ROOT
HETATM    1  C   UNL     1     -41.294  55.158 -55.310  1.00  0.00     0.084 C 
HETATM    2  N   UNL     1     -41.769  55.630 -56.442  1.00  0.00    -0.331 N 
HETATM    3  C   UNL     1     -42.487  56.801 -56.525  1.00  0.00     0.128 C 
HETATM    4  C   UNL     1     -42.820  57.441 -55.395  1.00  0.00     0.100 C 
HETATM    5  C   UNL     1     -42.477  56.954 -54.008  1.00  0.00     0.264 C 
HETATM    6  N   UNL     1     -42.844  57.292 -57.771  1.00  0.00    -0.278 N 
HETATM    7  C   UNL     1     -43.637  58.423 -57.911  1.00  0.00     0.331 C 
HETATM    8  O   UNL     1     -43.984  58.897 -58.986  1.00  0.00    -0.246 OA
HETATM    9  N   UNL     1     -44.015  59.027 -56.750  1.00  0.00    -0.275 N 
HETATM   10  C   UNL     1     -43.594  58.681 -55.512  1.00  0.00     0.262 C 
HETATM   11  O   UNL     1     -43.828  59.349 -54.519  1.00  0.00    -0.267 OA
HETATM   12  N   UNL     1     -41.529  55.750 -54.159  1.00  0.00    -0.351 N 
HETATM   13  H   UNL     1     -41.120  55.357 -53.306  1.00  0.00     0.162 HD
HETATM   14  H   UNL     1     -41.615  55.069 -57.282  1.00  0.00     0.168 HD
HETATM   15  H   UNL     1     -44.549  59.884 -56.846  1.00  0.00     0.173 HD
ENDROOT
BRANCH   5  16
HETATM   16  C   UNL     1     -43.707  56.462 -53.239  1.00  0.00     0.426 C 
HETATM   17  F   UNL     1     -44.546  55.831 -54.106  1.00  0.00    -0.168 F 
HETATM   18  F   UNL     1     -43.348  55.532 -52.323  1.00  0.00    -0.168 F 
HETATM   19  F   UNL     1     -44.417  57.413 -52.622  1.00  0.00    -0.168 F 
ENDBRANCH   5  16
BRANCH   5  20
HETATM   20  C   UNL     1     -41.774  57.957 -53.086  1.00  0.00     0.426 C 
HETATM   21  F   UNL     1     -40.918  58.724 -53.805  1.00  0.00    -0.168 F 
HETATM   22  F   UNL     1     -42.566  58.758 -52.367  1.00  0.00    -0.168 F 
HETATM   23  F   UNL     1     -41.001  57.265 -52.202  1.00  0.00    -0.168 F 
ENDBRANCH   5  20
BRANCH   1  24
HETATM   24  C   UNL     1     -40.450  53.925 -55.333  1.00  0.00     0.114 C 
BRANCH  24  25
HETATM   25  C   UNL     1     -40.299  53.223 -54.004  1.00  0.00    -0.051 A 
HETATM   26  C   UNL     1     -39.867  51.886 -53.986  1.00  0.00     0.007 A 
HETATM   27  C   UNL     1     -39.647  51.223 -52.777  1.00  0.00     0.001 A 
HETATM   28  C   UNL     1     -39.848  51.889 -51.572  1.00  0.00     0.000 A 
HETATM   29  C   UNL     1     -40.266  53.215 -51.573  1.00  0.00     0.001 A 
HETATM   30  C   UNL     1     -40.484  53.883 -52.780  1.00  0.00     0.007 A 
ENDBRANCH  24  25
ENDBRANCH   1  24
BRANCH   6  31
HETATM   31  C   UNL     1     -42.394  56.666 -59.019  1.00  0.00     0.200 C 
BRANCH  31  32
HETATM   32  C   UNL     1     -43.463  55.783 -59.551  1.00  0.00     0.070 A 
HETATM   33  O   UNL     1     -43.951  56.103 -60.790  1.00  0.00    -0.325 OA
HETATM   34  C   UNL     1     -44.901  55.177 -61.087  1.00  0.00     0.142 A 
HETATM   35  C   UNL     1     -45.025  54.268 -60.062  1.00  0.00     0.027 A 
HETATM   36  C   UNL     1     -44.096  54.658 -59.068  1.00  0.00     0.036 A 
ENDBRANCH  31  32
ENDBRANCH   6  31
TORSDOF 6
ENDMDL
MODEL 3
REMARK VINA RESULT:      -8.9      2.358      3.276
REMARK  6 active torsions:
REMARK  status: ('A' for Active; 'I' for Inactive)
REMARK    1  A    between atoms: C_4  and  C_5 
REMARK    2  A    between atoms: C_5  and  C_6 
REMARK    3  A    between atoms: C_10  and  C_11 
REMARK    4  A    between atoms: C_10  and  C_15 
REMARK    5  A    between atoms: N_19  and  C_20 
REMARK    6  A    between atoms: C_20  and  C_21 
ROOT
HETATM    1  C   UNL     1     -42.865  55.880 -53.400  1.00  0.00     0.084 C 
HETATM    2  N   UNL     1     -42.767  56.538 -54.535  1.00  0.00    -0.331 N 
HETATM    3  C   UNL     1     -42.466  57.879 -54.603  1.00  0.00     0.128 C 
HETATM    4  C   UNL     1     -42.377  58.583 -53.465  1.00  0.00     0.100 C 
HETATM    5  C   UNL     1     -42.605  58.008 -52.087  1.00  0.00     0.264 C 
HETATM    6  N   UNL     1     -42.259  58.468 -55.840  1.00  0.00    -0.278 N 
HETATM    7  C   UNL     1     -42.034  59.831 -55.972  1.00  0.00     0.331 C 
HETATM    8  O   UNL     1     -41.848  60.402 -57.040  1.00  0.00    -0.246 OA
HETATM    9  N   UNL     1     -42.004  60.541 -54.810  1.00  0.00    -0.275 N 
HETATM   10  C   UNL     1     -42.065  60.012 -53.566  1.00  0.00     0.262 C 
HETATM   11  O   UNL     1     -41.871  60.666 -52.555  1.00  0.00    -0.267 OA
HETATM   12  N   UNL     1     -42.741  56.482 -52.237  1.00  0.00    -0.351 N 
HETATM   13  H   UNL     1     -42.804  55.924 -51.380  1.00  0.00     0.162 HD
HETATM   14  H   UNL     1     -42.960  56.018 -55.393  1.00  0.00     0.168 HD
HETATM   15  H   UNL     1     -41.786  61.527 -54.894  1.00  0.00     0.173 HD
ENDROOT
BRANCH   5  16
HETATM   16  C   UNL     1     -43.904  58.513 -51.451  1.00  0.00     0.426 C 
HETATM   17  F   UNL     1     -44.809  58.766 -52.435  1.00  0.00    -0.168 F 
HETATM   18  F   UNL     1     -44.454  57.549 -50.676  1.00  0.00    -0.168 F 
HETATM   19  F   UNL     1     -43.790  59.629 -50.721  1.00  0.00    -0.168 F 
ENDBRANCH   5  16
BRANCH   5  20
HETATM   20  C   UNL     1     -41.501  58.255 -51.053  1.00  0.00     0.426 C 
HETATM   21  F   UNL     1     -40.290  58.259 -51.662  1.00  0.00    -0.168 F 
HETATM   22  F   UNL     1     -41.615  59.364 -50.317  1.00  0.00    -0.168 F 
HETATM   23  F   UNL     1     -41.479  57.203 -50.185  1.00  0.00    -0.168 F 
ENDBRANCH   5  20
BRANCH   1  24
HETATM   24  C   UNL     1     -43.108  54.406 -53.433  1.00  0.00     0.114 C 
BRANCH  24  25
HETATM   25  C   UNL     1     -41.870  53.547 -53.324  1.00  0.00    -0.051 A 
HETATM   26  C   UNL     1     -41.215  53.452 -52.085  1.00  0.00     0.007 A 
HETATM   27  C   UNL     1     -40.109  52.614 -51.924  1.00  0.00     0.001 A 
HETATM   28  C   UNL     1     -39.650  51.854 -52.996  1.00  0.00     0.000 A 
HETATM   29  C   UNL     1     -40.295  51.929 -54.226  1.00  0.00     0.001 A 
HETATM   30  C   UNL     1     -41.403  52.764 -54.390  1.00  0.00     0.007 A 
ENDBRANCH  24  25
ENDBRANCH   1  24
BRANCH   6  31
HETATM   31  C   UNL     1     -42.243  57.691 -57.085  1.00  0.00     0.200 C 
BRANCH  31  32
HETATM   32  C   UNL     1     -43.602  57.678 -57.684  1.00  0.00     0.070 A 
HETATM   33  O   UNL     1     -43.726  57.036 -58.887  1.00  0.00    -0.325 OA
HETATM   34  C   UNL     1     -45.033  57.133 -59.249  1.00  0.00     0.142 A 
HETATM   35  C   UNL     1     -45.747  57.821 -58.296  1.00  0.00     0.027 A 
HETATM   36  C   UNL     1     -44.824  58.174 -57.283  1.00  0.00     0.036 A 
ENDBRANCH  31  32
ENDBRANCH   6  31
TORSDOF 6
ENDMDL
MODEL 4
REMARK VINA RESULT:      -8.6      3.074      5.750
REMARK  6 active torsions:
REMARK  status: ('A' for Active; 'I' for Inactive)
REMARK    1  A    between atoms: C_4  and  C_5 
REMARK    2  A    between atoms: C_5  and  C_6 
REMARK    3  A    between atoms: C_10  and  C_11 
REMARK    4  A    between atoms: C_10  and  C_15 
REMARK    5  A    between atoms: N_19  and  C_20 
REMARK    6  A    between atoms: C_20  and  C_21 
ROOT
HETATM    1  C   UNL     1     -42.149  57.125 -56.342  1.00  0.00     0.084 C 
HETATM    2  N   UNL     1     -42.251  57.960 -55.331  1.00  0.00    -0.331 N 
HETATM    3  C   UNL     1     -41.948  57.612 -54.035  1.00  0.00     0.128 C 
HETATM    4  C   UNL     1     -41.640  56.336 -53.760  1.00  0.00     0.100 C 
HETATM    5  C   UNL     1     -41.621  55.225 -54.783  1.00  0.00     0.264 C 
HETATM    6  N   UNL     1     -41.963  58.585 -53.048  1.00  0.00    -0.278 N 
HETATM    7  C   UNL     1     -41.745  58.274 -51.713  1.00  0.00     0.331 C 
HETATM    8  O   UNL     1     -41.750  59.094 -50.801  1.00  0.00    -0.246 OA
HETATM    9  N   UNL     1     -41.493  56.963 -51.444  1.00  0.00    -0.275 N 
HETATM   10  C   UNL     1     -41.332  55.990 -52.369  1.00  0.00     0.262 C 
HETATM   11  O   UNL     1     -40.946  54.866 -52.093  1.00  0.00    -0.267 OA
HETATM   12  N   UNL     1     -41.804  55.867 -56.170  1.00  0.00    -0.351 N 
HETATM   13  H   UNL     1     -41.717  55.260 -56.990  1.00  0.00     0.162 HD
HETATM   14  H   UNL     1     -42.606  58.897 -55.535  1.00  0.00     0.168 HD
HETATM   15  H   UNL     1     -41.279  56.738 -50.479  1.00  0.00     0.173 HD
ENDROOT
BRANCH   5  16
HETATM   16  C   UNL     1     -42.773  54.234 -54.593  1.00  0.00     0.426 C 
HETATM   17  F   UNL     1     -43.368  54.012 -55.797  1.00  0.00    -0.168 F 
HETATM   18  F   UNL     1     -42.298  53.034 -54.184  1.00  0.00    -0.168 F 
HETATM   19  F   UNL     1     -43.731  54.622 -53.743  1.00  0.00    -0.168 F 
ENDBRANCH   5  16
BRANCH   5  20
HETATM   20  C   UNL     1     -40.342  54.382 -54.851  1.00  0.00     0.426 C 
HETATM   21  F   UNL     1     -39.256  55.193 -54.899  1.00  0.00    -0.168 F 
HETATM   22  F   UNL     1     -40.168  53.489 -53.873  1.00  0.00    -0.168 F 
HETATM   23  F   UNL     1     -40.342  53.691 -56.026  1.00  0.00    -0.168 F 
ENDBRANCH   5  20
BRANCH   1  24
HETATM   24  C   UNL     1     -42.415  57.622 -57.726  1.00  0.00     0.114 C 
BRANCH  24  25
HETATM   25  C   UNL     1     -43.467  56.857 -58.494  1.00  0.00    -0.051 A 
HETATM   26  C   UNL     1     -44.750  57.412 -58.627  1.00  0.00     0.007 A 
HETATM   27  C   UNL     1     -45.730  56.771 -59.388  1.00  0.00     0.001 A 
HETATM   28  C   UNL     1     -45.437  55.573 -60.033  1.00  0.00     0.000 A 
HETATM   29  C   UNL     1     -44.168  55.016 -59.919  1.00  0.00     0.001 A 
HETATM   30  C   UNL     1     -43.184  55.656 -59.161  1.00  0.00     0.007 A 
ENDBRANCH  24  25
ENDBRANCH   1  24
BRANCH   6  31
HETATM   31  C   UNL     1     -42.187  60.003 -53.349  1.00  0.00     0.200 C 
BRANCH  31  32
HETATM   32  C   UNL     1     -43.645  60.271 -53.440  1.00  0.00     0.070 A 
HETATM   33  O   UNL     1     -44.179  60.293 -54.700  1.00  0.00    -0.325 OA
HETATM   34  C   UNL     1     -45.508  60.543 -54.557  1.00  0.00     0.142 A 
HETATM   35  C   UNL     1     -45.833  60.676 -53.228  1.00  0.00     0.027 A 
HETATM   36  C   UNL     1     -44.630  60.500 -52.503  1.00  0.00     0.036 A 
ENDBRANCH  31  32
ENDBRANCH   6  31
TORSDOF 6
ENDMDL
MODEL 5
REMARK VINA RESULT:      -8.5      4.421      6.388
REMARK  6 active torsions:
REMARK  status: ('A' for Active; 'I' for Inactive)
REMARK    1  A    between atoms: C_4  and  C_5 
REMARK    2  A    between atoms: C_5  and  C_6 
REMARK    3  A    between atoms: C_10  and  C_11 
REMARK    4  A    between atoms: C_10  and  C_15 
REMARK    5  A    between atoms: N_19  and  C_20 
REMARK    6  A    between atoms: C_20  and  C_21 
ROOT
HETATM    1  C   UNL     1     -43.479  55.341 -56.563  1.00  0.00     0.084 C 
HETATM    2  N   UNL     1     -43.576  56.428 -55.826  1.00  0.00    -0.331 N 
HETATM    3  C   UNL     1     -43.962  57.647 -56.333  1.00  0.00     0.128 C 
HETATM    4  C   UNL     1     -44.142  57.773 -57.656  1.00  0.00     0.100 C 
HETATM    5  C   UNL     1     -43.930  56.661 -58.655  1.00  0.00     0.264 C 
HETATM    6  N   UNL     1     -44.159  58.711 -55.467  1.00  0.00    -0.278 N 
HETATM    7  C   UNL     1     -44.469  59.982 -55.931  1.00  0.00     0.331 C 
HETATM    8  O   UNL     1     -44.650  60.957 -55.211  1.00  0.00    -0.246 OA
HETATM    9  N   UNL     1     -44.590  60.105 -57.282  1.00  0.00    -0.275 N 
HETATM   10  C   UNL     1     -44.544  59.086 -58.170  1.00  0.00     0.262 C 
HETATM   11  O   UNL     1     -44.820  59.219 -59.351  1.00  0.00    -0.267 OA
HETATM   12  N   UNL     1     -43.688  55.364 -57.861  1.00  0.00    -0.351 N 
HETATM   13  H   UNL     1     -43.622  54.489 -58.390  1.00  0.00     0.162 HD
HETATM   14  H   UNL     1     -43.315  56.347 -54.841  1.00  0.00     0.168 HD
HETATM   15  H   UNL     1     -44.870  61.018 -57.624  1.00  0.00     0.173 HD
ENDROOT
BRANCH   5  16
HETATM   16  C   UNL     1     -42.694  56.888 -59.530  1.00  0.00     0.426 C 
HETATM   17  F   UNL     1     -41.756  57.556 -58.804  1.00  0.00    -0.168 F 
HETATM   18  F   UNL     1     -42.131  55.703 -59.866  1.00  0.00    -0.168 F 
HETATM   19  F   UNL     1     -42.903  57.590 -60.649  1.00  0.00    -0.168 F 
ENDBRANCH   5  16
BRANCH   5  20
HETATM   20  C   UNL     1     -45.087  56.380 -59.620  1.00  0.00     0.426 C 
HETATM   21  F   UNL     1     -46.269  56.674 -59.023  1.00  0.00    -0.168 F 
HETATM   22  F   UNL     1     -45.038  57.000 -60.802  1.00  0.00    -0.168 F 
HETATM   23  F   UNL     1     -45.123  55.041 -59.875  1.00  0.00    -0.168 F 
ENDBRANCH   5  20
BRANCH   1  24
HETATM   24  C   UNL     1     -43.138  54.044 -55.904  1.00  0.00     0.114 C 
BRANCH  24  25
HETATM   25  C   UNL     1     -42.495  54.163 -54.542  1.00  0.00    -0.051 A 
HETATM   26  C   UNL     1     -43.318  54.294 -53.411  1.00  0.00     0.007 A 
HETATM   27  C   UNL     1     -42.768  54.335 -52.128  1.00  0.00     0.001 A 
HETATM   28  C   UNL     1     -41.390  54.237 -51.959  1.00  0.00     0.000 A 
HETATM   29  C   UNL     1     -40.563  54.096 -53.068  1.00  0.00     0.001 A 
HETATM   30  C   UNL     1     -41.110  54.051 -54.353  1.00  0.00     0.007 A 
ENDBRANCH  24  25
ENDBRANCH   1  24
BRANCH   6  31
HETATM   31  C   UNL     1     -44.075  58.562 -54.010  1.00  0.00     0.200 C 
BRANCH  31  32
HETATM   32  C   UNL     1     -42.657  58.658 -53.578  1.00  0.00     0.070 A 
HETATM   33  O   UNL     1     -41.955  57.484 -53.544  1.00  0.00    -0.325 OA
HETATM   34  C   UNL     1     -40.695  57.794 -53.136  1.00  0.00     0.142 A 
HETATM   35  C   UNL     1     -40.580  59.146 -52.914  1.00  0.00     0.027 A 
HETATM   36  C   UNL     1     -41.847  59.707 -53.200  1.00  0.00     0.036 A 
ENDBRANCH  31  32
ENDBRANCH   6  31
TORSDOF 6
ENDMDL
MODEL 6
REMARK VINA RESULT:      -8.5      3.105      5.647
REMARK  6 active torsions:
REMARK  status: ('A' for Active; 'I' for Inactive)
REMARK    1  A    between atoms: C_4  and  C_5 
REMARK    2  A    between atoms: C_5  and  C_6 
REMARK    3  A    between atoms: C_10  and  C_11 
REMARK    4  A    between atoms: C_10  and  C_15 
REMARK    5  A    between atoms: N_19  and  C_20 
REMARK    6  A    between atoms: C_20  and  C_21 
ROOT
HETATM    1  C   UNL     1     -43.183  57.402 -55.920  1.00  0.00     0.084 C 
HETATM    2  N   UNL     1     -43.970  57.926 -55.005  1.00  0.00    -0.331 N 
HETATM    3  C   UNL     1     -43.956  57.532 -53.686  1.00  0.00     0.128 C 
HETATM    4  C   UNL     1     -43.191  56.491 -53.328  1.00  0.00     0.100 C 
HETATM    5  C   UNL     1     -42.340  55.690 -54.284  1.00  0.00     0.264 C 
HETATM    6  N   UNL     1     -44.728  58.220 -52.763  1.00  0.00    -0.278 N 
HETATM    7  C   UNL     1     -44.815  57.815 -51.438  1.00  0.00     0.331 C 
HETATM    8  O   UNL     1     -45.484  58.384 -50.583  1.00  0.00    -0.246 OA
HETATM    9  N   UNL     1     -44.077  56.720 -51.104  1.00  0.00    -0.275 N 
HETATM   10  C   UNL     1     -43.203  56.085 -51.918  1.00  0.00     0.262 C 
HETATM   11  O   UNL     1     -42.444  55.213 -51.530  1.00  0.00    -0.267 OA
HETATM   12  N   UNL     1     -42.364  56.411 -55.643  1.00  0.00    -0.351 N 
HETATM   13  H   UNL     1     -41.754  56.050 -56.384  1.00  0.00     0.162 HD
HETATM   14  H   UNL     1     -44.639  58.634 -55.315  1.00  0.00     0.168 HD
HETATM   15  H   UNL     1     -44.093  56.452 -50.127  1.00  0.00     0.173 HD
ENDROOT
BRANCH   5  16
HETATM   16  C   UNL     1     -42.891  54.279 -54.516  1.00  0.00     0.426 C 
HETATM   17  F   UNL     1     -44.219  54.270 -54.220  1.00  0.00    -0.168 F 
HETATM   18  F   UNL     1     -42.797  53.947 -55.825  1.00  0.00    -0.168 F 
HETATM   19  F   UNL     1     -42.317  53.312 -53.791  1.00  0.00    -0.168 F 
ENDBRANCH   5  16
BRANCH   5  20
HETATM   20  C   UNL     1     -40.866  55.512 -53.902  1.00  0.00     0.426 C 
HETATM   21  F   UNL     1     -40.354  56.693 -53.474  1.00  0.00    -0.168 F 
HETATM   22  F   UNL     1     -40.598  54.574 -52.990  1.00  0.00    -0.168 F 
HETATM   23  F   UNL     1     -40.165  55.188 -55.025  1.00  0.00    -0.168 F 
ENDBRANCH   5  20
BRANCH   1  24
HETATM   24  C   UNL     1     -43.208  57.959 -57.306  1.00  0.00     0.114 C 
BRANCH  24  25
HETATM   25  C   UNL     1     -43.932  57.112 -58.327  1.00  0.00    -0.051 A 
HETATM   26  C   UNL     1     -45.234  57.473 -58.710  1.00  0.00     0.007 A 
HETATM   27  C   UNL     1     -45.910  56.759 -59.701  1.00  0.00     0.001 A 
HETATM   28  C   UNL     1     -45.291  55.682 -60.329  1.00  0.00     0.000 A 
HETATM   29  C   UNL     1     -43.997  55.320 -59.968  1.00  0.00     0.001 A 
HETATM   30  C   UNL     1     -43.316  56.033 -58.979  1.00  0.00     0.007 A 
ENDBRANCH  24  25
ENDBRANCH   1  24
BRANCH   6  31
HETATM   31  C   UNL     1     -45.483  59.427 -53.117  1.00  0.00     0.200 C 
BRANCH  31  32
HETATM   32  C   UNL     1     -44.586  60.609 -53.075  1.00  0.00     0.070 A 
HETATM   33  O   UNL     1     -44.007  60.972 -54.262  1.00  0.00    -0.325 OA
HETATM   34  C   UNL     1     -43.243  62.067 -54.006  1.00  0.00     0.142 A 
HETATM   35  C   UNL     1     -43.327  62.412 -52.678  1.00  0.00     0.027 A 
HETATM   36  C   UNL     1     -44.195  61.472 -52.074  1.00  0.00     0.036 A 
ENDBRANCH  31  32
ENDBRANCH   6  31
TORSDOF 6
ENDMDL
MODEL 7
REMARK VINA RESULT:      -8.2      4.143      6.295
REMARK  6 active torsions:
REMARK  status: ('A' for Active; 'I' for Inactive)
REMARK    1  A    between atoms: C_4  and  C_5 
REMARK    2  A    between atoms: C_5  and  C_6 
REMARK    3  A    between atoms: C_10  and  C_11 
REMARK    4  A    between atoms: C_10  and  C_15 
REMARK    5  A    between atoms: N_19  and  C_20 
REMARK    6  A    between atoms: C_20  and  C_21 
ROOT
HETATM    1  C   UNL     1     -43.072  55.536 -56.234  1.00  0.00     0.084 C 
HETATM    2  N   UNL     1     -42.666  56.474 -55.405  1.00  0.00    -0.331 N 
HETATM    3  C   UNL     1     -42.775  57.818 -55.680  1.00  0.00     0.128 C 
HETATM    4  C   UNL     1     -43.210  58.201 -56.889  1.00  0.00     0.100 C 
HETATM    5  C   UNL     1     -43.578  57.249 -58.003  1.00  0.00     0.264 C 
HETATM    6  N   UNL     1     -42.438  58.741 -54.702  1.00  0.00    -0.278 N 
HETATM    7  C   UNL     1     -42.451  60.106 -54.952  1.00  0.00     0.331 C 
HETATM    8  O   UNL     1     -42.160  60.964 -54.126  1.00  0.00    -0.246 OA
HETATM    9  N   UNL     1     -42.839  60.475 -56.205  1.00  0.00    -0.275 N 
HETATM   10  C   UNL     1     -43.307  59.639 -57.159  1.00  0.00     0.262 C 
HETATM   11  O   UNL     1     -43.796  60.030 -58.205  1.00  0.00    -0.267 OA
HETATM   12  N   UNL     1     -43.559  55.824 -57.421  1.00  0.00    -0.351 N 
HETATM   13  H   UNL     1     -43.883  55.061 -58.023  1.00  0.00     0.162 HD
HETATM   14  H   UNL     1     -42.221  56.168 -54.538  1.00  0.00     0.168 HD
HETATM   15  H   UNL     1     -42.903  61.472 -56.376  1.00  0.00     0.173 HD
ENDROOT
BRANCH   5  16
HETATM   16  C   UNL     1     -42.568  57.277 -59.154  1.00  0.00     0.426 C 
HETATM   17  F   UNL     1     -42.306  55.999 -59.541  1.00  0.00    -0.168 F 
HETATM   18  F   UNL     1     -43.103  57.893 -60.234  1.00  0.00    -0.168 F 
HETATM   19  F   UNL     1     -41.394  57.855 -58.875  1.00  0.00    -0.168 F 
ENDBRANCH   5  16
BRANCH   5  20
HETATM   20  C   UNL     1     -44.957  57.448 -58.643  1.00  0.00     0.426 C 
HETATM   21  F   UNL     1     -45.876  57.722 -57.684  1.00  0.00    -0.168 F 
HETATM   22  F   UNL     1     -45.040  58.381 -59.595  1.00  0.00    -0.168 F 
HETATM   23  F   UNL     1     -45.346  56.269 -59.206  1.00  0.00    -0.168 F 
ENDBRANCH   5  20
BRANCH   1  24
HETATM   24  C   UNL     1     -42.993  54.106 -55.808  1.00  0.00     0.114 C 
BRANCH  24  25
HETATM   25  C   UNL     1     -42.336  53.868 -54.469  1.00  0.00    -0.051 A 
HETATM   26  C   UNL     1     -41.019  53.379 -54.435  1.00  0.00     0.007 A 
HETATM   27  C   UNL     1     -40.351  53.213 -53.220  1.00  0.00     0.001 A 
HETATM   28  C   UNL     1     -40.985  53.541 -52.026  1.00  0.00     0.000 A 
HETATM   29  C   UNL     1     -42.285  54.036 -52.044  1.00  0.00     0.001 A 
HETATM   30  C   UNL     1     -42.956  54.207 -53.257  1.00  0.00     0.007 A 
ENDBRANCH  24  25
ENDBRANCH   1  24
BRANCH   6  31
HETATM   31  C   UNL     1     -42.068  58.341 -53.341  1.00  0.00     0.200 C 
BRANCH  31  32
HETATM   32  C   UNL     1     -43.277  58.315 -52.479  1.00  0.00     0.070 A 
HETATM   33  O   UNL     1     -43.452  59.390 -51.650  1.00  0.00    -0.325 OA
HETATM   34  C   UNL     1     -44.607  59.172 -50.966  1.00  0.00     0.142 A 
HETATM   35  C   UNL     1     -45.175  57.980 -51.348  1.00  0.00     0.027 A 
HETATM   36  C   UNL     1     -44.318  57.424 -52.327  1.00  0.00     0.036 A 
ENDBRANCH  31  32
ENDBRANCH   6  31
TORSDOF 6
ENDMDL
MODEL 8
REMARK VINA RESULT:      -8.2      2.421      3.524
REMARK  6 active torsions:
REMARK  status: ('A' for Active; 'I' for Inactive)
REMARK    1  A    between atoms: C_4  and  C_5 
REMARK    2  A    between atoms: C_5  and  C_6 
REMARK    3  A    between atoms: C_10  and  C_11 
REMARK    4  A    between atoms: C_10  and  C_15 
REMARK    5  A    between atoms: N_19  and  C_20 
REMARK    6  A    between atoms: C_20  and  C_21 
ROOT
HETATM    1  C   UNL     1     -43.535  56.131 -54.311  1.00  0.00     0.084 C 
HETATM    2  N   UNL     1     -44.127  56.799 -55.278  1.00  0.00    -0.331 N 
HETATM    3  C   UNL     1     -44.046  58.167 -55.405  1.00  0.00     0.128 C 
HETATM    4  C   UNL     1     -43.433  58.873 -54.444  1.00  0.00     0.100 C 
HETATM    5  C   UNL     1     -42.829  58.271 -53.198  1.00  0.00     0.264 C 
HETATM    6  N   UNL     1     -44.594  58.779 -56.521  1.00  0.00    -0.278 N 
HETATM    7  C   UNL     1     -44.614  60.160 -56.660  1.00  0.00     0.331 C 
HETATM    8  O   UNL     1     -45.088  60.752 -57.623  1.00  0.00    -0.246 OA
HETATM    9  N   UNL     1     -44.039  60.865 -55.647  1.00  0.00    -0.275 N 
HETATM   10  C   UNL     1     -43.370  60.330 -54.600  1.00  0.00     0.262 C 
HETATM   11  O   UNL     1     -42.732  61.000 -53.805  1.00  0.00    -0.267 OA
HETATM   12  N   UNL     1     -42.869  56.741 -53.355  1.00  0.00    -0.351 N 
HETATM   13  H   UNL     1     -42.406  56.177 -52.635  1.00  0.00     0.162 HD
HETATM   14  H   UNL     1     -44.696  56.261 -55.935  1.00  0.00     0.168 HD
HETATM   15  H   UNL     1     -44.000  61.871 -55.768  1.00  0.00     0.173 HD
ENDROOT
BRANCH   5  16
HETATM   16  C   UNL     1     -43.628  58.614 -51.937  1.00  0.00     0.426 C 
HETATM   17  F   UNL     1     -43.601  57.545 -51.094  1.00  0.00    -0.168 F 
HETATM   18  F   UNL     1     -43.038  59.632 -51.268  1.00  0.00    -0.168 F 
HETATM   19  F   UNL     1     -44.913  58.927 -52.138  1.00  0.00    -0.168 F 
ENDBRANCH   5  16
BRANCH   5  20
HETATM   20  C   UNL     1     -41.374  58.648 -52.894  1.00  0.00     0.426 C 
HETATM   21  F   UNL     1     -40.663  58.713 -54.047  1.00  0.00    -0.168 F 
HETATM   22  F   UNL     1     -41.184  59.779 -52.209  1.00  0.00    -0.168 F 
HETATM   23  F   UNL     1     -40.810  57.642 -52.166  1.00  0.00    -0.168 F 
ENDBRANCH   5  20
BRANCH   1  24
HETATM   24  C   UNL     1     -43.607  54.638 -54.308  1.00  0.00     0.114 C 
BRANCH  24  25
HETATM   25  C   UNL     1     -42.454  53.939 -53.626  1.00  0.00    -0.051 A 
HETATM   26  C   UNL     1     -41.452  53.350 -54.416  1.00  0.00     0.007 A 
HETATM   27  C   UNL     1     -40.335  52.757 -53.825  1.00  0.00     0.001 A 
HETATM   28  C   UNL     1     -40.199  52.752 -52.440  1.00  0.00     0.000 A 
HETATM   29  C   UNL     1     -41.177  53.341 -51.646  1.00  0.00     0.001 A 
HETATM   30  C   UNL     1     -42.296  53.938 -52.232  1.00  0.00     0.007 A 
ENDBRANCH  24  25
ENDBRANCH   1  24
BRANCH   6  31
HETATM   31  C   UNL     1     -45.169  58.013 -57.632  1.00  0.00     0.200 C 
BRANCH  31  32
HETATM   32  C   UNL     1     -44.083  57.529 -58.522  1.00  0.00     0.070 A 
HETATM   33  O   UNL     1     -43.742  56.209 -58.396  1.00  0.00    -0.325 OA
HETATM   34  C   UNL     1     -42.748  55.975 -59.295  1.00  0.00     0.142 A 
HETATM   35  C   UNL     1     -42.453  57.121 -59.995  1.00  0.00     0.027 A 
HETATM   36  C   UNL     1     -43.315  58.127 -59.498  1.00  0.00     0.036 A 
ENDBRANCH  31  32
ENDBRANCH   6  31
TORSDOF 6
ENDMDL
MODEL 9
REMARK VINA RESULT:      -8.1      3.033      6.113
REMARK  6 active torsions:
REMARK  status: ('A' for Active; 'I' for Inactive)
REMARK    1  A    between atoms: C_4  and  C_5 
REMARK    2  A    between atoms: C_5  and  C_6 
REMARK    3  A    between atoms: C_10  and  C_11 
REMARK    4  A    between atoms: C_10  and  C_15 
REMARK    5  A    between atoms: N_19  and  C_20 
REMARK    6  A    between atoms: C_20  and  C_21 
ROOT
HETATM    1  C   UNL     1     -41.756  57.730 -52.904  1.00  0.00     0.084 C 
HETATM    2  N   UNL     1     -41.776  58.480 -53.985  1.00  0.00    -0.331 N 
HETATM    3  C   UNL     1     -42.055  57.985 -55.238  1.00  0.00     0.128 C 
HETATM    4  C   UNL     1     -42.204  56.662 -55.395  1.00  0.00     0.100 C 
HETATM    5  C   UNL     1     -42.068  55.651 -54.282  1.00  0.00     0.264 C 
HETATM    6  N   UNL     1     -42.178  58.863 -56.304  1.00  0.00    -0.278 N 
HETATM    7  C   UNL     1     -42.377  58.413 -57.601  1.00  0.00     0.331 C 
HETATM    8  O   UNL     1     -42.490  59.144 -58.578  1.00  0.00    -0.246 OA
HETATM    9  N   UNL     1     -42.468  57.062 -57.751  1.00  0.00    -0.275 N 
HETATM   10  C   UNL     1     -42.490  56.161 -56.743  1.00  0.00     0.262 C 
HETATM   11  O   UNL     1     -42.737  54.978 -56.913  1.00  0.00    -0.267 OA
HETATM   12  N   UNL     1     -41.943  56.430 -52.960  1.00  0.00    -0.351 N 
HETATM   13  H   UNL     1     -41.940  55.890 -52.089  1.00  0.00     0.162 HD
HETATM   14  H   UNL     1     -41.538  59.468 -53.870  1.00  0.00     0.168 HD
HETATM   15  H   UNL     1     -42.667  56.729 -58.688  1.00  0.00     0.173 HD
ENDROOT
BRANCH   5  16
HETATM   16  C   UNL     1     -40.804  54.797 -54.419  1.00  0.00     0.426 C 
HETATM   17  F   UNL     1     -39.804  55.566 -54.929  1.00  0.00    -0.168 F 
HETATM   18  F   UNL     1     -40.377  54.388 -53.201  1.00  0.00    -0.168 F 
HETATM   19  F   UNL     1     -40.919  53.723 -55.209  1.00  0.00    -0.168 F 
ENDBRANCH   5  16
BRANCH   5  20
HETATM   20  C   UNL     1     -43.229  54.666 -54.108  1.00  0.00     0.426 C 
HETATM   21  F   UNL     1     -44.408  55.295 -54.342  1.00  0.00    -0.168 F 
HETATM   22  F   UNL     1     -43.181  53.555 -54.849  1.00  0.00    -0.168 F 
HETATM   23  F   UNL     1     -43.271  54.272 -52.804  1.00  0.00    -0.168 F 
ENDBRANCH   5  20
BRANCH   1  24
HETATM   24  C   UNL     1     -41.532  58.375 -51.575  1.00  0.00     0.114 C 
BRANCH  24  25
HETATM   25  C   UNL     1     -42.663  59.248 -51.083  1.00  0.00    -0.051 A 
HETATM   26  C   UNL     1     -43.984  58.791 -51.222  1.00  0.00     0.007 A 
HETATM   27  C   UNL     1     -45.053  59.534 -50.717  1.00  0.00     0.001 A 
HETATM   28  C   UNL     1     -44.816  60.738 -50.060  1.00  0.00     0.000 A 
HETATM   29  C   UNL     1     -43.512  61.198 -49.906  1.00  0.00     0.001 A 
HETATM   30  C   UNL     1     -42.439  60.456 -50.406  1.00  0.00     0.007 A 
ENDBRANCH  24  25
ENDBRANCH   1  24
BRANCH   6  31
HETATM   31  C   UNL     1     -42.128  60.319 -56.129  1.00  0.00     0.200 C 
BRANCH  31  32
HETATM   32  C   UNL     1     -43.274  60.763 -55.295  1.00  0.00     0.070 A 
HETATM   33  O   UNL     1     -42.959  61.418 -54.135  1.00  0.00    -0.325 OA
HETATM   34  C   UNL     1     -44.136  61.740 -53.536  1.00  0.00     0.142 A 
HETATM   35  C   UNL     1     -45.197  61.308 -54.296  1.00  0.00     0.027 A 
HETATM   36  C   UNL     1     -44.642  60.676 -55.434  1.00  0.00     0.036 A 
ENDBRANCH  31  32
ENDBRANCH   6  31
TORSDOF 6
ENDMDL
MODEL 10
REMARK VINA RESULT:      -8.0      3.889      6.096
REMARK  6 active torsions:
REMARK  status: ('A' for Active; 'I' for Inactive)
REMARK    1  A    between atoms: C_4  and  C_5 
REMARK    2  A    between atoms: C_5  and  C_6 
REMARK    3  A    between atoms: C_10  and  C_11 
REMARK    4  A    between atoms: C_10  and  C_15 
REMARK    5  A    between atoms: N_19  and  C_20 
REMARK    6  A    between atoms: C_20  and  C_21 
ROOT
HETATM    1  C   UNL     1     -43.480  56.053 -55.377  1.00  0.00     0.084 C 
HETATM    2  N   UNL     1     -43.679  56.876 -54.369  1.00  0.00    -0.331 N 
HETATM    3  C   UNL     1     -44.142  58.162 -54.530  1.00  0.00     0.128 C 
HETATM    4  C   UNL     1     -44.294  58.648 -55.770  1.00  0.00     0.100 C 
HETATM    5  C   UNL     1     -43.970  57.882 -57.031  1.00  0.00     0.264 C 
HETATM    6  N   UNL     1     -44.443  58.920 -53.409  1.00  0.00    -0.278 N 
HETATM    7  C   UNL     1     -44.834  60.248 -53.510  1.00  0.00     0.331 C 
HETATM    8  O   UNL     1     -45.109  60.963 -52.554  1.00  0.00    -0.246 OA
HETATM    9  N   UNL     1     -44.927  60.743 -54.776  1.00  0.00    -0.275 N 
HETATM   10  C   UNL     1     -44.779  60.024 -55.912  1.00  0.00     0.262 C 
HETATM   11  O   UNL     1     -45.031  60.470 -57.019  1.00  0.00    -0.267 OA
HETATM   12  N   UNL     1     -43.653  56.431 -56.624  1.00  0.00    -0.351 N 
HETATM   13  H   UNL     1     -43.507  55.749 -57.375  1.00  0.00     0.162 HD
HETATM   14  H   UNL     1     -43.441  56.535 -53.436  1.00  0.00     0.168 HD
HETATM   15  H   UNL     1     -45.265  61.695 -54.859  1.00  0.00     0.173 HD
ENDROOT
BRANCH   5  16
HETATM   16  C   UNL     1     -42.730  58.428 -57.745  1.00  0.00     0.426 C 
HETATM   17  F   UNL     1     -41.845  58.876 -56.814  1.00  0.00    -0.168 F 
HETATM   18  F   UNL     1     -42.098  57.435 -58.415  1.00  0.00    -0.168 F 
HETATM   19  F   UNL     1     -42.955  59.436 -58.595  1.00  0.00    -0.168 F 
ENDBRANCH   5  16
BRANCH   5  20
HETATM   20  C   UNL     1     -45.076  57.813 -58.091  1.00  0.00     0.426 C 
HETATM   21  F   UNL     1     -46.290  57.760 -57.489  1.00  0.00    -0.168 F 
HETATM   22  F   UNL     1     -45.089  58.794 -58.998  1.00  0.00    -0.168 F 
HETATM   23  F   UNL     1     -44.947  56.641 -58.774  1.00  0.00    -0.168 F 
ENDBRANCH   5  20
BRANCH   1  24
HETATM   24  C   UNL     1     -43.061  54.647 -55.095  1.00  0.00     0.114 C 
BRANCH  24  25
HETATM   25  C   UNL     1     -42.450  54.417 -53.732  1.00  0.00    -0.051 A 
HETATM   26  C   UNL     1     -43.300  54.198 -52.635  1.00  0.00     0.007 A 
HETATM   27  C   UNL     1     -42.776  53.912 -51.373  1.00  0.00     0.001 A 
HETATM   28  C   UNL     1     -41.398  53.831 -51.192  1.00  0.00     0.000 A 
HETATM   29  C   UNL     1     -40.545  54.035 -52.272  1.00  0.00     0.001 A 
HETATM   30  C   UNL     1     -41.065  54.319 -53.537  1.00  0.00     0.007 A 
ENDBRANCH  24  25
ENDBRANCH   1  24
BRANCH   6  31
HETATM   31  C   UNL     1     -44.388  58.368 -52.051  1.00  0.00     0.200 C 
BRANCH  31  32
HETATM   32  C   UNL     1     -43.004  58.472 -51.523  1.00  0.00     0.070 A 
HETATM   33  O   UNL     1     -42.222  57.355 -51.651  1.00  0.00    -0.325 OA
HETATM   34  C   UNL     1     -41.010  57.664 -51.119  1.00  0.00     0.142 A 
HETATM   35  C   UNL     1     -41.002  58.959 -50.659  1.00  0.00     0.027 A 
HETATM   36  C   UNL     1     -42.290  59.484 -50.919  1.00  0.00     0.036 A 
ENDBRANCH  31  32
ENDBRANCH   6  31
TORSDOF 6
ENDMDL
