MODEL 1
REMARK VINA RESULT:      -8.5      0.000      0.000
REMARK  5 active torsions:
REMARK  status: ('A' for Active; 'I' for Inactive)
REMARK    1  A    between atoms: C_6  and  C_7 
REMARK    2  A    between atoms: C_7  and  N_8 
REMARK       I    between atoms: N_8  and  C_9 
REMARK       I    between atoms: C_9  and  N_10 
REMARK    3  A    between atoms: N_10  and  C_11 
REMARK    4  A    between atoms: C_13  and  C_14 
REMARK       I    between atoms: C_14  and  N_15 
REMARK    5  A    between atoms: N_15  and  C_16 
ROOT
HETATM    1  C   UNL     1     -40.525  53.781 -53.054  1.00  0.00     0.036 A 
HETATM    2  C   UNL     1     -40.215  52.838 -52.072  1.00  0.00     0.052 A 
HETATM    3  C   UNL     1     -39.906  51.518 -52.429  1.00  0.00     0.046 A 
HETATM    4  C   UNL     1     -39.591  50.554 -51.416  1.00  0.00     0.099 C 
HETATM    5  N   UNL     1     -39.334  49.758 -50.611  1.00  0.00    -0.191 NA
HETATM    6  C   UNL     1     -39.904  51.138 -53.775  1.00  0.00     0.023 A 
HETATM    7  C   UNL     1     -40.209  52.074 -54.760  1.00  0.00     0.004 A 
HETATM    8  C   UNL     1     -40.518  53.388 -54.400  1.00  0.00     0.029 A 
ENDROOT
BRANCH   1   9
HETATM    9  N   UNL     1     -40.850  55.127 -52.784  1.00  0.00    -0.323 N 
HETATM   10  C   UNL     1     -42.088  55.643 -52.442  1.00  0.00     0.256 C 
HETATM   11  O   UNL     1     -43.140  55.020 -52.361  1.00  0.00    -0.267 OA
HETATM   12  H   UNL     1     -40.091  55.788 -52.901  1.00  0.00     0.169 HD
BRANCH  10  13
HETATM   13  C   UNL     1     -42.119  57.117 -52.204  1.00  0.00     0.034 A 
HETATM   14  C   UNL     1     -43.055  57.706 -51.341  1.00  0.00     0.046 A 
HETATM   15  C   UNL     1     -43.021  59.080 -51.094  1.00  0.00     0.037 A 
HETATM   16  C   UNL     1     -42.081  59.871 -51.764  1.00  0.00     0.029 A 
HETATM   17  C   UNL     1     -41.171  59.296 -52.655  1.00  0.00     0.003 A 
HETATM   18  C   UNL     1     -41.187  57.920 -52.871  1.00  0.00     0.017 A 
BRANCH  15  19
HETATM   19  N   UNL     1     -43.892  59.732 -50.198  1.00  0.00    -0.309 N 
HETATM   20  C   UNL     1     -45.166  60.164 -50.444  1.00  0.00     0.321 C 
HETATM   21  N   UNL     1     -45.784  60.820 -49.421  1.00  0.00    -0.337 N 
HETATM   22  O   UNL     1     -45.798  60.012 -51.488  1.00  0.00    -0.247 OA
HETATM   23  H   UNL     1     -46.710  61.139 -49.674  1.00  0.00     0.164 HD
HETATM   24  H   UNL     1     -43.624  59.690 -49.220  1.00  0.00     0.170 HD
BRANCH  21  25
HETATM   25  C   UNL     1     -45.208  61.320 -48.190  1.00  0.00     0.186 C 
BRANCH  25  26
HETATM   26  C   UNL     1     -45.638  60.464 -47.052  1.00  0.00     0.083 A 
HETATM   27  C   UNL     1     -45.333  60.558 -45.709  1.00  0.00     0.076 A 
HETATM   28  C   UNL     1     -44.512  61.468 -44.892  1.00  0.00     0.079 C 
HETATM   29  O   UNL     1     -45.993  59.553 -45.060  1.00  0.00    -0.307 OA
HETATM   30  C   UNL     1     -46.673  58.910 -46.047  1.00  0.00     0.258 A 
HETATM   31  N   UNL     1     -46.507  59.406 -47.254  1.00  0.00    -0.237 NA
ENDBRANCH  25  26
ENDBRANCH  21  25
ENDBRANCH  15  19
ENDBRANCH  10  13
ENDBRANCH   1   9
TORSDOF 5
ENDMDL
MODEL 2
REMARK VINA RESULT:      -8.5      5.209      8.174
REMARK  5 active torsions:
REMARK  status: ('A' for Active; 'I' for Inactive)
REMARK    1  A    between atoms: C_6  and  C_7 
REMARK    2  A    between atoms: C_7  and  N_8 
REMARK       I    between atoms: N_8  and  C_9 
REMARK       I    between atoms: C_9  and  N_10 
REMARK    3  A    between atoms: N_10  and  C_11 
REMARK    4  A    between atoms: C_13  and  C_14 
REMARK       I    between atoms: C_14  and  N_15 
REMARK    5  A    between atoms: N_15  and  C_16 
ROOT
HETATM    1  C   UNL     1     -40.975  53.592 -52.785  1.00  0.00     0.036 A 
HETATM    2  C   UNL     1     -40.742  52.498 -53.620  1.00  0.00     0.052 A 
HETATM    3  C   UNL     1     -39.890  51.462 -53.211  1.00  0.00     0.046 A 
HETATM    4  C   UNL     1     -39.652  50.343 -54.074  1.00  0.00     0.099 C 
HETATM    5  N   UNL     1     -39.445  49.428 -54.758  1.00  0.00    -0.191 NA
HETATM    6  C   UNL     1     -39.270  51.519 -51.958  1.00  0.00     0.023 A 
HETATM    7  C   UNL     1     -39.502  52.605 -51.118  1.00  0.00     0.004 A 
HETATM    8  C   UNL     1     -40.350  53.635 -51.531  1.00  0.00     0.029 A 
ENDROOT
BRANCH   1   9
HETATM    9  N   UNL     1     -41.814  54.677 -53.118  1.00  0.00    -0.323 N 
HETATM   10  C   UNL     1     -43.059  54.974 -52.590  1.00  0.00     0.256 C 
HETATM   11  O   UNL     1     -43.678  54.309 -51.768  1.00  0.00    -0.267 OA
HETATM   12  H   UNL     1     -41.473  55.276 -53.861  1.00  0.00     0.169 HD
BRANCH  10  13
HETATM   13  C   UNL     1     -43.705  56.204 -53.137  1.00  0.00     0.034 A 
HETATM   14  C   UNL     1     -43.946  56.364 -54.509  1.00  0.00     0.046 A 
HETATM   15  C   UNL     1     -44.606  57.500 -54.982  1.00  0.00     0.037 A 
HETATM   16  C   UNL     1     -44.968  58.506 -54.078  1.00  0.00     0.029 A 
HETATM   17  C   UNL     1     -44.695  58.370 -52.715  1.00  0.00     0.003 A 
HETATM   18  C   UNL     1     -44.068  57.218 -52.244  1.00  0.00     0.017 A 
BRANCH  15  19
HETATM   19  N   UNL     1     -44.931  57.703 -56.338  1.00  0.00    -0.309 N 
HETATM   20  C   UNL     1     -44.357  58.589 -57.207  1.00  0.00     0.321 C 
HETATM   21  N   UNL     1     -44.893  58.632 -58.460  1.00  0.00    -0.337 N 
HETATM   22  O   UNL     1     -43.411  59.337 -56.966  1.00  0.00    -0.247 OA
HETATM   23  H   UNL     1     -44.445  59.325 -59.045  1.00  0.00     0.164 HD
HETATM   24  H   UNL     1     -45.503  56.979 -56.763  1.00  0.00     0.170 HD
BRANCH  21  25
HETATM   25  C   UNL     1     -46.123  58.035 -58.938  1.00  0.00     0.186 C 
BRANCH  25  26
HETATM   26  C   UNL     1     -45.815  56.803 -59.711  1.00  0.00     0.083 A 
HETATM   27  C   UNL     1     -46.486  56.235 -60.775  1.00  0.00     0.076 A 
HETATM   28  C   UNL     1     -47.701  56.573 -61.537  1.00  0.00     0.079 C 
HETATM   29  O   UNL     1     -45.793  55.121 -61.159  1.00  0.00    -0.307 OA
HETATM   30  C   UNL     1     -44.731  55.082 -60.310  1.00  0.00     0.258 A 
HETATM   31  N   UNL     1     -44.684  56.057 -59.429  1.00  0.00    -0.237 NA
ENDBRANCH  25  26
ENDBRANCH  21  25
ENDBRANCH  15  19
ENDBRANCH  10  13
ENDBRANCH   1   9
TORSDOF 5
ENDMDL
MODEL 3
REMARK VINA RESULT:      -8.5      6.438      9.114
REMARK  5 active torsions:
REMARK  status: ('A' for Active; 'I' for Inactive)
REMARK    1  A    between atoms: C_6  and  C_7 
REMARK    2  A    between atoms: C_7  and  N_8 
REMARK       I    between atoms: N_8  and  C_9 
REMARK       I    between atoms: C_9  and  N_10 
REMARK    3  A    between atoms: N_10  and  C_11 
REMARK    4  A    between atoms: C_13  and  C_14 
REMARK       I    between atoms: C_14  and  N_15 
REMARK    5  A    between atoms: N_15  and  C_16 
ROOT
HETATM    1  C   UNL     1     -41.097  53.830 -53.753  1.00  0.00     0.036 A 
HETATM    2  C   UNL     1     -40.699  52.571 -54.209  1.00  0.00     0.052 A 
HETATM    3  C   UNL     1     -40.103  51.655 -53.332  1.00  0.00     0.046 A 
HETATM    4  C   UNL     1     -39.693  50.367 -53.807  1.00  0.00     0.099 C 
HETATM    5  N   UNL     1     -39.354  49.318 -54.171  1.00  0.00    -0.191 NA
HETATM    6  C   UNL     1     -39.905  51.997 -51.990  1.00  0.00     0.023 A 
HETATM    7  C   UNL     1     -40.303  53.249 -51.527  1.00  0.00     0.004 A 
HETATM    8  C   UNL     1     -40.895  54.159 -52.405  1.00  0.00     0.029 A 
ENDROOT
BRANCH   1   9
HETATM    9  N   UNL     1     -41.701  54.812 -54.567  1.00  0.00    -0.323 N 
HETATM   10  C   UNL     1     -41.385  56.158 -54.639  1.00  0.00     0.256 C 
HETATM   11  O   UNL     1     -40.548  56.747 -53.965  1.00  0.00    -0.267 OA
HETATM   12  H   UNL     1     -42.483  54.491 -55.124  1.00  0.00     0.169 HD
BRANCH  10  13
HETATM   13  C   UNL     1     -42.197  56.951 -55.608  1.00  0.00     0.034 A 
HETATM   14  C   UNL     1     -42.836  56.350 -56.703  1.00  0.00     0.046 A 
HETATM   15  C   UNL     1     -43.637  57.109 -57.558  1.00  0.00     0.037 A 
HETATM   16  C   UNL     1     -43.746  58.489 -57.345  1.00  0.00     0.029 A 
HETATM   17  C   UNL     1     -43.082  59.100 -56.280  1.00  0.00     0.003 A 
HETATM   18  C   UNL     1     -42.312  58.332 -55.410  1.00  0.00     0.017 A 
BRANCH  15  19
HETATM   19  N   UNL     1     -44.352  56.564 -58.643  1.00  0.00    -0.309 N 
HETATM   20  C   UNL     1     -43.987  56.559 -59.961  1.00  0.00     0.321 C 
HETATM   21  N   UNL     1     -44.886  56.015 -60.830  1.00  0.00    -0.337 N 
HETATM   22  O   UNL     1     -42.934  56.991 -60.426  1.00  0.00    -0.247 OA
HETATM   23  H   UNL     1     -44.571  56.067 -61.789  1.00  0.00     0.164 HD
HETATM   24  H   UNL     1     -45.109  55.934 -58.394  1.00  0.00     0.170 HD
BRANCH  21  25
HETATM   25  C   UNL     1     -46.264  55.641 -60.588  1.00  0.00     0.186 C 
BRANCH  25  26
HETATM   26  C   UNL     1     -47.171  56.661 -61.175  1.00  0.00     0.083 A 
HETATM   27  C   UNL     1     -47.401  57.967 -60.792  1.00  0.00     0.076 A 
HETATM   28  C   UNL     1     -46.893  58.839 -59.719  1.00  0.00     0.079 C 
HETATM   29  O   UNL     1     -48.303  58.506 -61.665  1.00  0.00    -0.307 OA
HETATM   30  C   UNL     1     -48.563  57.497 -62.539  1.00  0.00     0.258 A 
HETATM   31  N   UNL     1     -47.917  56.376 -62.305  1.00  0.00    -0.237 NA
ENDBRANCH  25  26
ENDBRANCH  21  25
ENDBRANCH  15  19
ENDBRANCH  10  13
ENDBRANCH   1   9
TORSDOF 5
ENDMDL
MODEL 4
REMARK VINA RESULT:      -8.2      5.017      9.055
REMARK  5 active torsions:
REMARK  status: ('A' for Active; 'I' for Inactive)
REMARK    1  A    between atoms: C_6  and  C_7 
REMARK    2  A    between atoms: C_7  and  N_8 
REMARK       I    between atoms: N_8  and  C_9 
REMARK       I    between atoms: C_9  and  N_10 
REMARK    3  A    between atoms: N_10  and  C_11 
REMARK    4  A    between atoms: C_13  and  C_14 
REMARK       I    between atoms: C_14  and  N_15 
REMARK    5  A    between atoms: N_15  and  C_16 
ROOT
HETATM    1  C   UNL     1     -44.785  57.194 -57.936  1.00  0.00     0.036 A 
HETATM    2  C   UNL     1     -44.550  56.313 -58.994  1.00  0.00     0.052 A 
HETATM    3  C   UNL     1     -45.408  56.292 -60.102  1.00  0.00     0.046 A 
HETATM    4  C   UNL     1     -45.163  55.383 -61.183  1.00  0.00     0.099 C 
HETATM    5  N   UNL     1     -44.984  54.654 -62.069  1.00  0.00    -0.191 NA
HETATM    6  C   UNL     1     -46.505  57.157 -60.156  1.00  0.00     0.023 A 
HETATM    7  C   UNL     1     -46.743  58.042 -59.107  1.00  0.00     0.004 A 
HETATM    8  C   UNL     1     -45.887  58.058 -58.003  1.00  0.00     0.029 A 
ENDROOT
BRANCH   1   9
HETATM    9  N   UNL     1     -43.976  57.281 -56.783  1.00  0.00    -0.323 N 
HETATM   10  C   UNL     1     -42.759  57.928 -56.654  1.00  0.00     0.256 C 
HETATM   11  O   UNL     1     -42.142  58.503 -57.542  1.00  0.00    -0.267 OA
HETATM   12  H   UNL     1     -44.314  56.769 -55.977  1.00  0.00     0.169 HD
BRANCH  10  13
HETATM   13  C   UNL     1     -42.141  57.854 -55.297  1.00  0.00     0.034 A 
HETATM   14  C   UNL     1     -41.940  56.631 -54.642  1.00  0.00     0.046 A 
HETATM   15  C   UNL     1     -41.305  56.591 -53.398  1.00  0.00     0.037 A 
HETATM   16  C   UNL     1     -40.927  57.791 -52.786  1.00  0.00     0.029 A 
HETATM   17  C   UNL     1     -41.159  59.016 -53.416  1.00  0.00     0.003 A 
HETATM   18  C   UNL     1     -41.761  59.048 -54.672  1.00  0.00     0.017 A 
BRANCH  15  19
HETATM   19  N   UNL     1     -41.021  55.396 -52.708  1.00  0.00    -0.309 N 
HETATM   20  C   UNL     1     -41.802  54.766 -51.778  1.00  0.00     0.321 C 
HETATM   21  N   UNL     1     -41.273  53.645 -51.211  1.00  0.00    -0.337 N 
HETATM   22  O   UNL     1     -42.925  55.113 -51.417  1.00  0.00    -0.247 OA
HETATM   23  H   UNL     1     -41.884  53.244 -50.513  1.00  0.00     0.164 HD
HETATM   24  H   UNL     1     -40.259  54.842 -53.089  1.00  0.00     0.170 HD
BRANCH  21  25
HETATM   25  C   UNL     1     -39.914  53.148 -51.288  1.00  0.00     0.186 C 
BRANCH  25  26
HETATM   26  C   UNL     1     -39.845  52.024 -52.259  1.00  0.00     0.083 A 
HETATM   27  C   UNL     1     -39.651  50.676 -52.039  1.00  0.00     0.076 A 
HETATM   28  C   UNL     1     -39.438  49.838 -50.846  1.00  0.00     0.079 C 
HETATM   29  O   UNL     1     -39.695  50.044 -53.250  1.00  0.00    -0.307 OA
HETATM   30  C   UNL     1     -39.926  51.047 -54.139  1.00  0.00     0.258 A 
HETATM   31  N   UNL     1     -40.030  52.248 -53.612  1.00  0.00    -0.237 NA
ENDBRANCH  25  26
ENDBRANCH  21  25
ENDBRANCH  15  19
ENDBRANCH  10  13
ENDBRANCH   1   9
TORSDOF 5
ENDMDL
MODEL 5
REMARK VINA RESULT:      -8.1      1.882      2.329
REMARK  5 active torsions:
REMARK  status: ('A' for Active; 'I' for Inactive)
REMARK    1  A    between atoms: C_6  and  C_7 
REMARK    2  A    between atoms: C_7  and  N_8 
REMARK       I    between atoms: N_8  and  C_9 
REMARK       I    between atoms: C_9  and  N_10 
REMARK    3  A    between atoms: N_10  and  C_11 
REMARK    4  A    between atoms: C_13  and  C_14 
REMARK       I    between atoms: C_14  and  N_15 
REMARK    5  A    between atoms: N_15  and  C_16 
ROOT
HETATM    1  C   UNL     1     -40.978  53.648 -52.569  1.00  0.00     0.036 A 
HETATM    2  C   UNL     1     -40.804  52.597 -53.471  1.00  0.00     0.052 A 
HETATM    3  C   UNL     1     -39.956  51.526 -53.157  1.00  0.00     0.046 A 
HETATM    4  C   UNL     1     -39.779  50.452 -54.089  1.00  0.00     0.099 C 
HETATM    5  N   UNL     1     -39.621  49.571 -54.830  1.00  0.00    -0.191 NA
HETATM    6  C   UNL     1     -39.279  51.504 -51.934  1.00  0.00     0.023 A 
HETATM    7  C   UNL     1     -39.451  52.547 -51.027  1.00  0.00     0.004 A 
HETATM    8  C   UNL     1     -40.296  53.613 -51.345  1.00  0.00     0.029 A 
ENDROOT
BRANCH   1   9
HETATM    9  N   UNL     1     -41.809  54.764 -52.804  1.00  0.00    -0.323 N 
HETATM   10  C   UNL     1     -43.059  55.014 -52.264  1.00  0.00     0.256 C 
HETATM   11  O   UNL     1     -43.690  54.276 -51.516  1.00  0.00    -0.267 OA
HETATM   12  H   UNL     1     -41.459  55.430 -53.482  1.00  0.00     0.169 HD
BRANCH  10  13
HETATM   13  C   UNL     1     -43.695  56.294 -52.696  1.00  0.00     0.034 A 
HETATM   14  C   UNL     1     -43.967  57.326 -51.786  1.00  0.00     0.046 A 
HETATM   15  C   UNL     1     -44.509  58.534 -52.231  1.00  0.00     0.037 A 
HETATM   16  C   UNL     1     -44.833  58.680 -53.585  1.00  0.00     0.029 A 
HETATM   17  C   UNL     1     -44.600  57.641 -54.489  1.00  0.00     0.003 A 
HETATM   18  C   UNL     1     -44.028  56.451 -54.046  1.00  0.00     0.017 A 
BRANCH  15  19
HETATM   19  N   UNL     1     -44.757  59.634 -51.385  1.00  0.00    -0.309 N 
HETATM   20  C   UNL     1     -43.835  60.438 -50.775  1.00  0.00     0.321 C 
HETATM   21  N   UNL     1     -44.334  61.407 -49.955  1.00  0.00    -0.337 N 
HETATM   22  O   UNL     1     -42.614  60.371 -50.900  1.00  0.00    -0.247 OA
HETATM   23  H   UNL     1     -43.603  61.948 -49.513  1.00  0.00     0.164 HD
HETATM   24  H   UNL     1     -45.709  59.988 -51.398  1.00  0.00     0.170 HD
BRANCH  21  25
HETATM   25  C   UNL     1     -45.688  61.567 -49.465  1.00  0.00     0.186 C 
BRANCH  25  26
HETATM   26  C   UNL     1     -45.723  61.319 -48.000  1.00  0.00     0.083 A 
HETATM   27  C   UNL     1     -45.484  62.183 -46.950  1.00  0.00     0.076 A 
HETATM   28  C   UNL     1     -45.114  63.603 -46.838  1.00  0.00     0.079 C 
HETATM   29  O   UNL     1     -45.669  61.487 -45.788  1.00  0.00    -0.307 OA
HETATM   30  C   UNL     1     -46.022  60.240 -46.199  1.00  0.00     0.258 A 
HETATM   31  N   UNL     1     -46.077  60.077 -47.503  1.00  0.00    -0.237 NA
ENDBRANCH  25  26
ENDBRANCH  21  25
ENDBRANCH  15  19
ENDBRANCH  10  13
ENDBRANCH   1   9
TORSDOF 5
ENDMDL
MODEL 6
REMARK VINA RESULT:      -8.1      6.332      9.124
REMARK  5 active torsions:
REMARK  status: ('A' for Active; 'I' for Inactive)
REMARK    1  A    between atoms: C_6  and  C_7 
REMARK    2  A    between atoms: C_7  and  N_8 
REMARK       I    between atoms: N_8  and  C_9 
REMARK       I    between atoms: C_9  and  N_10 
REMARK    3  A    between atoms: N_10  and  C_11 
REMARK    4  A    between atoms: C_13  and  C_14 
REMARK       I    between atoms: C_14  and  N_15 
REMARK    5  A    between atoms: N_15  and  C_16 
ROOT
HETATM    1  C   UNL     1     -40.724  53.604 -52.915  1.00  0.00     0.036 A 
HETATM    2  C   UNL     1     -40.864  53.888 -51.555  1.00  0.00     0.052 A 
HETATM    3  C   UNL     1     -40.397  52.985 -50.591  1.00  0.00     0.046 A 
HETATM    4  C   UNL     1     -40.547  53.280 -49.197  1.00  0.00     0.099 C 
HETATM    5  N   UNL     1     -40.659  53.500 -48.062  1.00  0.00    -0.191 NA
HETATM    6  C   UNL     1     -39.783  51.792 -50.987  1.00  0.00     0.023 A 
HETATM    7  C   UNL     1     -39.636  51.504 -52.342  1.00  0.00     0.004 A 
HETATM    8  C   UNL     1     -40.105  52.406 -53.299  1.00  0.00     0.029 A 
ENDROOT
BRANCH   1   9
HETATM    9  N   UNL     1     -41.167  54.454 -53.951  1.00  0.00    -0.323 N 
HETATM   10  C   UNL     1     -42.436  54.979 -54.126  1.00  0.00     0.256 C 
HETATM   11  O   UNL     1     -43.420  54.754 -53.430  1.00  0.00    -0.267 OA
HETATM   12  H   UNL     1     -40.480  54.660 -54.666  1.00  0.00     0.169 HD
BRANCH  10  13
HETATM   13  C   UNL     1     -42.601  55.862 -55.319  1.00  0.00     0.034 A 
HETATM   14  C   UNL     1     -43.281  55.432 -56.467  1.00  0.00     0.046 A 
HETATM   15  C   UNL     1     -43.469  56.301 -57.544  1.00  0.00     0.037 A 
HETATM   16  C   UNL     1     -42.918  57.587 -57.487  1.00  0.00     0.029 A 
HETATM   17  C   UNL     1     -42.206  58.008 -56.362  1.00  0.00     0.003 A 
HETATM   18  C   UNL     1     -42.052  57.148 -55.277  1.00  0.00     0.017 A 
BRANCH  15  19
HETATM   19  N   UNL     1     -44.189  55.957 -58.706  1.00  0.00    -0.309 N 
HETATM   20  C   UNL     1     -43.831  56.190 -60.005  1.00  0.00     0.321 C 
HETATM   21  N   UNL     1     -44.733  55.807 -60.953  1.00  0.00    -0.337 N 
HETATM   22  O   UNL     1     -42.781  56.702 -60.390  1.00  0.00    -0.247 OA
HETATM   23  H   UNL     1     -44.423  56.032 -61.889  1.00  0.00     0.164 HD
HETATM   24  H   UNL     1     -44.943  55.290 -58.571  1.00  0.00     0.170 HD
BRANCH  21  25
HETATM   25  C   UNL     1     -46.109  55.391 -60.775  1.00  0.00     0.186 C 
BRANCH  25  26
HETATM   26  C   UNL     1     -47.022  56.488 -61.190  1.00  0.00     0.083 A 
HETATM   27  C   UNL     1     -47.225  57.732 -60.626  1.00  0.00     0.076 A 
HETATM   28  C   UNL     1     -46.676  58.446 -59.461  1.00  0.00     0.079 C 
HETATM   29  O   UNL     1     -48.148  58.391 -61.390  1.00  0.00    -0.307 OA
HETATM   30  C   UNL     1     -48.445  57.512 -62.384  1.00  0.00     0.258 A 
HETATM   31  N   UNL     1     -47.805  56.364 -62.324  1.00  0.00    -0.237 NA
ENDBRANCH  25  26
ENDBRANCH  21  25
ENDBRANCH  15  19
ENDBRANCH  10  13
ENDBRANCH   1   9
TORSDOF 5
ENDMDL
MODEL 7
REMARK VINA RESULT:      -7.9      4.283      8.812
REMARK  5 active torsions:
REMARK  status: ('A' for Active; 'I' for Inactive)
REMARK    1  A    between atoms: C_6  and  C_7 
REMARK    2  A    between atoms: C_7  and  N_8 
REMARK       I    between atoms: N_8  and  C_9 
REMARK       I    between atoms: C_9  and  N_10 
REMARK    3  A    between atoms: N_10  and  C_11 
REMARK    4  A    between atoms: C_13  and  C_14 
REMARK       I    between atoms: C_14  and  N_15 
REMARK    5  A    between atoms: N_15  and  C_16 
ROOT
HETATM    1  C   UNL     1     -42.661  57.705 -57.635  1.00  0.00     0.036 A 
HETATM    2  C   UNL     1     -43.310  56.724 -58.387  1.00  0.00     0.052 A 
HETATM    3  C   UNL     1     -43.540  56.917 -59.756  1.00  0.00     0.046 A 
HETATM    4  C   UNL     1     -44.211  55.908 -60.522  1.00  0.00     0.099 C 
HETATM    5  N   UNL     1     -44.752  55.104 -61.161  1.00  0.00    -0.191 NA
HETATM    6  C   UNL     1     -43.117  58.096 -60.378  1.00  0.00     0.023 A 
HETATM    7  C   UNL     1     -42.464  59.077 -59.635  1.00  0.00     0.004 A 
HETATM    8  C   UNL     1     -42.239  58.881 -58.271  1.00  0.00     0.029 A 
ENDROOT
BRANCH   1   9
HETATM    9  N   UNL     1     -42.391  57.594 -56.254  1.00  0.00    -0.323 N 
HETATM   10  C   UNL     1     -42.983  58.299 -55.220  1.00  0.00     0.256 C 
HETATM   11  O   UNL     1     -43.821  59.187 -55.330  1.00  0.00    -0.267 OA
HETATM   12  H   UNL     1     -41.645  56.954 -56.008  1.00  0.00     0.169 HD
BRANCH  10  13
HETATM   13  C   UNL     1     -42.495  57.953 -53.852  1.00  0.00     0.034 A 
HETATM   14  C   UNL     1     -42.119  56.645 -53.511  1.00  0.00     0.046 A 
HETATM   15  C   UNL     1     -41.610  56.366 -52.241  1.00  0.00     0.037 A 
HETATM   16  C   UNL     1     -41.537  57.393 -51.293  1.00  0.00     0.029 A 
HETATM   17  C   UNL     1     -41.947  58.689 -51.614  1.00  0.00     0.003 A 
HETATM   18  C   UNL     1     -42.421  58.970 -52.894  1.00  0.00     0.017 A 
BRANCH  15  19
HETATM   19  N   UNL     1     -41.161  55.089 -51.846  1.00  0.00    -0.309 N 
HETATM   20  C   UNL     1     -41.768  54.227 -50.975  1.00  0.00     0.321 C 
HETATM   21  N   UNL     1     -41.098  53.068 -50.715  1.00  0.00    -0.337 N 
HETATM   22  O   UNL     1     -42.850  54.398 -50.417  1.00  0.00    -0.247 OA
HETATM   23  H   UNL     1     -41.583  52.488 -50.044  1.00  0.00     0.164 HD
HETATM   24  H   UNL     1     -40.426  54.688 -52.422  1.00  0.00     0.170 HD
BRANCH  21  25
HETATM   25  C   UNL     1     -39.736  52.716 -51.057  1.00  0.00     0.186 C 
BRANCH  25  26
HETATM   26  C   UNL     1     -39.735  51.555 -51.985  1.00  0.00     0.083 A 
HETATM   27  C   UNL     1     -39.888  51.518 -53.356  1.00  0.00     0.076 A 
HETATM   28  C   UNL     1     -40.108  52.529 -54.404  1.00  0.00     0.079 C 
HETATM   29  O   UNL     1     -39.785  50.214 -53.753  1.00  0.00    -0.307 OA
HETATM   30  C   UNL     1     -39.562  49.532 -52.598  1.00  0.00     0.258 A 
HETATM   31  N   UNL     1     -39.517  50.273 -51.512  1.00  0.00    -0.237 NA
ENDBRANCH  25  26
ENDBRANCH  21  25
ENDBRANCH  15  19
ENDBRANCH  10  13
ENDBRANCH   1   9
TORSDOF 5
ENDMDL
MODEL 8
REMARK VINA RESULT:      -7.8      5.753     10.008
REMARK  5 active torsions:
REMARK  status: ('A' for Active; 'I' for Inactive)
REMARK    1  A    between atoms: C_6  and  C_7 
REMARK    2  A    between atoms: C_7  and  N_8 
REMARK       I    between atoms: N_8  and  C_9 
REMARK       I    between atoms: C_9  and  N_10 
REMARK    3  A    between atoms: N_10  and  C_11 
REMARK    4  A    between atoms: C_13  and  C_14 
REMARK       I    between atoms: C_14  and  N_15 
REMARK    5  A    between atoms: N_15  and  C_16 
ROOT
HETATM    1  C   UNL     1     -45.450  57.237 -58.792  1.00  0.00     0.036 A 
HETATM    2  C   UNL     1     -46.232  58.328 -59.177  1.00  0.00     0.052 A 
HETATM    3  C   UNL     1     -47.047  58.251 -60.315  1.00  0.00     0.046 A 
HETATM    4  C   UNL     1     -47.844  59.376 -60.706  1.00  0.00     0.099 C 
HETATM    5  N   UNL     1     -48.497  60.275 -61.041  1.00  0.00    -0.191 NA
HETATM    6  C   UNL     1     -47.084  57.075 -61.072  1.00  0.00     0.023 A 
HETATM    7  C   UNL     1     -46.311  55.981 -60.691  1.00  0.00     0.004 A 
HETATM    8  C   UNL     1     -45.499  56.063 -59.558  1.00  0.00     0.029 A 
ENDROOT
BRANCH   1   9
HETATM    9  N   UNL     1     -44.601  57.229 -57.666  1.00  0.00    -0.323 N 
HETATM   10  C   UNL     1     -43.218  57.289 -57.651  1.00  0.00     0.256 C 
HETATM   11  O   UNL     1     -42.480  57.310 -58.629  1.00  0.00    -0.267 OA
HETATM   12  H   UNL     1     -45.067  57.123 -56.773  1.00  0.00     0.169 HD
BRANCH  10  13
HETATM   13  C   UNL     1     -42.595  57.274 -56.295  1.00  0.00     0.034 A 
HETATM   14  C   UNL     1     -42.285  56.075 -55.638  1.00  0.00     0.046 A 
HETATM   15  C   UNL     1     -41.648  56.095 -54.395  1.00  0.00     0.037 A 
HETATM   16  C   UNL     1     -41.378  57.325 -53.786  1.00  0.00     0.029 A 
HETATM   17  C   UNL     1     -41.719  58.523 -54.417  1.00  0.00     0.003 A 
HETATM   18  C   UNL     1     -42.323  58.498 -55.673  1.00  0.00     0.017 A 
BRANCH  15  19
HETATM   19  N   UNL     1     -41.256  54.931 -53.703  1.00  0.00    -0.309 N 
HETATM   20  C   UNL     1     -41.981  54.230 -52.778  1.00  0.00     0.321 C 
HETATM   21  N   UNL     1     -41.352  53.164 -52.208  1.00  0.00    -0.337 N 
HETATM   22  O   UNL     1     -43.133  54.470 -52.424  1.00  0.00    -0.247 OA
HETATM   23  H   UNL     1     -41.927  52.706 -51.514  1.00  0.00     0.164 HD
HETATM   24  H   UNL     1     -40.443  54.452 -54.079  1.00  0.00     0.170 HD
BRANCH  21  25
HETATM   25  C   UNL     1     -39.952  52.797 -52.276  1.00  0.00     0.186 C 
BRANCH  25  26
HETATM   26  C   UNL     1     -39.817  51.444 -52.878  1.00  0.00     0.083 A 
HETATM   27  C   UNL     1     -39.600  50.223 -52.272  1.00  0.00     0.076 A 
HETATM   28  C   UNL     1     -39.417  49.772 -50.882  1.00  0.00     0.079 C 
HETATM   29  O   UNL     1     -39.580  49.269 -53.251  1.00  0.00    -0.307 OA
HETATM   30  C   UNL     1     -39.797  49.966 -54.398  1.00  0.00     0.258 A 
HETATM   31  N   UNL     1     -39.951  51.263 -54.244  1.00  0.00    -0.237 NA
ENDBRANCH  25  26
ENDBRANCH  21  25
ENDBRANCH  15  19
ENDBRANCH  10  13
ENDBRANCH   1   9
TORSDOF 5
ENDMDL
MODEL 9
REMARK VINA RESULT:      -7.7      6.157      8.674
REMARK  5 active torsions:
REMARK  status: ('A' for Active; 'I' for Inactive)
REMARK    1  A    between atoms: C_6  and  C_7 
REMARK    2  A    between atoms: C_7  and  N_8 
REMARK       I    between atoms: N_8  and  C_9 
REMARK       I    between atoms: C_9  and  N_10 
REMARK    3  A    between atoms: N_10  and  C_11 
REMARK    4  A    between atoms: C_13  and  C_14 
REMARK       I    between atoms: C_14  and  N_15 
REMARK    5  A    between atoms: N_15  and  C_16 
ROOT
HETATM    1  C   UNL     1     -40.725  53.795 -54.096  1.00  0.00     0.036 A 
HETATM    2  C   UNL     1     -40.651  54.190 -52.759  1.00  0.00     0.052 A 
HETATM    3  C   UNL     1     -40.187  53.299 -51.781  1.00  0.00     0.046 A 
HETATM    4  C   UNL     1     -40.116  53.709 -50.410  1.00  0.00     0.099 C 
HETATM    5  N   UNL     1     -40.052  54.021 -49.293  1.00  0.00    -0.191 NA
HETATM    6  C   UNL     1     -39.792  52.007 -52.142  1.00  0.00     0.023 A 
HETATM    7  C   UNL     1     -39.859  51.607 -53.475  1.00  0.00     0.004 A 
HETATM    8  C   UNL     1     -40.324  52.498 -54.445  1.00  0.00     0.029 A 
ENDROOT
BRANCH   1   9
HETATM    9  N   UNL     1     -41.182  54.625 -55.142  1.00  0.00    -0.323 N 
HETATM   10  C   UNL     1     -42.491  54.846 -55.533  1.00  0.00     0.256 C 
HETATM   11  O   UNL     1     -43.491  54.315 -55.064  1.00  0.00    -0.267 OA
HETATM   12  H   UNL     1     -40.456  55.069 -55.691  1.00  0.00     0.169 HD
BRANCH  10  13
HETATM   13  C   UNL     1     -42.664  55.792 -56.675  1.00  0.00     0.034 A 
HETATM   14  C   UNL     1     -42.201  57.114 -56.614  1.00  0.00     0.046 A 
HETATM   15  C   UNL     1     -42.325  57.958 -57.721  1.00  0.00     0.037 A 
HETATM   16  C   UNL     1     -42.971  57.486 -58.869  1.00  0.00     0.029 A 
HETATM   17  C   UNL     1     -43.469  56.183 -58.922  1.00  0.00     0.003 A 
HETATM   18  C   UNL     1     -43.311  55.335 -57.828  1.00  0.00     0.017 A 
BRANCH  15  19
HETATM   19  N   UNL     1     -41.834  59.279 -57.751  1.00  0.00    -0.309 N 
HETATM   20  C   UNL     1     -42.359  60.375 -57.125  1.00  0.00     0.321 C 
HETATM   21  N   UNL     1     -41.726  61.559 -57.359  1.00  0.00    -0.337 N 
HETATM   22  O   UNL     1     -43.334  60.388 -56.376  1.00  0.00    -0.247 OA
HETATM   23  H   UNL     1     -42.177  62.334 -56.893  1.00  0.00     0.164 HD
HETATM   24  H   UNL     1     -40.887  59.384 -58.102  1.00  0.00     0.170 HD
BRANCH  21  25
HETATM   25  C   UNL     1     -40.712  61.862 -58.349  1.00  0.00     0.186 C 
BRANCH  25  26
HETATM   26  C   UNL     1     -41.352  62.428 -59.565  1.00  0.00     0.083 A 
HETATM   27  C   UNL     1     -41.822  61.791 -60.696  1.00  0.00     0.076 A 
HETATM   28  C   UNL     1     -41.881  60.392 -61.151  1.00  0.00     0.079 C 
HETATM   29  O   UNL     1     -42.349  62.743 -61.523  1.00  0.00    -0.307 OA
HETATM   30  C   UNL     1     -42.179  63.907 -60.840  1.00  0.00     0.258 A 
HETATM   31  N   UNL     1     -41.596  63.786 -59.667  1.00  0.00    -0.237 NA
ENDBRANCH  25  26
ENDBRANCH  21  25
ENDBRANCH  15  19
ENDBRANCH  10  13
ENDBRANCH   1   9
TORSDOF 5
ENDMDL
MODEL 10
REMARK VINA RESULT:      -7.7      4.536      7.788
REMARK  5 active torsions:
REMARK  status: ('A' for Active; 'I' for Inactive)
REMARK    1  A    between atoms: C_6  and  C_7 
REMARK    2  A    between atoms: C_7  and  N_8 
REMARK       I    between atoms: N_8  and  C_9 
REMARK       I    between atoms: C_9  and  N_10 
REMARK    3  A    between atoms: N_10  and  C_11 
REMARK    4  A    between atoms: C_13  and  C_14 
REMARK       I    between atoms: C_14  and  N_15 
REMARK    5  A    between atoms: N_15  and  C_16 
ROOT
HETATM    1  C   UNL     1     -43.228  57.501 -57.666  1.00  0.00     0.036 A 
HETATM    2  C   UNL     1     -43.968  56.650 -58.491  1.00  0.00     0.052 A 
HETATM    3  C   UNL     1     -43.636  56.512 -59.845  1.00  0.00     0.046 A 
HETATM    4  C   UNL     1     -44.401  55.640 -60.688  1.00  0.00     0.099 C 
HETATM    5  N   UNL     1     -45.008  54.940 -61.387  1.00  0.00    -0.191 NA
HETATM    6  C   UNL     1     -42.559  57.227 -60.380  1.00  0.00     0.023 A 
HETATM    7  C   UNL     1     -41.814  58.073 -59.562  1.00  0.00     0.004 A 
HETATM    8  C   UNL     1     -42.149  58.209 -58.213  1.00  0.00     0.029 A 
ENDROOT
BRANCH   1   9
HETATM    9  N   UNL     1     -43.493  57.701 -56.294  1.00  0.00    -0.323 N 
HETATM   10  C   UNL     1     -44.545  58.405 -55.733  1.00  0.00     0.256 C 
HETATM   11  O   UNL     1     -45.411  59.025 -56.337  1.00  0.00    -0.267 OA
HETATM   12  H   UNL     1     -42.804  57.317 -55.659  1.00  0.00     0.169 HD
BRANCH  10  13
HETATM   13  C   UNL     1     -44.567  58.432 -54.240  1.00  0.00     0.034 A 
HETATM   14  C   UNL     1     -43.884  57.477 -53.474  1.00  0.00     0.046 A 
HETATM   15  C   UNL     1     -43.875  57.564 -52.080  1.00  0.00     0.037 A 
HETATM   16  C   UNL     1     -44.606  58.581 -51.455  1.00  0.00     0.029 A 
HETATM   17  C   UNL     1     -45.321  59.512 -52.211  1.00  0.00     0.003 A 
HETATM   18  C   UNL     1     -45.297  59.441 -53.602  1.00  0.00     0.017 A 
BRANCH  15  19
HETATM   19  N   UNL     1     -43.166  56.674 -51.248  1.00  0.00    -0.309 N 
HETATM   20  C   UNL     1     -41.917  56.847 -50.719  1.00  0.00     0.321 C 
HETATM   21  N   UNL     1     -41.427  55.806 -49.987  1.00  0.00    -0.337 N 
HETATM   22  O   UNL     1     -41.208  57.844 -50.838  1.00  0.00    -0.247 OA
HETATM   23  H   UNL     1     -40.491  55.983 -49.649  1.00  0.00     0.164 HD
HETATM   24  H   UNL     1     -43.719  55.928 -50.836  1.00  0.00     0.170 HD
BRANCH  21  25
HETATM   25  C   UNL     1     -41.946  54.458 -49.873  1.00  0.00     0.186 C 
BRANCH  25  26
HETATM   26  C   UNL     1     -41.194  53.552 -50.780  1.00  0.00     0.083 A 
HETATM   27  C   UNL     1     -41.265  53.414 -52.151  1.00  0.00     0.076 A 
HETATM   28  C   UNL     1     -42.058  54.046 -53.219  1.00  0.00     0.079 C 
HETATM   29  O   UNL     1     -40.351  52.467 -52.523  1.00  0.00    -0.307 OA
HETATM   30  C   UNL     1     -39.767  52.092 -51.354  1.00  0.00     0.258 A 
HETATM   31  N   UNL     1     -40.220  52.704 -50.282  1.00  0.00    -0.237 NA
ENDBRANCH  25  26
ENDBRANCH  21  25
ENDBRANCH  15  19
ENDBRANCH  10  13
ENDBRANCH   1   9
TORSDOF 5
ENDMDL
