MODEL 1
REMARK VINA RESULT:      -7.8      0.000      0.000
REMARK  2 active torsions:
REMARK  status: ('A' for Active; 'I' for Inactive)
REMARK    1  A    between atoms: C_3  and  C_4 
REMARK    2  A    between atoms: C_19  and  O_20 
ROOT
HETATM    1  C   UNL     1     -42.806  55.271 -50.929  1.00  0.00     0.137 C 
HETATM    2  N   UNL     1     -43.582  54.571 -51.996  1.00  0.00    -0.278 NA
HETATM    3  C   UNL     1     -43.025  54.678 -53.305  1.00  0.00     0.036 A 
HETATM    4  C   UNL     1     -41.791  54.089 -53.668  1.00  0.00     0.053 A 
HETATM    5  N   UNL     1     -40.942  53.424 -52.751  1.00  0.00    -0.356 N 
HETATM    6  C   UNL     1     -40.757  53.787 -51.437  1.00  0.00     0.041 A 
HETATM    7  C   UNL     1     -41.511  54.593 -50.673  1.00  0.00     0.056 A 
HETATM    8  C   UNL     1     -40.876  54.647 -49.348  1.00  0.00     0.251 A 
HETATM    9  O   UNL     1     -41.290  55.240 -48.371  1.00  0.00    -0.268 OA
HETATM   10  N   UNL     1     -39.734  53.893 -49.410  1.00  0.00    -0.351 N 
HETATM   11  C   UNL     1     -39.560  53.276 -50.682  1.00  0.00     0.180 A 
HETATM   12  C   UNL     1     -43.774  55.364 -54.273  1.00  0.00     0.026 A 
HETATM   13  C   UNL     1     -43.326  55.463 -55.589  1.00  0.00     0.002 A 
HETATM   14  C   UNL     1     -42.127  54.866 -55.959  1.00  0.00     0.002 A 
HETATM   15  C   UNL     1     -41.370  54.182 -55.007  1.00  0.00     0.031 A 
HETATM   16  H   UNL     1     -43.529  53.572 -51.778  1.00  0.00     0.128 HD
HETATM   17  H   UNL     1     -40.140  52.983 -53.188  1.00  0.00     0.166 HD
HETATM   18  H   UNL     1     -39.145  53.767 -48.597  1.00  0.00     0.163 HD
ENDROOT
BRANCH   1  19
HETATM   19  C   UNL     1     -42.808  56.777 -51.160  1.00  0.00    -0.002 A 
HETATM   20  C   UNL     1     -41.634  57.516 -51.388  1.00  0.00     0.012 A 
HETATM   21  C   UNL     1     -41.676  58.908 -51.526  1.00  0.00     0.001 A 
HETATM   22  C   UNL     1     -42.889  59.587 -51.435  1.00  0.00     0.003 A 
HETATM   23  C   UNL     1     -44.067  58.875 -51.230  1.00  0.00     0.037 A 
HETATM   24  C   UNL     1     -44.021  57.489 -51.114  1.00  0.00     0.073 A 
BRANCH  24  25
HETATM   25  O   UNL     1     -45.222  56.840 -50.988  1.00  0.00    -0.360 OA
HETATM   26  H   UNL     1     -45.090  55.943 -51.364  1.00  0.00     0.217 HD
ENDBRANCH  24  25
ENDBRANCH   1  19
TORSDOF 2
ENDMDL
MODEL 2
REMARK VINA RESULT:      -7.4     15.540     17.234
REMARK  2 active torsions:
REMARK  status: ('A' for Active; 'I' for Inactive)
REMARK    1  A    between atoms: C_3  and  C_4 
REMARK    2  A    between atoms: C_19  and  O_20 
ROOT
HETATM    1  C   UNL     1     -34.880  41.003 -53.119  1.00  0.00     0.137 C 
HETATM    2  N   UNL     1     -34.946  42.221 -53.982  1.00  0.00    -0.278 NA
HETATM    3  C   UNL     1     -35.650  42.044 -55.209  1.00  0.00     0.036 A 
HETATM    4  C   UNL     1     -37.041  41.794 -55.272  1.00  0.00     0.053 A 
HETATM    5  N   UNL     1     -37.852  41.597 -54.128  1.00  0.00    -0.356 N 
HETATM    6  C   UNL     1     -37.456  40.955 -52.977  1.00  0.00     0.041 A 
HETATM    7  C   UNL     1     -36.213  40.666 -52.561  1.00  0.00     0.056 A 
HETATM    8  C   UNL     1     -36.342  39.977 -51.270  1.00  0.00     0.251 A 
HETATM    9  O   UNL     1     -35.432  39.597 -50.559  1.00  0.00    -0.268 OA
HETATM   10  N   UNL     1     -37.680  39.852 -51.003  1.00  0.00    -0.351 N 
HETATM   11  C   UNL     1     -38.491  40.456 -52.005  1.00  0.00     0.180 A 
HETATM   12  C   UNL     1     -34.918  42.172 -56.400  1.00  0.00     0.026 A 
HETATM   13  C   UNL     1     -35.543  42.070 -57.641  1.00  0.00     0.002 A 
HETATM   14  C   UNL     1     -36.914  41.850 -57.710  1.00  0.00     0.002 A 
HETATM   15  C   UNL     1     -37.655  41.717 -56.534  1.00  0.00     0.031 A 
HETATM   16  H   UNL     1     -35.505  42.906 -53.465  1.00  0.00     0.128 HD
HETATM   17  H   UNL     1     -38.841  41.518 -54.341  1.00  0.00     0.166 HD
HETATM   18  H   UNL     1     -38.005  39.427 -50.145  1.00  0.00     0.163 HD
ENDROOT
BRANCH   1  19
HETATM   19  C   UNL     1     -34.073  39.903 -53.799  1.00  0.00    -0.002 A 
HETATM   20  C   UNL     1     -34.670  38.788 -54.413  1.00  0.00     0.012 A 
HETATM   21  C   UNL     1     -33.887  37.768 -54.965  1.00  0.00     0.001 A 
HETATM   22  C   UNL     1     -32.496  37.841 -54.910  1.00  0.00     0.003 A 
HETATM   23  C   UNL     1     -31.884  38.945 -54.325  1.00  0.00     0.037 A 
HETATM   24  C   UNL     1     -32.668  39.966 -53.797  1.00  0.00     0.073 A 
BRANCH  24  25
HETATM   25  O   UNL     1     -32.005  41.059 -53.303  1.00  0.00    -0.360 OA
HETATM   26  H   UNL     1     -32.522  41.367 -52.528  1.00  0.00     0.217 HD
ENDBRANCH  24  25
ENDBRANCH   1  19
TORSDOF 2
ENDMDL
MODEL 3
REMARK VINA RESULT:      -7.3      1.531      2.220
REMARK  2 active torsions:
REMARK  status: ('A' for Active; 'I' for Inactive)
REMARK    1  A    between atoms: C_3  and  C_4 
REMARK    2  A    between atoms: C_19  and  O_20 
ROOT
HETATM    1  C   UNL     1     -42.704  55.506 -52.357  1.00  0.00     0.137 C 
HETATM    2  N   UNL     1     -43.928  55.518 -53.212  1.00  0.00    -0.278 NA
HETATM    3  C   UNL     1     -43.703  55.884 -54.571  1.00  0.00     0.036 A 
HETATM    4  C   UNL     1     -42.954  55.089 -55.470  1.00  0.00     0.053 A 
HETATM    5  N   UNL     1     -42.275  53.907 -55.089  1.00  0.00    -0.356 N 
HETATM    6  C   UNL     1     -41.651  53.707 -53.878  1.00  0.00     0.041 A 
HETATM    7  C   UNL     1     -41.794  54.396 -52.735  1.00  0.00     0.056 A 
HETATM    8  C   UNL     1     -40.904  53.774 -51.745  1.00  0.00     0.251 A 
HETATM    9  O   UNL     1     -40.788  54.090 -50.577  1.00  0.00    -0.268 OA
HETATM   10  N   UNL     1     -40.235  52.758 -52.376  1.00  0.00    -0.351 N 
HETATM   11  C   UNL     1     -40.640  52.602 -53.732  1.00  0.00     0.180 A 
HETATM   12  C   UNL     1     -44.297  57.070 -55.029  1.00  0.00     0.026 A 
HETATM   13  C   UNL     1     -44.172  57.468 -56.359  1.00  0.00     0.002 A 
HETATM   14  C   UNL     1     -43.459  56.679 -57.254  1.00  0.00     0.002 A 
HETATM   15  C   UNL     1     -42.859  55.498 -56.813  1.00  0.00     0.031 A 
HETATM   16  H   UNL     1     -44.251  54.547 -53.260  1.00  0.00     0.128 HD
HETATM   17  H   UNL     1     -41.859  53.408 -55.870  1.00  0.00     0.166 HD
HETATM   18  H   UNL     1     -39.581  52.172 -51.875  1.00  0.00     0.163 HD
ENDROOT
BRANCH   1  19
HETATM   19  C   UNL     1     -42.126  56.909 -52.222  1.00  0.00    -0.002 A 
HETATM   20  C   UNL     1     -40.985  57.335 -52.923  1.00  0.00     0.012 A 
HETATM   21  C   UNL     1     -40.449  58.611 -52.716  1.00  0.00     0.001 A 
HETATM   22  C   UNL     1     -41.040  59.482 -51.803  1.00  0.00     0.003 A 
HETATM   23  C   UNL     1     -42.182  59.089 -51.112  1.00  0.00     0.037 A 
HETATM   24  C   UNL     1     -42.722  57.827 -51.337  1.00  0.00     0.073 A 
BRANCH  24  25
HETATM   25  O   UNL     1     -43.888  57.529 -50.683  1.00  0.00    -0.360 OA
HETATM   26  H   UNL     1     -43.700  56.740 -50.131  1.00  0.00     0.217 HD
ENDBRANCH  24  25
ENDBRANCH   1  19
TORSDOF 2
ENDMDL
MODEL 4
REMARK VINA RESULT:      -7.3      2.283      5.037
REMARK  2 active torsions:
REMARK  status: ('A' for Active; 'I' for Inactive)
REMARK    1  A    between atoms: C_3  and  C_4 
REMARK    2  A    between atoms: C_19  and  O_20 
ROOT
HETATM    1  C   UNL     1     -43.182  56.550 -52.426  1.00  0.00     0.137 C 
HETATM    2  N   UNL     1     -43.409  55.590 -51.305  1.00  0.00    -0.278 NA
HETATM    3  C   UNL     1     -42.220  55.030 -50.750  1.00  0.00     0.036 A 
HETATM    4  C   UNL     1     -41.265  55.797 -50.042  1.00  0.00     0.053 A 
HETATM    5  N   UNL     1     -41.340  57.203 -49.900  1.00  0.00    -0.356 N 
HETATM    6  C   UNL     1     -41.812  58.072 -50.857  1.00  0.00     0.041 A 
HETATM    7  C   UNL     1     -42.554  57.804 -51.943  1.00  0.00     0.056 A 
HETATM    8  C   UNL     1     -42.786  59.082 -52.630  1.00  0.00     0.251 A 
HETATM    9  O   UNL     1     -43.455  59.254 -53.630  1.00  0.00    -0.268 OA
HETATM   10  N   UNL     1     -42.122  60.053 -51.927  1.00  0.00    -0.351 N 
HETATM   11  C   UNL     1     -41.482  59.537 -50.764  1.00  0.00     0.180 A 
HETATM   12  C   UNL     1     -42.032  53.647 -50.885  1.00  0.00     0.026 A 
HETATM   13  C   UNL     1     -40.925  53.014 -50.321  1.00  0.00     0.002 A 
HETATM   14  C   UNL     1     -39.995  53.757 -49.603  1.00  0.00     0.002 A 
HETATM   15  C   UNL     1     -40.167  55.135 -49.463  1.00  0.00     0.031 A 
HETATM   16  H   UNL     1     -43.813  56.137 -50.539  1.00  0.00     0.128 HD
HETATM   17  H   UNL     1     -40.626  57.588 -49.290  1.00  0.00     0.166 HD
HETATM   18  H   UNL     1     -42.165  61.023 -52.206  1.00  0.00     0.163 HD
ENDROOT
BRANCH   1  19
HETATM   19  C   UNL     1     -42.567  55.841 -53.627  1.00  0.00    -0.002 A 
HETATM   20  C   UNL     1     -41.190  55.869 -53.907  1.00  0.00     0.012 A 
HETATM   21  C   UNL     1     -40.678  55.261 -55.059  1.00  0.00     0.001 A 
HETATM   22  C   UNL     1     -41.532  54.619 -55.953  1.00  0.00     0.003 A 
HETATM   23  C   UNL     1     -42.897  54.561 -55.687  1.00  0.00     0.037 A 
HETATM   24  C   UNL     1     -43.397  55.150 -54.529  1.00  0.00     0.073 A 
BRANCH  24  25
HETATM   25  O   UNL     1     -44.737  54.993 -54.288  1.00  0.00    -0.360 OA
HETATM   26  H   UNL     1     -44.863  54.052 -54.040  1.00  0.00     0.217 HD
ENDBRANCH  24  25
ENDBRANCH   1  19
TORSDOF 2
ENDMDL
MODEL 5
REMARK VINA RESULT:      -7.2      3.038      6.177
REMARK  2 active torsions:
REMARK  status: ('A' for Active; 'I' for Inactive)
REMARK    1  A    between atoms: C_3  and  C_4 
REMARK    2  A    between atoms: C_19  and  O_20 
ROOT
HETATM    1  C   UNL     1     -42.970  56.224 -54.601  1.00  0.00     0.137 C 
HETATM    2  N   UNL     1     -43.332  56.809 -53.276  1.00  0.00    -0.278 NA
HETATM    3  C   UNL     1     -42.258  57.455 -52.596  1.00  0.00     0.036 A 
HETATM    4  C   UNL     1     -41.647  58.639 -53.071  1.00  0.00     0.053 A 
HETATM    5  N   UNL     1     -41.969  59.243 -54.310  1.00  0.00    -0.356 N 
HETATM    6  C   UNL     1     -42.303  58.564 -55.459  1.00  0.00     0.041 A 
HETATM    7  C   UNL     1     -42.687  57.285 -55.599  1.00  0.00     0.056 A 
HETATM    8  C   UNL     1     -42.925  57.062 -57.032  1.00  0.00     0.251 A 
HETATM    9  O   UNL     1     -43.328  56.038 -57.547  1.00  0.00    -0.268 OA
HETATM   10  N   UNL     1     -42.621  58.228 -57.684  1.00  0.00    -0.351 N 
HETATM   11  C   UNL     1     -42.234  59.265 -56.789  1.00  0.00     0.180 A 
HETATM   12  C   UNL     1     -41.834  56.899 -51.380  1.00  0.00     0.026 A 
HETATM   13  C   UNL     1     -40.828  57.504 -50.627  1.00  0.00     0.002 A 
HETATM   14  C   UNL     1     -40.241  58.681 -51.074  1.00  0.00     0.002 A 
HETATM   15  C   UNL     1     -40.650  59.245 -52.284  1.00  0.00     0.031 A 
HETATM   16  H   UNL     1     -44.000  57.561 -53.469  1.00  0.00     0.128 HD
HETATM   17  H   UNL     1     -41.505  60.133 -54.461  1.00  0.00     0.166 HD
HETATM   18  H   UNL     1     -42.736  58.313 -58.685  1.00  0.00     0.163 HD
ENDROOT
BRANCH   1  19
HETATM   19  C   UNL     1     -41.965  55.091 -54.435  1.00  0.00    -0.002 A 
HETATM   20  C   UNL     1     -40.752  55.037 -55.145  1.00  0.00     0.012 A 
HETATM   21  C   UNL     1     -39.890  53.943 -55.011  1.00  0.00     0.001 A 
HETATM   22  C   UNL     1     -40.225  52.882 -54.171  1.00  0.00     0.003 A 
HETATM   23  C   UNL     1     -41.411  52.923 -53.444  1.00  0.00     0.037 A 
HETATM   24  C   UNL     1     -42.254  54.024 -53.565  1.00  0.00     0.073 A 
BRANCH  24  25
HETATM   25  O   UNL     1     -43.367  54.038 -52.766  1.00  0.00    -0.360 OA
HETATM   26  H   UNL     1     -43.109  54.507 -51.944  1.00  0.00     0.217 HD
ENDBRANCH  24  25
ENDBRANCH   1  19
TORSDOF 2
ENDMDL
MODEL 6
REMARK VINA RESULT:      -7.1      2.302      4.049
REMARK  2 active torsions:
REMARK  status: ('A' for Active; 'I' for Inactive)
REMARK    1  A    between atoms: C_3  and  C_4 
REMARK    2  A    between atoms: C_19  and  O_20 
ROOT
HETATM    1  C   UNL     1     -42.639  56.024 -52.148  1.00  0.00     0.137 C 
HETATM    2  N   UNL     1     -44.011  56.555 -51.891  1.00  0.00    -0.278 NA
HETATM    3  C   UNL     1     -44.470  57.507 -52.848  1.00  0.00     0.036 A 
HETATM    4  C   UNL     1     -44.736  57.176 -54.198  1.00  0.00     0.053 A 
HETATM    5  N   UNL     1     -44.481  55.901 -54.755  1.00  0.00    -0.356 N 
HETATM    6  C   UNL     1     -43.420  55.089 -54.422  1.00  0.00     0.041 A 
HETATM    7  C   UNL     1     -42.615  55.155 -53.350  1.00  0.00     0.056 A 
HETATM    8  C   UNL     1     -41.646  54.056 -53.472  1.00  0.00     0.251 A 
HETATM    9  O   UNL     1     -40.782  53.761 -52.670  1.00  0.00    -0.268 OA
HETATM   10  N   UNL     1     -41.904  53.412 -54.654  1.00  0.00    -0.351 N 
HETATM   11  C   UNL     1     -43.024  53.963 -55.339  1.00  0.00     0.180 A 
HETATM   12  C   UNL     1     -44.706  58.815 -52.399  1.00  0.00     0.026 A 
HETATM   13  C   UNL     1     -45.210  59.790 -53.259  1.00  0.00     0.002 A 
HETATM   14  C   UNL     1     -45.497  59.466 -54.579  1.00  0.00     0.002 A 
HETATM   15  C   UNL     1     -45.265  58.169 -55.042  1.00  0.00     0.031 A 
HETATM   16  H   UNL     1     -44.649  55.761 -51.996  1.00  0.00     0.128 HD
HETATM   17  H   UNL     1     -44.809  55.802 -55.710  1.00  0.00     0.166 HD
HETATM   18  H   UNL     1     -41.370  52.600 -54.934  1.00  0.00     0.163 HD
ENDROOT
BRANCH   1  19
HETATM   19  C   UNL     1     -41.600  57.132 -52.027  1.00  0.00    -0.002 A 
HETATM   20  C   UNL     1     -41.066  57.802 -53.142  1.00  0.00     0.012 A 
HETATM   21  C   UNL     1     -40.063  58.765 -52.988  1.00  0.00     0.001 A 
HETATM   22  C   UNL     1     -39.572  59.074 -51.720  1.00  0.00     0.003 A 
HETATM   23  C   UNL     1     -40.100  58.437 -50.601  1.00  0.00     0.037 A 
HETATM   24  C   UNL     1     -41.112  57.495 -50.759  1.00  0.00     0.073 A 
BRANCH  24  25
HETATM   25  O   UNL     1     -41.640  56.961 -49.613  1.00  0.00    -0.360 OA
HETATM   26  H   UNL     1     -40.942  57.038 -48.926  1.00  0.00     0.217 HD
ENDBRANCH  24  25
ENDBRANCH   1  19
TORSDOF 2
ENDMDL
MODEL 7
REMARK VINA RESULT:      -6.9      2.403      3.810
REMARK  2 active torsions:
REMARK  status: ('A' for Active; 'I' for Inactive)
REMARK    1  A    between atoms: C_3  and  C_4 
REMARK    2  A    between atoms: C_19  and  O_20 
ROOT
HETATM    1  C   UNL     1     -43.540  57.153 -52.679  1.00  0.00     0.137 C 
HETATM    2  N   UNL     1     -43.760  55.683 -52.535  1.00  0.00    -0.278 NA
HETATM    3  C   UNL     1     -42.650  54.874 -52.918  1.00  0.00     0.036 A 
HETATM    4  C   UNL     1     -41.422  54.866 -52.214  1.00  0.00     0.053 A 
HETATM    5  N   UNL     1     -41.139  55.727 -51.127  1.00  0.00    -0.356 N 
HETATM    6  C   UNL     1     -41.574  57.028 -51.012  1.00  0.00     0.041 A 
HETATM    7  C   UNL     1     -42.555  57.649 -51.686  1.00  0.00     0.056 A 
HETATM    8  C   UNL     1     -42.613  59.029 -51.184  1.00  0.00     0.251 A 
HETATM    9  O   UNL     1     -43.406  59.888 -51.519  1.00  0.00    -0.268 OA
HETATM   10  N   UNL     1     -41.617  59.170 -50.253  1.00  0.00    -0.351 N 
HETATM   11  C   UNL     1     -40.900  57.958 -50.040  1.00  0.00     0.180 A 
HETATM   12  C   UNL     1     -42.819  54.021 -54.019  1.00  0.00     0.026 A 
HETATM   13  C   UNL     1     -41.801  53.157 -54.421  1.00  0.00     0.002 A 
HETATM   14  C   UNL     1     -40.602  53.126 -53.719  1.00  0.00     0.002 A 
HETATM   15  C   UNL     1     -40.418  53.971 -52.623  1.00  0.00     0.031 A 
HETATM   16  H   UNL     1     -43.869  55.507 -51.532  1.00  0.00     0.128 HD
HETATM   17  H   UNL     1     -40.250  55.534 -50.677  1.00  0.00     0.166 HD
HETATM   18  H   UNL     1     -41.487  60.039 -49.754  1.00  0.00     0.163 HD
ENDROOT
BRANCH   1  19
HETATM   19  C   UNL     1     -43.354  57.531 -54.143  1.00  0.00    -0.002 A 
HETATM   20  C   UNL     1     -42.207  58.189 -54.622  1.00  0.00     0.012 A 
HETATM   21  C   UNL     1     -42.109  58.578 -55.962  1.00  0.00     0.001 A 
HETATM   22  C   UNL     1     -43.155  58.321 -56.847  1.00  0.00     0.003 A 
HETATM   23  C   UNL     1     -44.291  57.654 -56.400  1.00  0.00     0.037 A 
HETATM   24  C   UNL     1     -44.374  57.251 -55.071  1.00  0.00     0.073 A 
BRANCH  24  25
HETATM   25  O   UNL     1     -45.484  56.533 -54.712  1.00  0.00    -0.360 OA
HETATM   26  H   UNL     1     -45.489  56.505 -53.732  1.00  0.00     0.217 HD
ENDBRANCH  24  25
ENDBRANCH   1  19
TORSDOF 2
ENDMDL
MODEL 8
REMARK VINA RESULT:      -6.9      2.793      4.923
REMARK  2 active torsions:
REMARK  status: ('A' for Active; 'I' for Inactive)
REMARK    1  A    between atoms: C_3  and  C_4 
REMARK    2  A    between atoms: C_19  and  O_20 
ROOT
HETATM    1  C   UNL     1     -41.657  56.996 -54.442  1.00  0.00     0.137 C 
HETATM    2  N   UNL     1     -40.715  56.417 -53.438  1.00  0.00    -0.278 NA
HETATM    3  C   UNL     1     -41.344  55.801 -52.316  1.00  0.00     0.036 A 
HETATM    4  C   UNL     1     -42.125  54.626 -52.419  1.00  0.00     0.053 A 
HETATM    5  N   UNL     1     -42.442  54.003 -53.649  1.00  0.00    -0.356 N 
HETATM    6  C   UNL     1     -42.688  54.663 -54.832  1.00  0.00     0.041 A 
HETATM    7  C   UNL     1     -42.398  55.931 -55.162  1.00  0.00     0.056 A 
HETATM    8  C   UNL     1     -42.870  56.135 -56.539  1.00  0.00     0.251 A 
HETATM    9  O   UNL     1     -42.747  57.144 -57.204  1.00  0.00    -0.268 OA
HETATM   10  N   UNL     1     -43.465  54.969 -56.945  1.00  0.00    -0.351 N 
HETATM   11  C   UNL     1     -43.393  53.950 -55.953  1.00  0.00     0.180 A 
HETATM   12  C   UNL     1     -41.128  56.378 -51.056  1.00  0.00     0.026 A 
HETATM   13  C   UNL     1     -41.660  55.804 -49.903  1.00  0.00     0.002 A 
HETATM   14  C   UNL     1     -42.407  54.636 -49.993  1.00  0.00     0.002 A 
HETATM   15  C   UNL     1     -42.634  54.051 -51.240  1.00  0.00     0.031 A 
HETATM   16  H   UNL     1     -40.232  55.648 -53.912  1.00  0.00     0.128 HD
HETATM   17  H   UNL     1     -42.935  53.122 -53.543  1.00  0.00     0.166 HD
HETATM   18  H   UNL     1     -43.843  54.872 -57.878  1.00  0.00     0.163 HD
ENDROOT
BRANCH   1  19
HETATM   19  C   UNL     1     -42.445  58.153 -53.838  1.00  0.00    -0.002 A 
HETATM   20  C   UNL     1     -43.842  58.126 -53.685  1.00  0.00     0.012 A 
HETATM   21  C   UNL     1     -44.531  59.239 -53.189  1.00  0.00     0.001 A 
HETATM   22  C   UNL     1     -43.839  60.397 -52.840  1.00  0.00     0.003 A 
HETATM   23  C   UNL     1     -42.454  60.439 -52.964  1.00  0.00     0.037 A 
HETATM   24  C   UNL     1     -41.772  59.322 -53.439  1.00  0.00     0.073 A 
BRANCH  24  25
HETATM   25  O   UNL     1     -40.404  59.401 -53.466  1.00  0.00    -0.360 OA
HETATM   26  H   UNL     1     -40.179  60.333 -53.260  1.00  0.00     0.217 HD
ENDBRANCH  24  25
ENDBRANCH   1  19
TORSDOF 2
ENDMDL
MODEL 9
REMARK VINA RESULT:      -6.8      2.423      5.354
REMARK  2 active torsions:
REMARK  status: ('A' for Active; 'I' for Inactive)
REMARK    1  A    between atoms: C_3  and  C_4 
REMARK    2  A    between atoms: C_19  and  O_20 
ROOT
HETATM    1  C   UNL     1     -43.679  55.745 -53.585  1.00  0.00     0.137 C 
HETATM    2  N   UNL     1     -44.365  56.941 -53.012  1.00  0.00    -0.278 NA
HETATM    3  C   UNL     1     -43.502  58.034 -52.709  1.00  0.00     0.036 A 
HETATM    4  C   UNL     1     -42.814  58.772 -53.701  1.00  0.00     0.053 A 
HETATM    5  N   UNL     1     -42.834  58.440 -55.077  1.00  0.00    -0.356 N 
HETATM    6  C   UNL     1     -42.863  57.160 -55.582  1.00  0.00     0.041 A 
HETATM    7  C   UNL     1     -43.179  56.016 -54.956  1.00  0.00     0.056 A 
HETATM    8  C   UNL     1     -43.054  54.936 -55.945  1.00  0.00     0.251 A 
HETATM    9  O   UNL     1     -43.301  53.759 -55.766  1.00  0.00    -0.268 OA
HETATM   10  N   UNL     1     -42.621  55.500 -57.116  1.00  0.00    -0.351 N 
HETATM   11  C   UNL     1     -42.483  56.914 -57.018  1.00  0.00     0.180 A 
HETATM   12  C   UNL     1     -43.378  58.408 -51.362  1.00  0.00     0.026 A 
HETATM   13  C   UNL     1     -42.599  59.502 -50.989  1.00  0.00     0.002 A 
HETATM   14  C   UNL     1     -41.941  60.246 -51.961  1.00  0.00     0.002 A 
HETATM   15  C   UNL     1     -42.051  59.885 -53.305  1.00  0.00     0.031 A 
HETATM   16  H   UNL     1     -44.978  57.299 -53.751  1.00  0.00     0.128 HD
HETATM   17  H   UNL     1     -42.362  59.119 -55.665  1.00  0.00     0.166 HD
HETATM   18  H   UNL     1     -42.489  54.942 -57.949  1.00  0.00     0.163 HD
ENDROOT
BRANCH   1  19
HETATM   19  C   UNL     1     -42.725  55.131 -52.568  1.00  0.00    -0.002 A 
HETATM   20  C   UNL     1     -41.365  54.900 -52.840  1.00  0.00     0.012 A 
HETATM   21  C   UNL     1     -40.541  54.270 -51.900  1.00  0.00     0.001 A 
HETATM   22  C   UNL     1     -41.061  53.857 -50.675  1.00  0.00     0.003 A 
HETATM   23  C   UNL     1     -42.399  54.093 -50.376  1.00  0.00     0.037 A 
HETATM   24  C   UNL     1     -43.208  54.738 -51.307  1.00  0.00     0.073 A 
BRANCH  24  25
HETATM   25  O   UNL     1     -44.496  55.008 -50.922  1.00  0.00    -0.360 OA
HETATM   26  H   UNL     1     -45.014  54.195 -51.107  1.00  0.00     0.217 HD
ENDBRANCH  24  25
ENDBRANCH   1  19
TORSDOF 2
ENDMDL
MODEL 10
REMARK VINA RESULT:      -6.6     15.278     17.672
REMARK  2 active torsions:
REMARK  status: ('A' for Active; 'I' for Inactive)
REMARK    1  A    between atoms: C_3  and  C_4 
REMARK    2  A    between atoms: C_19  and  O_20 
ROOT
HETATM    1  C   UNL     1     -36.567  39.579 -55.402  1.00  0.00     0.137 C 
HETATM    2  N   UNL     1     -35.477  38.558 -55.367  1.00  0.00    -0.278 NA
HETATM    3  C   UNL     1     -34.190  39.048 -55.736  1.00  0.00     0.036 A 
HETATM    4  C   UNL     1     -33.474  39.992 -54.964  1.00  0.00     0.053 A 
HETATM    5  N   UNL     1     -34.000  40.617 -53.808  1.00  0.00    -0.356 N 
HETATM    6  C   UNL     1     -35.316  40.983 -53.635  1.00  0.00     0.041 A 
HETATM    7  C   UNL     1     -36.397  40.584 -54.323  1.00  0.00     0.056 A 
HETATM    8  C   UNL     1     -37.557  41.270 -53.737  1.00  0.00     0.251 A 
HETATM    9  O   UNL     1     -38.720  41.131 -54.061  1.00  0.00    -0.268 OA
HETATM   10  N   UNL     1     -37.089  42.089 -52.743  1.00  0.00    -0.351 N 
HETATM   11  C   UNL     1     -35.681  41.979 -52.567  1.00  0.00     0.180 A 
HETATM   12  C   UNL     1     -33.606  38.522 -56.898  1.00  0.00     0.026 A 
HETATM   13  C   UNL     1     -32.326  38.906 -57.296  1.00  0.00     0.002 A 
HETATM   14  C   UNL     1     -31.607  39.814 -56.528  1.00  0.00     0.002 A 
HETATM   15  C   UNL     1     -32.176  40.349 -55.371  1.00  0.00     0.031 A 
HETATM   16  H   UNL     1     -35.374  38.285 -54.386  1.00  0.00     0.128 HD
HETATM   17  H   UNL     1     -33.328  41.202 -53.321  1.00  0.00     0.166 HD
HETATM   18  H   UNL     1     -37.721  42.644 -52.181  1.00  0.00     0.163 HD
ENDROOT
BRANCH   1  19
HETATM   19  C   UNL     1     -36.803  40.069 -56.825  1.00  0.00    -0.002 A 
HETATM   20  C   UNL     1     -36.503  41.378 -57.241  1.00  0.00     0.012 A 
HETATM   21  C   UNL     1     -36.800  41.805 -58.540  1.00  0.00     0.001 A 
HETATM   22  C   UNL     1     -37.405  40.934 -59.445  1.00  0.00     0.003 A 
HETATM   23  C   UNL     1     -37.694  39.628 -59.061  1.00  0.00     0.037 A 
HETATM   24  C   UNL     1     -37.377  39.204 -57.775  1.00  0.00     0.073 A 
BRANCH  24  25
HETATM   25  O   UNL     1     -37.616  37.886 -57.484  1.00  0.00    -0.360 OA
HETATM   26  H   UNL     1     -38.586  37.759 -57.563  1.00  0.00     0.217 HD
ENDBRANCH  24  25
ENDBRANCH   1  19
TORSDOF 2
ENDMDL
