MODEL 1
REMARK VINA RESULT:      -7.7      0.000      0.000
REMARK  5 active torsions:
REMARK  status: ('A' for Active; 'I' for Inactive)
REMARK    1  A    between atoms: C_2  and  C_3 
REMARK       I    between atoms: C_3  and  N_4 
REMARK    2  A    between atoms: N_4  and  C_5 
REMARK    3  A    between atoms: C_5  and  C_6 
REMARK    4  A    between atoms: C_5  and  C_17 
REMARK    5  A    between atoms: C_7  and  O_8 
ROOT
HETATM    1  C   UNL     1     -41.230  57.182 -53.805  1.00  0.00     0.154 C 
ENDROOT
BRANCH   1   2
HETATM    2  N   UNL     1     -41.068  57.714 -52.456  1.00  0.00    -0.348 N 
HETATM    3  C   UNL     1     -40.167  58.708 -52.160  1.00  0.00     0.218 C 
HETATM    4  O   UNL     1     -39.397  59.203 -52.976  1.00  0.00    -0.274 OA
HETATM    5  H   UNL     1     -41.735  57.426 -51.758  1.00  0.00     0.163 HD
BRANCH   3   6
HETATM    6  C   UNL     1     -40.237  59.208 -50.730  1.00  0.00     0.098 C 
HETATM    7  C   UNL     1     -38.937  59.823 -50.245  1.00  0.00     0.014 C 
ENDBRANCH   3   6
ENDBRANCH   1   2
BRANCH   1   8
HETATM    8  C   UNL     1     -40.857  55.703 -53.810  1.00  0.00     0.005 A 
HETATM    9  C   UNL     1     -40.807  54.958 -52.622  1.00  0.00     0.103 A 
HETATM   10  C   UNL     1     -40.439  53.612 -52.580  1.00  0.00     0.100 A 
HETATM   11  C   UNL     1     -40.105  52.977 -53.790  1.00  0.00    -0.004 A 
HETATM   12  N   UNL     1     -40.407  52.976 -51.388  1.00  0.00    -0.257 NA
HETATM   13  C   UNL     1     -40.146  53.696 -54.996  1.00  0.00     0.014 A 
HETATM   14  C   UNL     1     -39.726  51.628 -53.738  1.00  0.00     0.015 A 
HETATM   15  C   UNL     1     -40.514  55.044 -55.003  1.00  0.00     0.013 A 
HETATM   16  C   UNL     1     -39.690  50.967 -52.516  1.00  0.00     0.020 A 
HETATM   17  C   UNL     1     -40.035  51.676 -51.380  1.00  0.00     0.117 A 
BRANCH   9  18
HETATM   18  O   UNL     1     -41.110  55.568 -51.426  1.00  0.00    -0.358 OA
HETATM   19  H   UNL     1     -40.731  54.969 -50.747  1.00  0.00     0.218 HD
ENDBRANCH   9  18
ENDBRANCH   1   8
BRANCH   1  20
HETATM   20  C   UNL     1     -42.639  57.406 -54.368  1.00  0.00    -0.031 A 
HETATM   21  C   UNL     1     -43.809  57.014 -53.694  1.00  0.00     0.009 A 
HETATM   22  C   UNL     1     -45.067  57.225 -54.264  1.00  0.00     0.001 A 
HETATM   23  C   UNL     1     -45.178  57.826 -55.515  1.00  0.00     0.000 A 
HETATM   24  C   UNL     1     -44.033  58.226 -56.196  1.00  0.00     0.001 A 
HETATM   25  C   UNL     1     -42.775  58.022 -55.627  1.00  0.00     0.009 A 
ENDBRANCH   1  20
TORSDOF 5
ENDMDL
MODEL 2
REMARK VINA RESULT:      -7.6      1.710      3.813
REMARK  5 active torsions:
REMARK  status: ('A' for Active; 'I' for Inactive)
REMARK    1  A    between atoms: C_2  and  C_3 
REMARK       I    between atoms: C_3  and  N_4 
REMARK    2  A    between atoms: N_4  and  C_5 
REMARK    3  A    between atoms: C_5  and  C_6 
REMARK    4  A    between atoms: C_5  and  C_17 
REMARK    5  A    between atoms: C_7  and  O_8 
ROOT
HETATM    1  C   UNL     1     -42.541  56.020 -52.624  1.00  0.00     0.154 C 
ENDROOT
BRANCH   1   2
HETATM    2  N   UNL     1     -43.374  56.407 -53.758  1.00  0.00    -0.348 N 
HETATM    3  C   UNL     1     -44.471  57.223 -53.622  1.00  0.00     0.218 C 
HETATM    4  O   UNL     1     -44.872  57.663 -52.549  1.00  0.00    -0.274 OA
HETATM    5  H   UNL     1     -43.047  56.167 -54.680  1.00  0.00     0.163 HD
BRANCH   3   6
HETATM    6  C   UNL     1     -45.129  57.607 -54.933  1.00  0.00     0.098 C 
HETATM    7  C   UNL     1     -44.146  57.731 -56.083  1.00  0.00     0.014 C 
ENDBRANCH   3   6
ENDBRANCH   1   2
BRANCH   1   8
HETATM    8  C   UNL     1     -41.792  54.736 -52.965  1.00  0.00     0.005 A 
HETATM    9  C   UNL     1     -41.352  53.858 -51.963  1.00  0.00     0.103 A 
HETATM   10  C   UNL     1     -40.636  52.690 -52.231  1.00  0.00     0.100 A 
HETATM   11  C   UNL     1     -40.345  52.383 -53.573  1.00  0.00    -0.004 A 
HETATM   12  N   UNL     1     -40.243  51.910 -51.201  1.00  0.00    -0.257 NA
HETATM   13  C   UNL     1     -40.773  53.242 -54.598  1.00  0.00     0.014 A 
HETATM   14  C   UNL     1     -39.617  51.214 -53.833  1.00  0.00     0.015 A 
HETATM   15  C   UNL     1     -41.484  54.406 -54.296  1.00  0.00     0.013 A 
HETATM   16  C   UNL     1     -39.208  50.406 -52.778  1.00  0.00     0.020 A 
HETATM   17  C   UNL     1     -39.541  50.792 -51.493  1.00  0.00     0.117 A 
BRANCH   9  18
HETATM   18  O   UNL     1     -41.609  54.154 -50.643  1.00  0.00    -0.358 OA
HETATM   19  H   UNL     1     -42.575  54.326 -50.618  1.00  0.00     0.218 HD
ENDBRANCH   9  18
ENDBRANCH   1   8
BRANCH   1  20
HETATM   20  C   UNL     1     -41.579  57.130 -52.186  1.00  0.00    -0.031 A 
HETATM   21  C   UNL     1     -41.429  57.536 -50.848  1.00  0.00     0.009 A 
HETATM   22  C   UNL     1     -40.552  58.569 -50.508  1.00  0.00     0.001 A 
HETATM   23  C   UNL     1     -39.812  59.214 -51.495  1.00  0.00     0.000 A 
HETATM   24  C   UNL     1     -39.941  58.824 -52.825  1.00  0.00     0.001 A 
HETATM   25  C   UNL     1     -40.813  57.790 -53.167  1.00  0.00     0.009 A 
ENDBRANCH   1  20
TORSDOF 5
ENDMDL
MODEL 3
REMARK VINA RESULT:      -7.5      2.570      6.118
REMARK  5 active torsions:
REMARK  status: ('A' for Active; 'I' for Inactive)
REMARK    1  A    between atoms: C_2  and  C_3 
REMARK       I    between atoms: C_3  and  N_4 
REMARK    2  A    between atoms: N_4  and  C_5 
REMARK    3  A    between atoms: C_5  and  C_6 
REMARK    4  A    between atoms: C_5  and  C_17 
REMARK    5  A    between atoms: C_7  and  O_8 
ROOT
HETATM    1  C   UNL     1     -41.636  53.591 -52.207  1.00  0.00     0.154 C 
ENDROOT
BRANCH   1   2
HETATM    2  N   UNL     1     -41.043  54.185 -51.013  1.00  0.00    -0.348 N 
HETATM    3  C   UNL     1     -41.789  54.522 -49.910  1.00  0.00     0.218 C 
HETATM    4  O   UNL     1     -43.008  54.399 -49.840  1.00  0.00    -0.274 OA
HETATM    5  H   UNL     1     -40.038  54.222 -50.961  1.00  0.00     0.163 HD
BRANCH   3   6
HETATM    6  C   UNL     1     -40.972  55.011 -48.730  1.00  0.00     0.098 C 
HETATM    7  C   UNL     1     -40.264  53.892 -47.988  1.00  0.00     0.014 C 
ENDBRANCH   3   6
ENDBRANCH   1   2
BRANCH   1   8
HETATM    8  C   UNL     1     -41.834  54.674 -53.263  1.00  0.00     0.005 A 
HETATM    9  C   UNL     1     -43.028  55.406 -53.343  1.00  0.00     0.103 A 
HETATM   10  C   UNL     1     -43.261  56.382 -54.314  1.00  0.00     0.100 A 
HETATM   11  C   UNL     1     -42.246  56.640 -55.253  1.00  0.00    -0.004 A 
HETATM   12  N   UNL     1     -44.447  57.030 -54.322  1.00  0.00    -0.257 NA
HETATM   13  C   UNL     1     -41.039  55.924 -55.198  1.00  0.00     0.014 A 
HETATM   14  C   UNL     1     -42.492  57.614 -56.230  1.00  0.00     0.015 A 
HETATM   15  C   UNL     1     -40.839  54.949 -54.216  1.00  0.00     0.013 A 
HETATM   16  C   UNL     1     -43.710  58.284 -56.247  1.00  0.00     0.020 A 
HETATM   17  C   UNL     1     -44.646  57.961 -55.282  1.00  0.00     0.117 A 
BRANCH   9  18
HETATM   18  O   UNL     1     -44.041  55.151 -52.446  1.00  0.00    -0.358 OA
HETATM   19  H   UNL     1     -44.491  56.017 -52.339  1.00  0.00     0.218 HD
ENDBRANCH   9  18
ENDBRANCH   1   8
BRANCH   1  20
HETATM   20  C   UNL     1     -40.818  52.416 -52.756  1.00  0.00    -0.031 A 
HETATM   21  C   UNL     1     -40.985  51.902 -54.054  1.00  0.00     0.009 A 
HETATM   22  C   UNL     1     -40.226  50.814 -54.495  1.00  0.00     0.001 A 
HETATM   23  C   UNL     1     -39.292  50.222 -53.650  1.00  0.00     0.000 A 
HETATM   24  C   UNL     1     -39.107  50.719 -52.363  1.00  0.00     0.001 A 
HETATM   25  C   UNL     1     -39.860  51.808 -51.922  1.00  0.00     0.009 A 
ENDBRANCH   1  20
TORSDOF 5
ENDMDL
MODEL 4
REMARK VINA RESULT:      -7.3      2.002      5.844
REMARK  5 active torsions:
REMARK  status: ('A' for Active; 'I' for Inactive)
REMARK    1  A    between atoms: C_2  and  C_3 
REMARK       I    between atoms: C_3  and  N_4 
REMARK    2  A    between atoms: N_4  and  C_5 
REMARK    3  A    between atoms: C_5  and  C_6 
REMARK    4  A    between atoms: C_5  and  C_17 
REMARK    5  A    between atoms: C_7  and  O_8 
ROOT
HETATM    1  C   UNL     1     -42.094  54.868 -52.835  1.00  0.00     0.154 C 
ENDROOT
BRANCH   1   2
HETATM    2  N   UNL     1     -41.377  55.841 -52.018  1.00  0.00    -0.348 N 
HETATM    3  C   UNL     1     -41.909  56.371 -50.868  1.00  0.00     0.218 C 
HETATM    4  O   UNL     1     -43.032  56.114 -50.447  1.00  0.00    -0.274 OA
HETATM    5  H   UNL     1     -40.413  56.022 -52.247  1.00  0.00     0.163 HD
BRANCH   3   6
HETATM    6  C   UNL     1     -40.959  57.269 -50.098  1.00  0.00     0.098 C 
HETATM    7  C   UNL     1     -40.426  58.425 -50.924  1.00  0.00     0.014 C 
ENDBRANCH   3   6
ENDBRANCH   1   2
BRANCH   1   8
HETATM    8  C   UNL     1     -42.535  55.531 -54.136  1.00  0.00     0.005 A 
HETATM    9  C   UNL     1     -43.675  56.347 -54.190  1.00  0.00     0.103 A 
HETATM   10  C   UNL     1     -44.130  56.946 -55.366  1.00  0.00     0.100 A 
HETATM   11  C   UNL     1     -43.407  56.717 -56.551  1.00  0.00    -0.004 A 
HETATM   12  N   UNL     1     -45.245  57.708 -55.327  1.00  0.00    -0.257 NA
HETATM   13  C   UNL     1     -42.261  55.905 -56.529  1.00  0.00     0.014 A 
HETATM   14  C   UNL     1     -43.876  57.313 -57.729  1.00  0.00     0.015 A 
HETATM   15  C   UNL     1     -41.835  55.316 -55.335  1.00  0.00     0.013 A 
HETATM   16  C   UNL     1     -45.024  58.097 -57.697  1.00  0.00     0.020 A 
HETATM   17  C   UNL     1     -45.667  58.263 -56.485  1.00  0.00     0.117 A 
BRANCH   9  18
HETATM   18  O   UNL     1     -44.408  56.565 -53.045  1.00  0.00    -0.358 OA
HETATM   19  H   UNL     1     -44.478  55.678 -52.631  1.00  0.00     0.218 HD
ENDBRANCH   9  18
ENDBRANCH   1   8
BRANCH   1  20
HETATM   20  C   UNL     1     -41.278  53.598 -53.102  1.00  0.00    -0.031 A 
HETATM   21  C   UNL     1     -41.452  52.796 -54.244  1.00  0.00     0.009 A 
HETATM   22  C   UNL     1     -40.694  51.636 -54.426  1.00  0.00     0.001 A 
HETATM   23  C   UNL     1     -39.752  51.258 -53.474  1.00  0.00     0.000 A 
HETATM   24  C   UNL     1     -39.559  52.040 -52.340  1.00  0.00     0.001 A 
HETATM   25  C   UNL     1     -40.312  53.202 -52.157  1.00  0.00     0.009 A 
ENDBRANCH   1  20
TORSDOF 5
ENDMDL
MODEL 5
REMARK VINA RESULT:      -7.3      2.016      4.000
REMARK  5 active torsions:
REMARK  status: ('A' for Active; 'I' for Inactive)
REMARK    1  A    between atoms: C_2  and  C_3 
REMARK       I    between atoms: C_3  and  N_4 
REMARK    2  A    between atoms: N_4  and  C_5 
REMARK    3  A    between atoms: C_5  and  C_6 
REMARK    4  A    between atoms: C_5  and  C_17 
REMARK    5  A    between atoms: C_7  and  O_8 
ROOT
HETATM    1  C   UNL     1     -42.478  56.037 -54.322  1.00  0.00     0.154 C 
ENDROOT
BRANCH   1   2
HETATM    2  N   UNL     1     -42.415  56.228 -55.768  1.00  0.00    -0.348 N 
HETATM    3  C   UNL     1     -43.389  56.900 -56.465  1.00  0.00     0.218 C 
HETATM    4  O   UNL     1     -44.406  57.359 -55.957  1.00  0.00    -0.274 OA
HETATM    5  H   UNL     1     -41.561  55.967 -56.236  1.00  0.00     0.163 HD
BRANCH   3   6
HETATM    6  C   UNL     1     -43.078  57.098 -57.936  1.00  0.00     0.098 C 
HETATM    7  C   UNL     1     -43.192  55.822 -58.750  1.00  0.00     0.014 C 
ENDBRANCH   3   6
ENDBRANCH   1   2
BRANCH   1   8
HETATM    8  C   UNL     1     -41.685  54.790 -53.944  1.00  0.00     0.005 A 
HETATM    9  C   UNL     1     -41.676  54.301 -52.629  1.00  0.00     0.103 A 
HETATM   10  C   UNL     1     -40.938  53.183 -52.236  1.00  0.00     0.100 A 
HETATM   11  C   UNL     1     -40.170  52.518 -53.208  1.00  0.00    -0.004 A 
HETATM   12  N   UNL     1     -40.981  52.789 -50.944  1.00  0.00    -0.257 NA
HETATM   13  C   UNL     1     -40.159  52.984 -54.533  1.00  0.00     0.014 A 
HETATM   14  C   UNL     1     -39.424  51.403 -52.803  1.00  0.00     0.015 A 
HETATM   15  C   UNL     1     -40.905  54.109 -54.894  1.00  0.00     0.013 A 
HETATM   16  C   UNL     1     -39.461  50.993 -51.475  1.00  0.00     0.020 A 
HETATM   17  C   UNL     1     -40.246  51.711 -50.592  1.00  0.00     0.117 A 
BRANCH   9  18
HETATM   18  O   UNL     1     -42.405  54.951 -51.659  1.00  0.00    -0.358 OA
HETATM   19  H   UNL     1     -42.232  54.436 -50.842  1.00  0.00     0.218 HD
ENDBRANCH   9  18
ENDBRANCH   1   8
BRANCH   1  20
HETATM   20  C   UNL     1     -41.999  57.264 -53.538  1.00  0.00    -0.031 A 
HETATM   21  C   UNL     1     -40.663  57.700 -53.532  1.00  0.00     0.009 A 
HETATM   22  C   UNL     1     -40.278  58.815 -52.781  1.00  0.00     0.001 A 
HETATM   23  C   UNL     1     -41.218  59.510 -52.025  1.00  0.00     0.000 A 
HETATM   24  C   UNL     1     -42.547  59.098 -52.023  1.00  0.00     0.001 A 
HETATM   25  C   UNL     1     -42.935  57.989 -52.775  1.00  0.00     0.009 A 
ENDBRANCH   1  20
TORSDOF 5
ENDMDL
MODEL 6
REMARK VINA RESULT:      -7.3      2.299      4.213
REMARK  5 active torsions:
REMARK  status: ('A' for Active; 'I' for Inactive)
REMARK    1  A    between atoms: C_2  and  C_3 
REMARK       I    between atoms: C_3  and  N_4 
REMARK    2  A    between atoms: N_4  and  C_5 
REMARK    3  A    between atoms: C_5  and  C_6 
REMARK    4  A    between atoms: C_5  and  C_17 
REMARK    5  A    between atoms: C_7  and  O_8 
ROOT
HETATM    1  C   UNL     1     -42.310  55.943 -53.624  1.00  0.00     0.154 C 
ENDROOT
BRANCH   1   2
HETATM    2  N   UNL     1     -42.175  56.125 -55.066  1.00  0.00    -0.348 N 
HETATM    3  C   UNL     1     -43.147  56.728 -55.826  1.00  0.00     0.218 C 
HETATM    4  O   UNL     1     -44.220  57.126 -55.382  1.00  0.00    -0.274 OA
HETATM    5  H   UNL     1     -41.281  55.915 -55.481  1.00  0.00     0.163 HD
BRANCH   3   6
HETATM    6  C   UNL     1     -42.765  56.933 -57.279  1.00  0.00     0.098 C 
HETATM    7  C   UNL     1     -43.214  55.800 -58.183  1.00  0.00     0.014 C 
ENDBRANCH   3   6
ENDBRANCH   1   2
BRANCH   1   8
HETATM    8  C   UNL     1     -41.534  54.701 -53.199  1.00  0.00     0.005 A 
HETATM    9  C   UNL     1     -41.484  53.557 -54.011  1.00  0.00     0.103 A 
HETATM   10  C   UNL     1     -40.812  52.390 -53.645  1.00  0.00     0.100 A 
HETATM   11  C   UNL     1     -40.154  52.364 -52.402  1.00  0.00    -0.004 A 
HETATM   12  N   UNL     1     -40.826  51.332 -54.486  1.00  0.00    -0.257 NA
HETATM   13  C   UNL     1     -40.186  53.493 -51.567  1.00  0.00     0.014 A 
HETATM   14  C   UNL     1     -39.491  51.185 -52.037  1.00  0.00     0.015 A 
HETATM   15  C   UNL     1     -40.872  54.645 -51.961  1.00  0.00     0.013 A 
HETATM   16  C   UNL     1     -39.503  50.092 -52.896  1.00  0.00     0.020 A 
HETATM   17  C   UNL     1     -40.177  50.212 -54.096  1.00  0.00     0.117 A 
BRANCH   9  18
HETATM   18  O   UNL     1     -42.140  53.557 -55.222  1.00  0.00    -0.358 OA
HETATM   19  H   UNL     1     -42.966  54.057 -55.049  1.00  0.00     0.218 HD
ENDBRANCH   9  18
ENDBRANCH   1   8
BRANCH   1  20
HETATM   20  C   UNL     1     -41.873  57.176 -52.825  1.00  0.00    -0.031 A 
HETATM   21  C   UNL     1     -42.601  57.685 -51.735  1.00  0.00     0.009 A 
HETATM   22  C   UNL     1     -42.167  58.826 -51.055  1.00  0.00     0.001 A 
HETATM   23  C   UNL     1     -41.004  59.479 -51.452  1.00  0.00     0.000 A 
HETATM   24  C   UNL     1     -40.265  58.989 -52.525  1.00  0.00     0.001 A 
HETATM   25  C   UNL     1     -40.694  57.847 -53.203  1.00  0.00     0.009 A 
ENDBRANCH   1  20
TORSDOF 5
ENDMDL
MODEL 7
REMARK VINA RESULT:      -7.3      2.550      6.691
REMARK  5 active torsions:
REMARK  status: ('A' for Active; 'I' for Inactive)
REMARK    1  A    between atoms: C_2  and  C_3 
REMARK       I    between atoms: C_3  and  N_4 
REMARK    2  A    between atoms: N_4  and  C_5 
REMARK    3  A    between atoms: C_5  and  C_6 
REMARK    4  A    between atoms: C_5  and  C_17 
REMARK    5  A    between atoms: C_7  and  O_8 
ROOT
HETATM    1  C   UNL     1     -41.109  54.331 -52.990  1.00  0.00     0.154 C 
ENDROOT
BRANCH   1   2
HETATM    2  N   UNL     1     -41.349  52.942 -53.370  1.00  0.00    -0.348 N 
HETATM    3  C   UNL     1     -40.523  52.261 -54.229  1.00  0.00     0.218 C 
HETATM    4  O   UNL     1     -39.546  52.756 -54.782  1.00  0.00    -0.274 OA
HETATM    5  H   UNL     1     -42.072  52.443 -52.877  1.00  0.00     0.163 HD
BRANCH   3   6
HETATM    6  C   UNL     1     -40.873  50.795 -54.400  1.00  0.00     0.098 C 
HETATM    7  C   UNL     1     -39.656  49.890 -54.459  1.00  0.00     0.014 C 
ENDBRANCH   3   6
ENDBRANCH   1   2
BRANCH   1   8
HETATM    8  C   UNL     1     -42.164  55.220 -53.639  1.00  0.00     0.005 A 
HETATM    9  C   UNL     1     -42.047  55.637 -54.974  1.00  0.00     0.103 A 
HETATM   10  C   UNL     1     -42.973  56.476 -55.595  1.00  0.00     0.100 A 
HETATM   11  C   UNL     1     -44.075  56.921 -54.843  1.00  0.00    -0.004 A 
HETATM   12  N   UNL     1     -42.774  56.835 -56.883  1.00  0.00    -0.257 NA
HETATM   13  C   UNL     1     -44.220  56.521 -53.505  1.00  0.00     0.014 A 
HETATM   14  C   UNL     1     -44.995  57.772 -55.471  1.00  0.00     0.015 A 
HETATM   15  C   UNL     1     -43.272  55.684 -52.910  1.00  0.00     0.013 A 
HETATM   16  C   UNL     1     -44.796  58.148 -56.795  1.00  0.00     0.020 A 
HETATM   17  C   UNL     1     -43.683  57.659 -57.452  1.00  0.00     0.117 A 
BRANCH   9  18
HETATM   18  O   UNL     1     -40.964  55.228 -55.719  1.00  0.00    -0.358 OA
HETATM   19  H   UNL     1     -40.443  54.670 -55.102  1.00  0.00     0.218 HD
ENDBRANCH   9  18
ENDBRANCH   1   8
BRANCH   1  20
HETATM   20  C   UNL     1     -41.064  54.533 -51.471  1.00  0.00    -0.031 A 
HETATM   21  C   UNL     1     -41.181  55.793 -50.858  1.00  0.00     0.009 A 
HETATM   22  C   UNL     1     -41.112  55.921 -49.468  1.00  0.00     0.001 A 
HETATM   23  C   UNL     1     -40.923  54.797 -48.668  1.00  0.00     0.000 A 
HETATM   24  C   UNL     1     -40.810  53.540 -49.254  1.00  0.00     0.001 A 
HETATM   25  C   UNL     1     -40.884  53.408 -50.642  1.00  0.00     0.009 A 
ENDBRANCH   1  20
TORSDOF 5
ENDMDL
MODEL 8
REMARK VINA RESULT:      -7.3      2.456      6.498
REMARK  5 active torsions:
REMARK  status: ('A' for Active; 'I' for Inactive)
REMARK    1  A    between atoms: C_2  and  C_3 
REMARK       I    between atoms: C_3  and  N_4 
REMARK    2  A    between atoms: N_4  and  C_5 
REMARK    3  A    between atoms: C_5  and  C_6 
REMARK    4  A    between atoms: C_5  and  C_17 
REMARK    5  A    between atoms: C_7  and  O_8 
ROOT
HETATM    1  C   UNL     1     -41.683  56.034 -54.865  1.00  0.00     0.154 C 
ENDROOT
BRANCH   1   2
HETATM    2  N   UNL     1     -42.535  55.719 -56.008  1.00  0.00    -0.348 N 
HETATM    3  C   UNL     1     -42.647  56.551 -57.094  1.00  0.00     0.218 C 
HETATM    4  O   UNL     1     -42.086  57.638 -57.189  1.00  0.00    -0.274 OA
HETATM    5  H   UNL     1     -42.945  54.800 -56.043  1.00  0.00     0.163 HD
BRANCH   3   6
HETATM    6  C   UNL     1     -43.482  55.988 -58.228  1.00  0.00     0.098 C 
HETATM    7  C   UNL     1     -42.769  56.010 -59.567  1.00  0.00     0.014 C 
ENDBRANCH   3   6
ENDBRANCH   1   2
BRANCH   1   8
HETATM    8  C   UNL     1     -42.446  56.940 -53.904  1.00  0.00     0.005 A 
HETATM    9  C   UNL     1     -41.818  58.017 -53.261  1.00  0.00     0.103 A 
HETATM   10  C   UNL     1     -42.471  58.850 -52.351  1.00  0.00     0.100 A 
HETATM   11  C   UNL     1     -43.825  58.592 -52.069  1.00  0.00    -0.004 A 
HETATM   12  N   UNL     1     -41.783  59.858 -51.771  1.00  0.00    -0.257 NA
HETATM   13  C   UNL     1     -44.482  57.521 -52.697  1.00  0.00     0.014 A 
HETATM   14  C   UNL     1     -44.471  59.426 -51.146  1.00  0.00     0.015 A 
HETATM   15  C   UNL     1     -43.797  56.703 -53.600  1.00  0.00     0.013 A 
HETATM   16  C   UNL     1     -43.770  60.464 -50.544  1.00  0.00     0.020 A 
HETATM   17  C   UNL     1     -42.441  60.638 -50.884  1.00  0.00     0.117 A 
BRANCH   9  18
HETATM   18  O   UNL     1     -40.487  58.272 -53.509  1.00  0.00    -0.358 OA
HETATM   19  H   UNL     1     -40.499  59.016 -54.148  1.00  0.00     0.218 HD
ENDBRANCH   9  18
ENDBRANCH   1   8
BRANCH   1  20
HETATM   20  C   UNL     1     -41.153  54.784 -54.155  1.00  0.00    -0.031 A 
HETATM   21  C   UNL     1     -41.076  54.667 -52.756  1.00  0.00     0.009 A 
HETATM   22  C   UNL     1     -40.563  53.511 -52.161  1.00  0.00     0.001 A 
HETATM   23  C   UNL     1     -40.120  52.454 -52.951  1.00  0.00     0.000 A 
HETATM   24  C   UNL     1     -40.193  52.546 -54.338  1.00  0.00     0.001 A 
HETATM   25  C   UNL     1     -40.708  53.698 -54.934  1.00  0.00     0.009 A 
ENDBRANCH   1  20
TORSDOF 5
ENDMDL
MODEL 9
REMARK VINA RESULT:      -7.2      2.552      6.643
REMARK  5 active torsions:
REMARK  status: ('A' for Active; 'I' for Inactive)
REMARK    1  A    between atoms: C_2  and  C_3 
REMARK       I    between atoms: C_3  and  N_4 
REMARK    2  A    between atoms: N_4  and  C_5 
REMARK    3  A    between atoms: C_5  and  C_6 
REMARK    4  A    between atoms: C_5  and  C_17 
REMARK    5  A    between atoms: C_7  and  O_8 
ROOT
HETATM    1  C   UNL     1     -41.497  56.350 -54.256  1.00  0.00     0.154 C 
ENDROOT
BRANCH   1   2
HETATM    2  N   UNL     1     -41.692  54.928 -53.992  1.00  0.00    -0.348 N 
HETATM    3  C   UNL     1     -40.925  53.957 -54.587  1.00  0.00     0.218 C 
HETATM    4  O   UNL     1     -40.046  54.183 -55.413  1.00  0.00    -0.274 OA
HETATM    5  H   UNL     1     -42.326  54.675 -53.251  1.00  0.00     0.163 HD
BRANCH   3   6
HETATM    6  C   UNL     1     -41.202  52.552 -54.088  1.00  0.00     0.098 C 
HETATM    7  C   UNL     1     -39.970  51.664 -54.080  1.00  0.00     0.014 C 
ENDBRANCH   3   6
ENDBRANCH   1   2
BRANCH   1   8
HETATM    8  C   UNL     1     -42.735  56.908 -54.951  1.00  0.00     0.005 A 
HETATM    9  C   UNL     1     -42.938  56.739 -56.329  1.00  0.00     0.103 A 
HETATM   10  C   UNL     1     -44.040  57.261 -57.008  1.00  0.00     0.100 A 
HETATM   11  C   UNL     1     -44.991  57.989 -56.270  1.00  0.00    -0.004 A 
HETATM   12  N   UNL     1     -44.148  57.058 -58.340  1.00  0.00    -0.257 NA
HETATM   13  C   UNL     1     -44.816  58.174 -54.889  1.00  0.00     0.014 A 
HETATM   14  C   UNL     1     -46.089  58.518 -56.961  1.00  0.00     0.015 A 
HETATM   15  C   UNL     1     -43.698  57.643 -54.240  1.00  0.00     0.013 A 
HETATM   16  C   UNL     1     -46.207  58.315 -58.331  1.00  0.00     0.020 A 
HETATM   17  C   UNL     1     -45.221  57.587 -58.970  1.00  0.00     0.117 A 
BRANCH   9  18
HETATM   18  O   UNL     1     -42.006  56.048 -57.072  1.00  0.00    -0.358 OA
HETATM   19  H   UNL     1     -42.194  56.310 -57.999  1.00  0.00     0.218 HD
ENDBRANCH   9  18
ENDBRANCH   1   8
BRANCH   1  20
HETATM   20  C   UNL     1     -41.156  57.149 -52.993  1.00  0.00    -0.031 A 
HETATM   21  C   UNL     1     -40.553  58.419 -53.024  1.00  0.00     0.009 A 
HETATM   22  C   UNL     1     -40.245  59.094 -51.840  1.00  0.00     0.001 A 
HETATM   23  C   UNL     1     -40.531  58.513 -50.607  1.00  0.00     0.000 A 
HETATM   24  C   UNL     1     -41.133  57.259 -50.554  1.00  0.00     0.001 A 
HETATM   25  C   UNL     1     -41.446  56.586 -51.736  1.00  0.00     0.009 A 
ENDBRANCH   1  20
TORSDOF 5
ENDMDL
MODEL 10
REMARK VINA RESULT:      -7.0      2.511      6.350
REMARK  5 active torsions:
REMARK  status: ('A' for Active; 'I' for Inactive)
REMARK    1  A    between atoms: C_2  and  C_3 
REMARK       I    between atoms: C_3  and  N_4 
REMARK    2  A    between atoms: N_4  and  C_5 
REMARK    3  A    between atoms: C_5  and  C_6 
REMARK    4  A    between atoms: C_5  and  C_17 
REMARK    5  A    between atoms: C_7  and  O_8 
ROOT
HETATM    1  C   UNL     1     -40.882  54.301 -53.726  1.00  0.00     0.154 C 
ENDROOT
BRANCH   1   2
HETATM    2  N   UNL     1     -40.808  52.929 -54.219  1.00  0.00    -0.348 N 
HETATM    3  C   UNL     1     -39.984  51.987 -53.652  1.00  0.00     0.218 C 
HETATM    4  O   UNL     1     -39.216  52.215 -52.722  1.00  0.00    -0.274 OA
HETATM    5  H   UNL     1     -41.481  52.646 -54.912  1.00  0.00     0.163 HD
BRANCH   3   6
HETATM    6  C   UNL     1     -40.143  50.593 -54.227  1.00  0.00     0.098 C 
HETATM    7  C   UNL     1     -39.666  49.499 -53.289  1.00  0.00     0.014 C 
ENDBRANCH   3   6
ENDBRANCH   1   2
BRANCH   1   8
HETATM    8  C   UNL     1     -41.570  55.174 -54.771  1.00  0.00     0.005 A 
HETATM    9  C   UNL     1     -41.539  56.574 -54.688  1.00  0.00     0.103 A 
HETATM   10  C   UNL     1     -42.182  57.408 -55.605  1.00  0.00     0.100 A 
HETATM   11  C   UNL     1     -42.893  56.810 -56.661  1.00  0.00    -0.004 A 
HETATM   12  N   UNL     1     -42.107  58.747 -55.441  1.00  0.00    -0.257 NA
HETATM   13  C   UNL     1     -42.943  55.411 -56.770  1.00  0.00     0.014 A 
HETATM   14  C   UNL     1     -43.545  57.653 -57.571  1.00  0.00     0.015 A 
HETATM   15  C   UNL     1     -42.292  54.604 -55.833  1.00  0.00     0.013 A 
HETATM   16  C   UNL     1     -43.474  59.032 -57.408  1.00  0.00     0.020 A 
HETATM   17  C   UNL     1     -42.750  59.526 -56.338  1.00  0.00     0.117 A 
BRANCH   9  18
HETATM   18  O   UNL     1     -40.865  57.177 -53.650  1.00  0.00    -0.358 OA
HETATM   19  H   UNL     1     -39.924  57.154 -53.927  1.00  0.00     0.218 HD
ENDBRANCH   9  18
ENDBRANCH   1   8
BRANCH   1  20
HETATM   20  C   UNL     1     -41.576  54.407 -52.363  1.00  0.00    -0.031 A 
HETATM   21  C   UNL     1     -40.891  54.701 -51.171  1.00  0.00     0.009 A 
HETATM   22  C   UNL     1     -41.571  54.764 -49.952  1.00  0.00     0.001 A 
HETATM   23  C   UNL     1     -42.944  54.535 -49.902  1.00  0.00     0.000 A 
HETATM   24  C   UNL     1     -43.642  54.248 -51.071  1.00  0.00     0.001 A 
HETATM   25  C   UNL     1     -42.966  54.189 -52.291  1.00  0.00     0.009 A 
ENDBRANCH   1  20
TORSDOF 5
ENDMDL
