MODEL 1
REMARK VINA RESULT:      -8.4      0.000      0.000
REMARK  5 active torsions:
REMARK  status: ('A' for Active; 'I' for Inactive)
REMARK    1  A    between atoms: C_3  and  O_4 
REMARK    2  A    between atoms: O_4  and  C_5 
REMARK    3  A    between atoms: C_5  and  C_6 
REMARK       I    between atoms: C_6  and  N_7 
REMARK    4  A    between atoms: N_7  and  N_8 
REMARK    5  A    between atoms: C_9  and  C_10 
ROOT
HETATM    1  C   UNL     1     -42.722  55.405 -56.458  1.00  0.00     0.261 C 
HETATM    2  N   UNL     1     -41.519  55.696 -55.813  1.00  0.00    -0.246 N 
HETATM    3  O   UNL     1     -43.321  54.336 -56.389  1.00  0.00    -0.269 OA
HETATM    4  H   UNL     1     -41.093  56.611 -55.903  1.00  0.00     0.192 HD
ENDROOT
BRANCH   2   5
HETATM    5  N   UNL     1     -40.906  54.748 -55.046  1.00  0.00    -0.184 NA
HETATM    6  C   UNL     1     -41.292  54.689 -53.812  1.00  0.00     0.152 C 
BRANCH   6   7
HETATM    7  C   UNL     1     -40.702  53.721 -52.914  1.00  0.00     0.011 A 
HETATM    8  C   UNL     1     -40.392  52.351 -53.196  1.00  0.00     0.004 A 
HETATM    9  C   UNL     1     -39.836  51.802 -52.039  1.00  0.00     0.043 A 
HETATM   10  C   UNL     1     -40.528  51.523 -54.330  1.00  0.00     0.014 A 
HETATM   11  C   UNL     1     -39.410  50.471 -51.959  1.00  0.00     0.030 A 
HETATM   12  N   UNL     1     -39.810  52.798 -51.089  1.00  0.00    -0.364 N 
HETATM   13  C   UNL     1     -39.556  49.673 -53.098  1.00  0.00     0.002 A 
HETATM   14  C   UNL     1     -40.107  50.189 -54.268  1.00  0.00     0.001 A 
HETATM   15  H   UNL     1     -39.457  52.687 -50.149  1.00  0.00     0.165 HD
HETATM   16  C   UNL     1     -40.325  53.954 -51.604  1.00  0.00     0.102 A 
ENDBRANCH   6   7
ENDBRANCH   2   5
BRANCH   1  17
HETATM   17  C   UNL     1     -43.224  56.609 -57.261  1.00  0.00     0.280 C 
BRANCH  17  18
HETATM   18  O   UNL     1     -43.020  56.463 -58.664  1.00  0.00    -0.341 OA
BRANCH  18  19
HETATM   19  C   UNL     1     -44.203  56.611 -59.343  1.00  0.00     0.081 A 
HETATM   20  C   UNL     1     -44.916  55.480 -59.774  1.00  0.00    -0.027 A 
HETATM   21  C   UNL     1     -44.425  54.085 -59.513  1.00  0.00     0.051 C 
HETATM   22  C   UNL     1     -46.102  55.670 -60.497  1.00  0.00     0.028 A 
HETATM   23  C   UNL     1     -46.578  56.957 -60.741  1.00  0.00     0.012 A 
HETATM   24  C   UNL     1     -45.890  58.073 -60.266  1.00  0.00     0.028 A 
HETATM   25 BR   UNL     1     -48.179  57.193 -61.721  1.00  0.00    -0.051 Br
HETATM   26  C   UNL     1     -44.700  57.910 -59.546  1.00  0.00    -0.027 A 
HETATM   27  C   UNL     1     -43.956  59.113 -59.036  1.00  0.00     0.051 C 
ENDBRANCH  18  19
ENDBRANCH  17  18
ENDBRANCH   1  17
TORSDOF 5
ENDMDL
MODEL 2
REMARK VINA RESULT:      -8.2      0.292      1.757
REMARK  5 active torsions:
REMARK  status: ('A' for Active; 'I' for Inactive)
REMARK    1  A    between atoms: C_3  and  O_4 
REMARK    2  A    between atoms: O_4  and  C_5 
REMARK    3  A    between atoms: C_5  and  C_6 
REMARK       I    between atoms: C_6  and  N_7 
REMARK    4  A    between atoms: N_7  and  N_8 
REMARK    5  A    between atoms: C_9  and  C_10 
ROOT
HETATM    1  C   UNL     1     -42.837  55.605 -56.468  1.00  0.00     0.261 C 
HETATM    2  N   UNL     1     -41.767  56.056 -55.694  1.00  0.00    -0.246 N 
HETATM    3  O   UNL     1     -43.225  54.442 -56.529  1.00  0.00    -0.269 OA
HETATM    4  H   UNL     1     -41.519  57.039 -55.681  1.00  0.00     0.192 HD
ENDROOT
BRANCH   2   5
HETATM    5  N   UNL     1     -41.048  55.176 -54.938  1.00  0.00    -0.184 NA
HETATM    6  C   UNL     1     -41.592  54.825 -53.818  1.00  0.00     0.152 C 
BRANCH   6   7
HETATM    7  C   UNL     1     -40.909  53.898 -52.941  1.00  0.00     0.011 A 
HETATM    8  C   UNL     1     -40.545  52.543 -53.226  1.00  0.00     0.004 A 
HETATM    9  C   UNL     1     -39.904  52.037 -52.093  1.00  0.00     0.043 A 
HETATM   10  C   UNL     1     -40.695  51.695 -54.343  1.00  0.00     0.014 A 
HETATM   11  C   UNL     1     -39.408  50.730 -52.021  1.00  0.00     0.030 A 
HETATM   12  N   UNL     1     -39.881  53.044 -51.154  1.00  0.00    -0.364 N 
HETATM   13  C   UNL     1     -39.569  49.912 -53.143  1.00  0.00     0.002 A 
HETATM   14  C   UNL     1     -40.204  50.385 -54.289  1.00  0.00     0.001 A 
HETATM   15  H   UNL     1     -39.476  52.962 -50.232  1.00  0.00     0.165 HD
HETATM   16  C   UNL     1     -40.480  54.167 -51.654  1.00  0.00     0.102 A 
ENDBRANCH   6   7
ENDBRANCH   2   5
BRANCH   1  17
HETATM   17  C   UNL     1     -43.494  56.759 -57.231  1.00  0.00     0.280 C 
BRANCH  17  18
HETATM   18  O   UNL     1     -43.223  56.724 -58.630  1.00  0.00    -0.341 OA
BRANCH  18  19
HETATM   19  C   UNL     1     -44.381  56.865 -59.352  1.00  0.00     0.081 A 
HETATM   20  C   UNL     1     -44.902  58.145 -59.607  1.00  0.00    -0.027 A 
HETATM   21  C   UNL     1     -44.226  59.390 -59.112  1.00  0.00     0.051 C 
HETATM   22  C   UNL     1     -46.107  58.249 -60.315  1.00  0.00     0.028 A 
HETATM   23  C   UNL     1     -46.745  57.104 -60.791  1.00  0.00     0.012 A 
HETATM   24  C   UNL     1     -46.193  55.840 -60.576  1.00  0.00     0.028 A 
HETATM   25 BR   UNL     1     -48.371  57.264 -61.742  1.00  0.00    -0.051 Br
HETATM   26  C   UNL     1     -44.993  55.710 -59.866  1.00  0.00    -0.027 A 
HETATM   27  C   UNL     1     -44.400  54.348 -59.632  1.00  0.00     0.051 C 
ENDBRANCH  18  19
ENDBRANCH  17  18
ENDBRANCH   1  17
TORSDOF 5
ENDMDL
MODEL 3
REMARK VINA RESULT:      -8.1      2.498      3.242
REMARK  5 active torsions:
REMARK  status: ('A' for Active; 'I' for Inactive)
REMARK    1  A    between atoms: C_3  and  O_4 
REMARK    2  A    between atoms: O_4  and  C_5 
REMARK    3  A    between atoms: C_5  and  C_6 
REMARK       I    between atoms: C_6  and  N_7 
REMARK    4  A    between atoms: N_7  and  N_8 
REMARK    5  A    between atoms: C_9  and  C_10 
ROOT
HETATM    1  C   UNL     1     -43.326  56.246 -55.509  1.00  0.00     0.261 C 
HETATM    2  N   UNL     1     -42.205  55.416 -55.544  1.00  0.00    -0.246 N 
HETATM    3  O   UNL     1     -44.169  56.260 -54.617  1.00  0.00    -0.269 OA
HETATM    4  H   UNL     1     -41.541  55.477 -56.308  1.00  0.00     0.192 HD
ENDROOT
BRANCH   2   5
HETATM    5  N   UNL     1     -41.986  54.517 -54.541  1.00  0.00    -0.184 NA
HETATM    6  C   UNL     1     -40.767  54.442 -54.112  1.00  0.00     0.152 C 
BRANCH   6   7
HETATM    7  C   UNL     1     -40.429  53.517 -53.051  1.00  0.00     0.011 A 
HETATM    8  C   UNL     1     -40.141  52.119 -53.178  1.00  0.00     0.004 A 
HETATM    9  C   UNL     1     -39.868  51.632 -51.898  1.00  0.00     0.043 A 
HETATM   10  C   UNL     1     -40.083  51.219 -54.263  1.00  0.00     0.014 A 
HETATM   11  C   UNL     1     -39.540  50.294 -51.649  1.00  0.00     0.030 A 
HETATM   12  N   UNL     1     -39.987  52.691 -51.027  1.00  0.00    -0.364 N 
HETATM   13  C   UNL     1     -39.488  49.424 -52.742  1.00  0.00     0.002 A 
HETATM   14  C   UNL     1     -39.756  49.877 -54.031  1.00  0.00     0.001 A 
HETATM   15  H   UNL     1     -39.843  52.633 -50.028  1.00  0.00     0.165 HD
HETATM   16  C   UNL     1     -40.321  53.827 -51.709  1.00  0.00     0.102 A 
ENDBRANCH   6   7
ENDBRANCH   2   5
BRANCH   1  17
HETATM   17  C   UNL     1     -43.371  57.168 -56.732  1.00  0.00     0.280 C 
BRANCH  17  18
HETATM   18  O   UNL     1     -42.081  57.419 -57.285  1.00  0.00    -0.341 OA
BRANCH  18  19
HETATM   19  C   UNL     1     -42.151  58.382 -58.260  1.00  0.00     0.081 A 
HETATM   20  C   UNL     1     -42.140  59.742 -57.910  1.00  0.00    -0.027 A 
HETATM   21  C   UNL     1     -42.049  60.195 -56.482  1.00  0.00     0.051 C 
HETATM   22  C   UNL     1     -42.251  60.697 -58.931  1.00  0.00     0.028 A 
HETATM   23  C   UNL     1     -42.327  60.296 -60.264  1.00  0.00     0.012 A 
HETATM   24  C   UNL     1     -42.287  58.945 -60.605  1.00  0.00     0.028 A 
HETATM   25 BR   UNL     1     -42.479  61.600 -61.626  1.00  0.00    -0.051 Br
HETATM   26  C   UNL     1     -42.182  57.971 -59.603  1.00  0.00    -0.027 A 
HETATM   27  C   UNL     1     -42.142  56.514 -59.970  1.00  0.00     0.051 C 
ENDBRANCH  18  19
ENDBRANCH  17  18
ENDBRANCH   1  17
TORSDOF 5
ENDMDL
MODEL 4
REMARK VINA RESULT:      -8.1      2.431      2.824
REMARK  5 active torsions:
REMARK  status: ('A' for Active; 'I' for Inactive)
REMARK    1  A    between atoms: C_3  and  O_4 
REMARK    2  A    between atoms: O_4  and  C_5 
REMARK    3  A    between atoms: C_5  and  C_6 
REMARK       I    between atoms: C_6  and  N_7 
REMARK    4  A    between atoms: N_7  and  N_8 
REMARK    5  A    between atoms: C_9  and  C_10 
ROOT
HETATM    1  C   UNL     1     -43.332  56.486 -55.448  1.00  0.00     0.261 C 
HETATM    2  N   UNL     1     -42.101  55.850 -55.286  1.00  0.00    -0.246 N 
HETATM    3  O   UNL     1     -44.281  56.400 -54.673  1.00  0.00    -0.269 OA
HETATM    4  H   UNL     1     -41.356  55.986 -55.960  1.00  0.00     0.192 HD
ENDROOT
BRANCH   2   5
HETATM    5  N   UNL     1     -41.883  55.042 -54.207  1.00  0.00    -0.184 NA
HETATM    6  C   UNL     1     -40.769  54.385 -54.214  1.00  0.00     0.152 C 
BRANCH   6   7
HETATM    7  C   UNL     1     -40.444  53.498 -53.118  1.00  0.00     0.011 A 
HETATM    8  C   UNL     1     -40.150  52.098 -53.192  1.00  0.00     0.004 A 
HETATM    9  C   UNL     1     -39.895  51.656 -51.892  1.00  0.00     0.043 A 
HETATM   10  C   UNL     1     -40.072  51.161 -54.244  1.00  0.00     0.014 A 
HETATM   11  C   UNL     1     -39.567  50.328 -51.592  1.00  0.00     0.030 A 
HETATM   12  N   UNL     1     -40.031  52.743 -51.059  1.00  0.00    -0.364 N 
HETATM   13  C   UNL     1     -39.495  49.422 -52.653  1.00  0.00     0.002 A 
HETATM   14  C   UNL     1     -39.743  49.829 -53.961  1.00  0.00     0.001 A 
HETATM   15  H   UNL     1     -39.903  52.720 -50.057  1.00  0.00     0.165 HD
HETATM   16  C   UNL     1     -40.359  53.854 -51.785  1.00  0.00     0.102 A 
ENDBRANCH   6   7
ENDBRANCH   2   5
BRANCH   1  17
HETATM   17  C   UNL     1     -43.352  57.336 -56.722  1.00  0.00     0.280 C 
BRANCH  17  18
HETATM   18  O   UNL     1     -42.046  57.660 -57.193  1.00  0.00    -0.341 OA
BRANCH  18  19
HETATM   19  C   UNL     1     -42.119  58.443 -58.318  1.00  0.00     0.081 A 
HETATM   20  C   UNL     1     -42.297  57.852 -59.579  1.00  0.00    -0.027 A 
HETATM   21  C   UNL     1     -42.417  56.365 -59.749  1.00  0.00     0.051 C 
HETATM   22  C   UNL     1     -42.329  58.681 -60.710  1.00  0.00     0.028 A 
HETATM   23  C   UNL     1     -42.228  60.064 -60.570  1.00  0.00     0.012 A 
HETATM   24  C   UNL     1     -42.101  60.646 -59.309  1.00  0.00     0.028 A 
HETATM   25 BR   UNL     1     -42.270  61.165 -62.107  1.00  0.00    -0.051 Br
HETATM   26  C   UNL     1     -42.062  59.839 -58.165  1.00  0.00    -0.027 A 
HETATM   27  C   UNL     1     -41.922  60.465 -56.805  1.00  0.00     0.051 C 
ENDBRANCH  18  19
ENDBRANCH  17  18
ENDBRANCH   1  17
TORSDOF 5
ENDMDL
MODEL 5
REMARK VINA RESULT:      -7.9      3.917      9.434
REMARK  5 active torsions:
REMARK  status: ('A' for Active; 'I' for Inactive)
REMARK    1  A    between atoms: C_3  and  O_4 
REMARK    2  A    between atoms: O_4  and  C_5 
REMARK    3  A    between atoms: C_5  and  C_6 
REMARK       I    between atoms: C_6  and  N_7 
REMARK    4  A    between atoms: N_7  and  N_8 
REMARK    5  A    between atoms: C_9  and  C_10 
ROOT
HETATM    1  C   UNL     1     -42.789  56.500 -54.016  1.00  0.00     0.261 C 
HETATM    2  N   UNL     1     -43.068  55.891 -55.241  1.00  0.00    -0.246 N 
HETATM    3  O   UNL     1     -42.848  57.706 -53.797  1.00  0.00    -0.269 OA
HETATM    4  H   UNL     1     -43.016  54.884 -55.340  1.00  0.00     0.192 HD
ENDROOT
BRANCH   2   5
HETATM    5  N   UNL     1     -43.423  56.650 -56.319  1.00  0.00    -0.184 NA
HETATM    6  C   UNL     1     -43.090  56.173 -57.474  1.00  0.00     0.152 C 
BRANCH   6   7
HETATM    7  C   UNL     1     -43.418  56.903 -58.680  1.00  0.00     0.011 A 
HETATM    8  C   UNL     1     -42.937  58.194 -59.070  1.00  0.00     0.004 A 
HETATM    9  C   UNL     1     -43.515  58.499 -60.305  1.00  0.00     0.043 A 
HETATM   10  C   UNL     1     -42.060  59.136 -58.493  1.00  0.00     0.014 A 
HETATM   11  C   UNL     1     -43.261  59.694 -60.988  1.00  0.00     0.030 A 
HETATM   12  N   UNL     1     -44.317  57.435 -60.651  1.00  0.00    -0.364 N 
HETATM   13  C   UNL     1     -42.387  60.608 -60.393  1.00  0.00     0.002 A 
HETATM   14  C   UNL     1     -41.794  60.336 -59.163  1.00  0.00     0.001 A 
HETATM   15  H   UNL     1     -44.862  57.378 -61.500  1.00  0.00     0.165 HD
HETATM   16  C   UNL     1     -44.264  56.471 -59.684  1.00  0.00     0.102 A 
ENDBRANCH   6   7
ENDBRANCH   2   5
BRANCH   1  17
HETATM   17  C   UNL     1     -42.413  55.462 -52.955  1.00  0.00     0.280 C 
BRANCH  17  18
HETATM   18  O   UNL     1     -41.009  55.401 -52.712  1.00  0.00    -0.341 OA
BRANCH  18  19
HETATM   19  C   UNL     1     -40.636  54.133 -52.345  1.00  0.00     0.081 A 
HETATM   20  C   UNL     1     -40.276  53.192 -53.323  1.00  0.00    -0.027 A 
HETATM   21  C   UNL     1     -40.282  53.526 -54.787  1.00  0.00     0.051 C 
HETATM   22  C   UNL     1     -39.936  51.895 -52.913  1.00  0.00     0.028 A 
HETATM   23  C   UNL     1     -39.916  51.569 -51.557  1.00  0.00     0.012 A 
HETATM   24  C   UNL     1     -40.227  52.525 -50.590  1.00  0.00     0.028 A 
HETATM   25 BR   UNL     1     -39.458  49.813 -51.024  1.00  0.00    -0.051 Br
HETATM   26  C   UNL     1     -40.575  53.825 -50.975  1.00  0.00    -0.027 A 
HETATM   27  C   UNL     1     -40.912  54.855 -49.933  1.00  0.00     0.051 C 
ENDBRANCH  18  19
ENDBRANCH  17  18
ENDBRANCH   1  17
TORSDOF 5
ENDMDL
MODEL 6
REMARK VINA RESULT:      -7.8      1.810      2.119
REMARK  5 active torsions:
REMARK  status: ('A' for Active; 'I' for Inactive)
REMARK    1  A    between atoms: C_3  and  O_4 
REMARK    2  A    between atoms: O_4  and  C_5 
REMARK    3  A    between atoms: C_5  and  C_6 
REMARK       I    between atoms: C_6  and  N_7 
REMARK    4  A    between atoms: N_7  and  N_8 
REMARK    5  A    between atoms: C_9  and  C_10 
ROOT
HETATM    1  C   UNL     1     -42.926  56.331 -55.978  1.00  0.00     0.261 C 
HETATM    2  N   UNL     1     -41.937  55.354 -56.093  1.00  0.00    -0.246 N 
HETATM    3  O   UNL     1     -43.678  56.467 -55.017  1.00  0.00    -0.269 OA
HETATM    4  H   UNL     1     -41.340  55.318 -56.911  1.00  0.00     0.192 HD
ENDROOT
BRANCH   2   5
HETATM    5  N   UNL     1     -41.756  54.440 -55.095  1.00  0.00    -0.184 NA
HETATM    6  C   UNL     1     -40.721  54.629 -54.342  1.00  0.00     0.152 C 
BRANCH   6   7
HETATM    7  C   UNL     1     -40.438  53.714 -53.257  1.00  0.00     0.011 A 
HETATM    8  C   UNL     1     -40.186  52.308 -53.352  1.00  0.00     0.004 A 
HETATM    9  C   UNL     1     -39.962  51.836 -52.057  1.00  0.00     0.043 A 
HETATM   10  C   UNL     1     -40.122  51.387 -54.419  1.00  0.00     0.014 A 
HETATM   11  C   UNL     1     -39.678  50.494 -51.776  1.00  0.00     0.030 A 
HETATM   12  N   UNL     1     -40.076  52.912 -51.207  1.00  0.00    -0.364 N 
HETATM   13  C   UNL     1     -39.620  49.604 -52.852  1.00  0.00     0.002 A 
HETATM   14  C   UNL     1     -39.839  50.041 -54.156  1.00  0.00     0.001 A 
HETATM   15  H   UNL     1     -39.962  52.868 -50.203  1.00  0.00     0.165 HD
HETATM   16  C   UNL     1     -40.359  54.045 -51.917  1.00  0.00     0.102 A 
ENDBRANCH   6   7
ENDBRANCH   2   5
BRANCH   1  17
HETATM   17  C   UNL     1     -42.950  57.242 -57.208  1.00  0.00     0.280 C 
BRANCH  17  18
HETATM   18  O   UNL     1     -43.874  56.807 -58.203  1.00  0.00    -0.341 OA
BRANCH  18  19
HETATM   19  C   UNL     1     -44.207  57.841 -59.040  1.00  0.00     0.081 A 
HETATM   20  C   UNL     1     -43.315  58.251 -60.045  1.00  0.00    -0.027 A 
HETATM   21  C   UNL     1     -41.984  57.586 -60.245  1.00  0.00     0.051 C 
HETATM   22  C   UNL     1     -43.673  59.336 -60.858  1.00  0.00     0.028 A 
HETATM   23  C   UNL     1     -44.909  59.960 -60.693  1.00  0.00     0.012 A 
HETATM   24  C   UNL     1     -45.809  59.514 -59.726  1.00  0.00     0.028 A 
HETATM   25 BR   UNL     1     -45.372  61.424 -61.798  1.00  0.00    -0.051 Br
HETATM   26  C   UNL     1     -45.472  58.436 -58.898  1.00  0.00    -0.027 A 
HETATM   27  C   UNL     1     -46.441  57.957 -57.853  1.00  0.00     0.051 C 
ENDBRANCH  18  19
ENDBRANCH  17  18
ENDBRANCH   1  17
TORSDOF 5
ENDMDL
MODEL 7
REMARK VINA RESULT:      -7.6      6.804      9.965
REMARK  5 active torsions:
REMARK  status: ('A' for Active; 'I' for Inactive)
REMARK    1  A    between atoms: C_3  and  O_4 
REMARK    2  A    between atoms: O_4  and  C_5 
REMARK    3  A    between atoms: C_5  and  C_6 
REMARK       I    between atoms: C_6  and  N_7 
REMARK    4  A    between atoms: N_7  and  N_8 
REMARK    5  A    between atoms: C_9  and  C_10 
ROOT
HETATM    1  C   UNL     1     -43.417  56.693 -52.639  1.00  0.00     0.261 C 
HETATM    2  N   UNL     1     -44.468  56.916 -51.749  1.00  0.00    -0.246 N 
HETATM    3  O   UNL     1     -43.039  57.482 -53.500  1.00  0.00    -0.269 OA
HETATM    4  H   UNL     1     -44.710  56.222 -51.051  1.00  0.00     0.192 HD
ENDROOT
BRANCH   2   5
HETATM    5  N   UNL     1     -45.178  58.081 -51.805  1.00  0.00    -0.184 NA
HETATM    6  C   UNL     1     -44.879  58.963 -50.907  1.00  0.00     0.152 C 
BRANCH   6   7
HETATM    7  C   UNL     1     -45.577  60.231 -50.878  1.00  0.00     0.011 A 
HETATM    8  C   UNL     1     -45.515  61.231 -49.855  1.00  0.00     0.004 A 
HETATM    9  C   UNL     1     -46.347  62.282 -50.249  1.00  0.00     0.043 A 
HETATM   10  C   UNL     1     -44.827  61.348 -48.629  1.00  0.00     0.014 A 
HETATM   11  C   UNL     1     -46.524  63.439 -49.481  1.00  0.00     0.030 A 
HETATM   12  N   UNL     1     -46.895  61.933 -51.463  1.00  0.00    -0.364 N 
HETATM   13  C   UNL     1     -45.829  63.529 -48.272  1.00  0.00     0.002 A 
HETATM   14  C   UNL     1     -44.992  62.499 -47.849  1.00  0.00     0.001 A 
HETATM   15  H   UNL     1     -47.539  62.507 -51.989  1.00  0.00     0.165 HD
HETATM   16  C   UNL     1     -46.438  60.705 -51.850  1.00  0.00     0.102 A 
ENDBRANCH   6   7
ENDBRANCH   2   5
BRANCH   1  17
HETATM   17  C   UNL     1     -42.767  55.328 -52.397  1.00  0.00     0.280 C 
BRANCH  17  18
HETATM   18  O   UNL     1     -41.351  55.351 -52.555  1.00  0.00    -0.341 OA
BRANCH  18  19
HETATM   19  C   UNL     1     -40.885  54.117 -52.932  1.00  0.00     0.081 A 
HETATM   20  C   UNL     1     -40.920  53.731 -54.282  1.00  0.00    -0.027 A 
HETATM   21  C   UNL     1     -41.456  54.637 -55.353  1.00  0.00     0.051 C 
HETATM   22  C   UNL     1     -40.471  52.448 -54.625  1.00  0.00     0.028 A 
HETATM   23  C   UNL     1     -39.961  51.597 -53.646  1.00  0.00     0.012 A 
HETATM   24  C   UNL     1     -39.884  52.007 -52.315  1.00  0.00     0.028 A 
HETATM   25 BR   UNL     1     -39.362  49.869 -54.128  1.00  0.00    -0.051 Br
HETATM   26  C   UNL     1     -40.332  53.282 -51.947  1.00  0.00    -0.027 A 
HETATM   27  C   UNL     1     -40.251  53.723 -50.512  1.00  0.00     0.051 C 
ENDBRANCH  18  19
ENDBRANCH  17  18
ENDBRANCH   1  17
TORSDOF 5
ENDMDL
MODEL 8
REMARK VINA RESULT:      -7.4      6.340      9.963
REMARK  5 active torsions:
REMARK  status: ('A' for Active; 'I' for Inactive)
REMARK    1  A    between atoms: C_3  and  O_4 
REMARK    2  A    between atoms: O_4  and  C_5 
REMARK    3  A    between atoms: C_5  and  C_6 
REMARK       I    between atoms: C_6  and  N_7 
REMARK    4  A    between atoms: N_7  and  N_8 
REMARK    5  A    between atoms: C_9  and  C_10 
ROOT
HETATM    1  C   UNL     1     -43.083  56.529 -51.817  1.00  0.00     0.261 C 
HETATM    2  N   UNL     1     -42.692  57.655 -51.091  1.00  0.00    -0.246 N 
HETATM    3  O   UNL     1     -43.912  56.524 -52.723  1.00  0.00    -0.269 OA
HETATM    4  H   UNL     1     -41.985  57.582 -50.368  1.00  0.00     0.192 HD
ENDROOT
BRANCH   2   5
HETATM    5  N   UNL     1     -43.254  58.870 -51.355  1.00  0.00    -0.184 NA
HETATM    6  C   UNL     1     -42.443  59.780 -51.791  1.00  0.00     0.152 C 
BRANCH   6   7
HETATM    7  C   UNL     1     -42.939  61.105 -52.097  1.00  0.00     0.011 A 
HETATM    8  C   UNL     1     -43.421  62.086 -51.172  1.00  0.00     0.004 A 
HETATM    9  C   UNL     1     -43.791  63.210 -51.913  1.00  0.00     0.043 A 
HETATM   10  C   UNL     1     -43.575  62.129 -49.770  1.00  0.00     0.014 A 
HETATM   11  C   UNL     1     -44.307  64.372 -51.324  1.00  0.00     0.030 A 
HETATM   12  N   UNL     1     -43.547  62.924 -53.237  1.00  0.00    -0.364 N 
HETATM   13  C   UNL     1     -44.447  64.387 -49.934  1.00  0.00     0.002 A 
HETATM   14  C   UNL     1     -44.088  63.283 -49.166  1.00  0.00     0.001 A 
HETATM   15  H   UNL     1     -43.720  63.557 -54.005  1.00  0.00     0.165 HD
HETATM   16  C   UNL     1     -43.033  61.663 -53.359  1.00  0.00     0.102 A 
ENDBRANCH   6   7
ENDBRANCH   2   5
BRANCH   1  17
HETATM   17  C   UNL     1     -42.328  55.281 -51.353  1.00  0.00     0.280 C 
BRANCH  17  18
HETATM   18  O   UNL     1     -40.958  55.282 -51.747  1.00  0.00    -0.341 OA
BRANCH  18  19
HETATM   19  C   UNL     1     -40.627  54.095 -52.351  1.00  0.00     0.081 A 
HETATM   20  C   UNL     1     -40.625  53.993 -53.752  1.00  0.00    -0.027 A 
HETATM   21  C   UNL     1     -40.978  55.155 -54.634  1.00  0.00     0.051 C 
HETATM   22  C   UNL     1     -40.319  52.754 -54.333  1.00  0.00     0.028 A 
HETATM   23  C   UNL     1     -39.980  51.665 -53.531  1.00  0.00     0.012 A 
HETATM   24  C   UNL     1     -39.935  51.790 -52.142  1.00  0.00     0.028 A 
HETATM   25 BR   UNL     1     -39.572  50.002 -54.333  1.00  0.00    -0.051 Br
HETATM   26  C   UNL     1     -40.244  53.016 -51.538  1.00  0.00    -0.027 A 
HETATM   27  C   UNL     1     -40.198  53.150 -50.041  1.00  0.00     0.051 C 
ENDBRANCH  18  19
ENDBRANCH  17  18
ENDBRANCH   1  17
TORSDOF 5
ENDMDL
MODEL 9
REMARK VINA RESULT:      -7.4      3.975      9.527
REMARK  5 active torsions:
REMARK  status: ('A' for Active; 'I' for Inactive)
REMARK    1  A    between atoms: C_3  and  O_4 
REMARK    2  A    between atoms: O_4  and  C_5 
REMARK    3  A    between atoms: C_5  and  C_6 
REMARK       I    between atoms: C_6  and  N_7 
REMARK    4  A    between atoms: N_7  and  N_8 
REMARK    5  A    between atoms: C_9  and  C_10 
ROOT
HETATM    1  C   UNL     1     -42.815  56.582 -53.905  1.00  0.00     0.261 C 
HETATM    2  N   UNL     1     -43.179  56.008 -55.123  1.00  0.00    -0.246 N 
HETATM    3  O   UNL     1     -42.832  57.783 -53.654  1.00  0.00    -0.269 OA
HETATM    4  H   UNL     1     -43.157  55.003 -55.248  1.00  0.00     0.192 HD
ENDROOT
BRANCH   2   5
HETATM    5  N   UNL     1     -43.580  56.800 -56.161  1.00  0.00    -0.184 NA
HETATM    6  C   UNL     1     -43.269  56.376 -57.343  1.00  0.00     0.152 C 
BRANCH   6   7
HETATM    7  C   UNL     1     -43.645  57.144 -58.510  1.00  0.00     0.011 A 
HETATM    8  C   UNL     1     -44.894  57.803 -58.749  1.00  0.00     0.004 A 
HETATM    9  C   UNL     1     -44.807  58.420 -59.999  1.00  0.00     0.043 A 
HETATM   10  C   UNL     1     -46.094  57.939 -58.019  1.00  0.00     0.014 A 
HETATM   11  C   UNL     1     -45.856  59.163 -60.554  1.00  0.00     0.030 A 
HETATM   12  N   UNL     1     -43.555  58.145 -60.502  1.00  0.00    -0.364 N 
HETATM   13  C   UNL     1     -47.032  59.282 -59.809  1.00  0.00     0.002 A 
HETATM   14  C   UNL     1     -47.152  58.679 -58.560  1.00  0.00     0.001 A 
HETATM   15  H   UNL     1     -43.211  58.466 -61.396  1.00  0.00     0.165 HD
HETATM   16  C   UNL     1     -42.849  57.382 -59.615  1.00  0.00     0.102 A 
ENDBRANCH   6   7
ENDBRANCH   2   5
BRANCH   1  17
HETATM   17  C   UNL     1     -42.400  55.511 -52.892  1.00  0.00     0.280 C 
BRANCH  17  18
HETATM   18  O   UNL     1     -40.986  55.417 -52.730  1.00  0.00    -0.341 OA
BRANCH  18  19
HETATM   19  C   UNL     1     -40.624  54.144 -52.369  1.00  0.00     0.081 A 
HETATM   20  C   UNL     1     -40.320  53.190 -53.355  1.00  0.00    -0.027 A 
HETATM   21  C   UNL     1     -40.376  53.516 -54.819  1.00  0.00     0.051 C 
HETATM   22  C   UNL     1     -39.990  51.889 -52.950  1.00  0.00     0.028 A 
HETATM   23  C   UNL     1     -39.924  51.570 -51.594  1.00  0.00     0.012 A 
HETATM   24  C   UNL     1     -40.178  52.537 -50.622  1.00  0.00     0.028 A 
HETATM   25 BR   UNL     1     -39.479  49.809 -51.068  1.00  0.00    -0.051 Br
HETATM   26  C   UNL     1     -40.516  53.842 -51.001  1.00  0.00    -0.027 A 
HETATM   27  C   UNL     1     -40.793  54.884 -49.953  1.00  0.00     0.051 C 
ENDBRANCH  18  19
ENDBRANCH  17  18
ENDBRANCH   1  17
TORSDOF 5
ENDMDL
MODEL 10
REMARK VINA RESULT:      -7.4      3.658      9.122
REMARK  5 active torsions:
REMARK  status: ('A' for Active; 'I' for Inactive)
REMARK    1  A    between atoms: C_3  and  O_4 
REMARK    2  A    between atoms: O_4  and  C_5 
REMARK    3  A    between atoms: C_5  and  C_6 
REMARK       I    between atoms: C_6  and  N_7 
REMARK    4  A    between atoms: N_7  and  N_8 
REMARK    5  A    between atoms: C_9  and  C_10 
ROOT
HETATM    1  C   UNL     1     -42.264  57.091 -54.192  1.00  0.00     0.261 C 
HETATM    2  N   UNL     1     -41.892  56.855 -55.515  1.00  0.00    -0.246 N 
HETATM    3  O   UNL     1     -43.144  57.868 -53.832  1.00  0.00    -0.269 OA
HETATM    4  H   UNL     1     -41.167  56.182 -55.736  1.00  0.00     0.192 HD
ENDROOT
BRANCH   2   5
HETATM    5  N   UNL     1     -42.510  57.525 -56.531  1.00  0.00    -0.184 NA
HETATM    6  C   UNL     1     -43.054  56.784 -57.442  1.00  0.00     0.152 C 
BRANCH   6   7
HETATM    7  C   UNL     1     -43.732  57.397 -58.564  1.00  0.00     0.011 A 
HETATM    8  C   UNL     1     -45.041  57.979 -58.574  1.00  0.00     0.004 A 
HETATM    9  C   UNL     1     -45.279  58.448 -59.868  1.00  0.00     0.043 A 
HETATM   10  C   UNL     1     -46.049  58.157 -57.603  1.00  0.00     0.014 A 
HETATM   11  C   UNL     1     -46.470  59.083 -60.239  1.00  0.00     0.030 A 
HETATM   12  N   UNL     1     -44.160  58.160 -60.617  1.00  0.00    -0.364 N 
HETATM   13  C   UNL     1     -47.451  59.247 -59.257  1.00  0.00     0.002 A 
HETATM   14  C   UNL     1     -47.247  58.791 -57.957  1.00  0.00     0.001 A 
HETATM   15  H   UNL     1     -44.048  58.386 -61.595  1.00  0.00     0.165 HD
HETATM   16  C   UNL     1     -43.225  57.532 -59.843  1.00  0.00     0.102 A 
ENDBRANCH   6   7
ENDBRANCH   2   5
BRANCH   1  17
HETATM   17  C   UNL     1     -41.441  56.236 -53.224  1.00  0.00     0.280 C 
BRANCH  17  18
HETATM   18  O   UNL     1     -42.170  55.126 -52.706  1.00  0.00    -0.341 OA
BRANCH  18  19
HETATM   19  C   UNL     1     -41.520  53.949 -52.979  1.00  0.00     0.081 A 
HETATM   20  C   UNL     1     -40.597  53.423 -52.060  1.00  0.00    -0.027 A 
HETATM   21  C   UNL     1     -40.288  54.112 -50.762  1.00  0.00     0.051 C 
HETATM   22  C   UNL     1     -39.924  52.239 -52.389  1.00  0.00     0.028 A 
HETATM   23  C   UNL     1     -40.204  51.580 -53.586  1.00  0.00     0.012 A 
HETATM   24  C   UNL     1     -41.159  52.083 -54.469  1.00  0.00     0.028 A 
HETATM   25 BR   UNL     1     -39.284  49.984 -54.013  1.00  0.00    -0.051 Br
HETATM   26  C   UNL     1     -41.841  53.268 -54.165  1.00  0.00    -0.027 A 
HETATM   27  C   UNL     1     -42.868  53.812 -55.118  1.00  0.00     0.051 C 
ENDBRANCH  18  19
ENDBRANCH  17  18
ENDBRANCH   1  17
TORSDOF 5
ENDMDL
