MODEL 1
REMARK VINA RESULT:      -8.9      0.000      0.000
REMARK  8 active torsions:
REMARK  status: ('A' for Active; 'I' for Inactive)
REMARK    1  A    between atoms: N_2  and  C_4 
REMARK    2  A    between atoms: N_2  and  C_32 
REMARK    3  A    between atoms: C_4  and  C_5 
REMARK    4  A    between atoms: N_8  and  C_9 
REMARK    5  A    between atoms: C_12  and  N_13 
REMARK       I    between atoms: N_13  and  C_14 
REMARK       I    between atoms: C_14  and  N_15 
REMARK    6  A    between atoms: N_15  and  C_16 
REMARK    7  A    between atoms: C_18  and  C_19 
REMARK    8  A    between atoms: C_32  and  C_33 
ROOT
HETATM    1  C   UNL     1     -46.099  56.175 -59.879  1.00  0.00     0.161 C 
HETATM    2  C   UNL     1     -44.841  56.952 -59.528  1.00  0.00     0.179 C 
HETATM    3  C   UNL     1     -43.850  55.884 -59.090  1.00  0.00     0.177 C 
HETATM    4  C   UNL     1     -43.754  56.073 -57.584  1.00  0.00     0.141 C 
HETATM    5  C   UNL     1     -44.109  57.549 -57.413  1.00  0.00     0.196 C 
HETATM    6  O   UNL     1     -45.084  57.846 -58.431  1.00  0.00    -0.379 OA
HETATM    7  O   UNL     1     -44.404  54.601 -59.429  1.00  0.00    -0.379 OA
HETATM    8  C   UNL     1     -45.519  54.838 -60.307  1.00  0.00     0.198 C 
ENDROOT
BRANCH   1   9
HETATM    9  N   UNL     1     -46.925  56.854 -60.849  1.00  0.00    -0.274 N 
HETATM   10  N   UNL     1     -47.409  56.228 -61.936  1.00  0.00     0.005 NA
HETATM   11  N   UNL     1     -48.119  57.104 -62.630  1.00  0.00    -0.161 NA
HETATM   12  C   UNL     1     -48.087  58.301 -61.965  1.00  0.00     0.095 A 
HETATM   13  C   UNL     1     -47.344  58.159 -60.817  1.00  0.00     0.139 A 
BRANCH  12  14
HETATM   14  C   UNL     1     -48.759  59.488 -62.548  1.00  0.00     0.296 C 
BRANCH  14  15
HETATM   15  N   UNL     1     -50.197  59.623 -62.089  1.00  0.00    -0.066 N 
HETATM   16  C   UNL     1     -51.180  59.353 -63.194  1.00  0.00     0.270 C 
HETATM   17  H   UNL     1     -50.328  58.866 -61.402  1.00  0.00     0.280 HD
BRANCH  15  18
HETATM   18  C   UNL     1     -50.440  60.926 -61.377  1.00  0.00     0.273 C 
BRANCH  18  19
HETATM   19  C   UNL     1     -50.577  60.778 -59.887  1.00  0.00    -0.033 A 
HETATM   20  C   UNL     1     -49.438  60.734 -59.068  1.00  0.00     0.009 A 
HETATM   21  C   UNL     1     -49.567  60.565 -57.689  1.00  0.00     0.001 A 
HETATM   22  C   UNL     1     -50.830  60.440 -57.115  1.00  0.00     0.000 A 
HETATM   23  C   UNL     1     -51.967  60.486 -57.917  1.00  0.00     0.001 A 
HETATM   24  C   UNL     1     -51.845  60.656 -59.297  1.00  0.00     0.009 A 
ENDBRANCH  18  19
ENDBRANCH  15  18
ENDBRANCH  14  15
ENDBRANCH  12  14
ENDBRANCH   1   9
BRANCH   4  25
HETATM   25  N   UNL     1     -42.502  55.639 -56.980  1.00  0.00    -0.334 N 
HETATM   26  C   UNL     1     -42.462  54.850 -55.847  1.00  0.00     0.321 C 
HETATM   27  N   UNL     1     -41.165  54.535 -55.513  1.00  0.00    -0.309 N 
HETATM   28  O   UNL     1     -43.481  54.476 -55.283  1.00  0.00    -0.247 OA
HETATM   29  H   UNL     1     -40.450  54.913 -56.114  1.00  0.00     0.170 HD
HETATM   30  H   UNL     1     -41.721  56.270 -57.098  1.00  0.00     0.164 HD
BRANCH  27  31
HETATM   31  C   UNL     1     -40.722  53.662 -54.499  1.00  0.00     0.037 A 
HETATM   32  C   UNL     1     -40.463  52.303 -54.694  1.00  0.00     0.045 A 
HETATM   33  C   UNL     1     -39.980  51.500 -53.643  1.00  0.00     0.050 A 
HETATM   34  C   UNL     1     -39.785  52.074 -52.379  1.00  0.00     0.016 A 
HETATM   35  C   UNL     1     -40.051  53.426 -52.174  1.00  0.00     0.003 A 
HETATM   36  C   UNL     1     -40.513  54.214 -53.229  1.00  0.00     0.029 A 
BRANCH  33  37
HETATM   37  C   UNL     1     -39.701  50.033 -53.863  1.00  0.00     0.417 C 
HETATM   38  F   UNL     1     -40.596  49.427 -54.691  1.00  0.00    -0.166 F 
HETATM   39  F   UNL     1     -38.475  49.806 -54.414  1.00  0.00    -0.166 F 
HETATM   40  F   UNL     1     -39.725  49.323 -52.702  1.00  0.00    -0.166 F 
ENDBRANCH  33  37
ENDBRANCH  27  31
ENDBRANCH   4  25
TORSDOF 8
ENDMDL
MODEL 2
REMARK VINA RESULT:      -8.8      7.507      9.821
REMARK  8 active torsions:
REMARK  status: ('A' for Active; 'I' for Inactive)
REMARK    1  A    between atoms: N_2  and  C_4 
REMARK    2  A    between atoms: N_2  and  C_32 
REMARK    3  A    between atoms: C_4  and  C_5 
REMARK    4  A    between atoms: N_8  and  C_9 
REMARK    5  A    between atoms: C_12  and  N_13 
REMARK       I    between atoms: N_13  and  C_14 
REMARK       I    between atoms: C_14  and  N_15 
REMARK    6  A    between atoms: N_15  and  C_16 
REMARK    7  A    between atoms: C_18  and  C_19 
REMARK    8  A    between atoms: C_32  and  C_33 
ROOT
HETATM    1  C   UNL     1     -44.067  59.913 -51.020  1.00  0.00     0.161 C 
HETATM    2  C   UNL     1     -42.649  59.786 -51.553  1.00  0.00     0.179 C 
HETATM    3  C   UNL     1     -42.714  58.612 -52.518  1.00  0.00     0.177 C 
HETATM    4  C   UNL     1     -41.977  57.500 -51.786  1.00  0.00     0.141 C 
HETATM    5  C   UNL     1     -41.029  58.275 -50.874  1.00  0.00     0.196 C 
HETATM    6  O   UNL     1     -41.733  59.473 -50.492  1.00  0.00    -0.379 OA
HETATM    7  O   UNL     1     -44.099  58.284 -52.723  1.00  0.00    -0.379 OA
HETATM    8  C   UNL     1     -44.877  59.369 -52.184  1.00  0.00     0.198 C 
ENDROOT
BRANCH   1   9
HETATM    9  N   UNL     1     -44.387  61.253 -50.589  1.00  0.00    -0.274 N 
HETATM   10  N   UNL     1     -43.548  62.286 -50.790  1.00  0.00     0.005 NA
HETATM   11  N   UNL     1     -44.111  63.373 -50.286  1.00  0.00    -0.161 NA
HETATM   12  C   UNL     1     -45.327  63.021 -49.765  1.00  0.00     0.095 A 
HETATM   13  C   UNL     1     -45.530  61.675 -49.963  1.00  0.00     0.139 A 
BRANCH  12  14
HETATM   14  C   UNL     1     -46.159  64.040 -49.080  1.00  0.00     0.296 C 
BRANCH  14  15
HETATM   15  N   UNL     1     -47.406  63.445 -48.457  1.00  0.00    -0.066 N 
HETATM   16  C   UNL     1     -48.665  63.920 -49.127  1.00  0.00     0.270 C 
HETATM   17  H   UNL     1     -47.344  62.436 -48.652  1.00  0.00     0.280 HD
BRANCH  15  18
HETATM   18  C   UNL     1     -47.424  63.616 -46.962  1.00  0.00     0.273 C 
BRANCH  18  19
HETATM   19  C   UNL     1     -46.460  62.711 -46.244  1.00  0.00    -0.033 A 
HETATM   20  C   UNL     1     -45.513  63.242 -45.356  1.00  0.00     0.009 A 
HETATM   21  C   UNL     1     -44.599  62.404 -44.715  1.00  0.00     0.001 A 
HETATM   22  C   UNL     1     -44.623  61.032 -44.954  1.00  0.00     0.000 A 
HETATM   23  C   UNL     1     -45.561  60.493 -45.831  1.00  0.00     0.001 A 
HETATM   24  C   UNL     1     -46.478  61.326 -46.474  1.00  0.00     0.009 A 
ENDBRANCH  18  19
ENDBRANCH  15  18
ENDBRANCH  14  15
ENDBRANCH  12  14
ENDBRANCH   1   9
BRANCH   4  25
HETATM   25  N   UNL     1     -41.365  56.491 -52.641  1.00  0.00    -0.334 N 
HETATM   26  C   UNL     1     -41.120  55.204 -52.206  1.00  0.00     0.321 C 
HETATM   27  N   UNL     1     -40.589  54.436 -53.217  1.00  0.00    -0.309 N 
HETATM   28  O   UNL     1     -41.398  54.840 -51.072  1.00  0.00    -0.247 OA
HETATM   29  H   UNL     1     -40.453  54.903 -54.100  1.00  0.00     0.170 HD
HETATM   30  H   UNL     1     -40.724  56.845 -53.338  1.00  0.00     0.164 HD
BRANCH  27  31
HETATM   31  C   UNL     1     -40.314  53.054 -53.198  1.00  0.00     0.037 A 
HETATM   32  C   UNL     1     -40.163  52.301 -52.031  1.00  0.00     0.045 A 
HETATM   33  C   UNL     1     -39.933  50.914 -52.088  1.00  0.00     0.050 A 
HETATM   34  C   UNL     1     -39.828  50.290 -53.340  1.00  0.00     0.016 A 
HETATM   35  C   UNL     1     -39.968  51.035 -54.508  1.00  0.00     0.003 A 
HETATM   36  C   UNL     1     -40.213  52.407 -54.436  1.00  0.00     0.029 A 
BRANCH  33  37
HETATM   37  C   UNL     1     -39.771  50.108 -50.822  1.00  0.00     0.417 C 
HETATM   38  F   UNL     1     -40.143  50.782 -49.698  1.00  0.00    -0.166 F 
HETATM   39  F   UNL     1     -40.511  48.964 -50.828  1.00  0.00    -0.166 F 
HETATM   40  F   UNL     1     -38.484  49.720 -50.617  1.00  0.00    -0.166 F 
ENDBRANCH  33  37
ENDBRANCH  27  31
ENDBRANCH   4  25
TORSDOF 8
ENDMDL
MODEL 3
REMARK VINA RESULT:      -8.8      3.835      5.534
REMARK  8 active torsions:
REMARK  status: ('A' for Active; 'I' for Inactive)
REMARK    1  A    between atoms: N_2  and  C_4 
REMARK    2  A    between atoms: N_2  and  C_32 
REMARK    3  A    between atoms: C_4  and  C_5 
REMARK    4  A    between atoms: N_8  and  C_9 
REMARK    5  A    between atoms: C_12  and  N_13 
REMARK       I    between atoms: N_13  and  C_14 
REMARK       I    between atoms: C_14  and  N_15 
REMARK    6  A    between atoms: N_15  and  C_16 
REMARK    7  A    between atoms: C_18  and  C_19 
REMARK    8  A    between atoms: C_32  and  C_33 
ROOT
HETATM    1  C   UNL     1     -44.199  57.666 -58.236  1.00  0.00     0.161 C 
HETATM    2  C   UNL     1     -43.158  58.321 -57.343  1.00  0.00     0.179 C 
HETATM    3  C   UNL     1     -42.391  57.154 -56.740  1.00  0.00     0.177 C 
HETATM    4  C   UNL     1     -42.851  57.127 -55.291  1.00  0.00     0.141 C 
HETATM    5  C   UNL     1     -43.249  58.581 -55.043  1.00  0.00     0.196 C 
HETATM    6  O   UNL     1     -43.787  59.065 -56.289  1.00  0.00    -0.379 OA
HETATM    7  O   UNL     1     -42.780  55.960 -57.442  1.00  0.00    -0.379 OA
HETATM    8  C   UNL     1     -43.499  56.374 -58.618  1.00  0.00     0.198 C 
ENDROOT
BRANCH   1   9
HETATM    9  N   UNL     1     -44.617  58.514 -59.326  1.00  0.00    -0.274 N 
HETATM   10  N   UNL     1     -45.914  58.682 -59.641  1.00  0.00     0.005 NA
HETATM   11  N   UNL     1     -45.979  59.504 -60.677  1.00  0.00    -0.161 NA
HETATM   12  C   UNL     1     -44.703  59.865 -61.016  1.00  0.00     0.095 A 
HETATM   13  C   UNL     1     -43.819  59.258 -60.155  1.00  0.00     0.139 A 
BRANCH  12  14
HETATM   14  C   UNL     1     -44.471  60.745 -62.188  1.00  0.00     0.296 C 
BRANCH  14  15
HETATM   15  N   UNL     1     -43.489  61.860 -61.889  1.00  0.00    -0.066 N 
HETATM   16  C   UNL     1     -43.891  63.163 -62.520  1.00  0.00     0.270 C 
HETATM   17  H   UNL     1     -43.555  62.006 -60.871  1.00  0.00     0.280 HD
BRANCH  15  18
HETATM   18  C   UNL     1     -42.072  61.460 -62.196  1.00  0.00     0.273 C 
BRANCH  18  19
HETATM   19  C   UNL     1     -41.060  62.079 -61.272  1.00  0.00    -0.033 A 
HETATM   20  C   UNL     1     -41.111  61.833 -59.892  1.00  0.00     0.009 A 
HETATM   21  C   UNL     1     -40.191  62.434 -59.032  1.00  0.00     0.001 A 
HETATM   22  C   UNL     1     -39.212  63.285 -59.542  1.00  0.00     0.000 A 
HETATM   23  C   UNL     1     -39.149  63.534 -60.910  1.00  0.00     0.001 A 
HETATM   24  C   UNL     1     -40.067  62.935 -61.774  1.00  0.00     0.009 A 
ENDBRANCH  18  19
ENDBRANCH  15  18
ENDBRANCH  14  15
ENDBRANCH  12  14
ENDBRANCH   1   9
BRANCH   4  25
HETATM   25  N   UNL     1     -41.903  56.550 -54.347  1.00  0.00    -0.334 N 
HETATM   26  C   UNL     1     -41.933  55.215 -53.993  1.00  0.00     0.321 C 
HETATM   27  N   UNL     1     -40.903  54.911 -53.133  1.00  0.00    -0.309 N 
HETATM   28  O   UNL     1     -42.764  54.442 -54.449  1.00  0.00    -0.247 OA
HETATM   29  H   UNL     1     -40.295  55.677 -52.885  1.00  0.00     0.170 HD
HETATM   30  H   UNL     1     -41.560  57.180 -53.636  1.00  0.00     0.164 HD
BRANCH  27  31
HETATM   31  C   UNL     1     -40.531  53.643 -52.644  1.00  0.00     0.037 A 
HETATM   32  C   UNL     1     -40.350  52.515 -53.449  1.00  0.00     0.045 A 
HETATM   33  C   UNL     1     -39.935  51.290 -52.895  1.00  0.00     0.050 A 
HETATM   34  C   UNL     1     -39.730  51.200 -51.511  1.00  0.00     0.016 A 
HETATM   35  C   UNL     1     -39.918  52.317 -50.700  1.00  0.00     0.003 A 
HETATM   36  C   UNL     1     -40.313  53.530 -51.265  1.00  0.00     0.029 A 
BRANCH  33  37
HETATM   37  C   UNL     1     -39.740  50.077 -53.772  1.00  0.00     0.417 C 
HETATM   38  F   UNL     1     -39.452  48.943 -53.076  1.00  0.00    -0.166 F 
HETATM   39  F   UNL     1     -40.842  49.783 -54.518  1.00  0.00    -0.166 F 
HETATM   40  F   UNL     1     -38.721  50.239 -54.660  1.00  0.00    -0.166 F 
ENDBRANCH  33  37
ENDBRANCH  27  31
ENDBRANCH   4  25
TORSDOF 8
ENDMDL
MODEL 4
REMARK VINA RESULT:      -8.6      1.267      1.640
REMARK  8 active torsions:
REMARK  status: ('A' for Active; 'I' for Inactive)
REMARK    1  A    between atoms: N_2  and  C_4 
REMARK    2  A    between atoms: N_2  and  C_32 
REMARK    3  A    between atoms: C_4  and  C_5 
REMARK    4  A    between atoms: N_8  and  C_9 
REMARK    5  A    between atoms: C_12  and  N_13 
REMARK       I    between atoms: N_13  and  C_14 
REMARK       I    between atoms: C_14  and  N_15 
REMARK    6  A    between atoms: N_15  and  C_16 
REMARK    7  A    between atoms: C_18  and  C_19 
REMARK    8  A    between atoms: C_32  and  C_33 
ROOT
HETATM    1  C   UNL     1     -45.613  57.884 -59.389  1.00  0.00     0.161 C 
HETATM    2  C   UNL     1     -44.196  58.323 -59.056  1.00  0.00     0.179 C 
HETATM    3  C   UNL     1     -43.461  57.025 -58.758  1.00  0.00     0.177 C 
HETATM    4  C   UNL     1     -43.262  57.057 -57.250  1.00  0.00     0.141 C 
HETATM    5  C   UNL     1     -43.260  58.554 -56.949  1.00  0.00     0.196 C 
HETATM    6  O   UNL     1     -44.182  59.151 -57.882  1.00  0.00    -0.379 OA
HETATM    7  O   UNL     1     -44.309  55.934 -59.158  1.00  0.00    -0.379 OA
HETATM    8  C   UNL     1     -45.374  56.493 -59.949  1.00  0.00     0.198 C 
ENDROOT
BRANCH   1   9
HETATM    9  N   UNL     1     -46.299  58.813 -60.254  1.00  0.00    -0.274 N 
HETATM   10  N   UNL     1     -45.636  59.705 -61.011  1.00  0.00     0.005 NA
HETATM   11  N   UNL     1     -46.529  60.414 -61.684  1.00  0.00    -0.161 NA
HETATM   12  C   UNL     1     -47.776  59.956 -61.351  1.00  0.00     0.095 A 
HETATM   13  C   UNL     1     -47.650  58.923 -60.451  1.00  0.00     0.139 A 
BRANCH  12  14
HETATM   14  C   UNL     1     -48.979  60.610 -61.920  1.00  0.00     0.296 C 
BRANCH  14  15
HETATM   15  N   UNL     1     -50.266  60.062 -61.337  1.00  0.00    -0.066 N 
HETATM   16  C   UNL     1     -51.094  59.334 -62.359  1.00  0.00     0.270 C 
HETATM   17  H   UNL     1     -49.966  59.349 -60.657  1.00  0.00     0.280 HD
BRANCH  15  18
HETATM   18  C   UNL     1     -51.035  61.112 -60.583  1.00  0.00     0.273 C 
BRANCH  18  19
HETATM   19  C   UNL     1     -51.488  60.661 -59.222  1.00  0.00    -0.033 A 
HETATM   20  C   UNL     1     -52.785  60.162 -59.032  1.00  0.00     0.009 A 
HETATM   21  C   UNL     1     -53.214  59.773 -57.762  1.00  0.00     0.001 A 
HETATM   22  C   UNL     1     -52.353  59.878 -56.672  1.00  0.00     0.000 A 
HETATM   23  C   UNL     1     -51.061  60.368 -56.849  1.00  0.00     0.001 A 
HETATM   24  C   UNL     1     -50.627  60.757 -58.117  1.00  0.00     0.009 A 
ENDBRANCH  18  19
ENDBRANCH  15  18
ENDBRANCH  14  15
ENDBRANCH  12  14
ENDBRANCH   1   9
BRANCH   4  25
HETATM   25  N   UNL     1     -42.120  56.300 -56.756  1.00  0.00    -0.334 N 
HETATM   26  C   UNL     1     -42.179  55.541 -55.604  1.00  0.00     0.321 C 
HETATM   27  N   UNL     1     -40.990  54.884 -55.387  1.00  0.00    -0.309 N 
HETATM   28  O   UNL     1     -43.196  55.467 -54.929  1.00  0.00    -0.247 OA
HETATM   29  H   UNL     1     -40.265  55.046 -56.069  1.00  0.00     0.170 HD
HETATM   30  H   UNL     1     -41.214  56.691 -56.973  1.00  0.00     0.164 HD
BRANCH  27  31
HETATM   31  C   UNL     1     -40.698  53.932 -54.388  1.00  0.00     0.037 A 
HETATM   32  C   UNL     1     -40.480  52.575 -54.641  1.00  0.00     0.045 A 
HETATM   33  C   UNL     1     -40.150  51.689 -53.598  1.00  0.00     0.050 A 
HETATM   34  C   UNL     1     -40.067  52.178 -52.287  1.00  0.00     0.016 A 
HETATM   35  C   UNL     1     -40.293  53.528 -52.026  1.00  0.00     0.003 A 
HETATM   36  C   UNL     1     -40.603  54.398 -53.071  1.00  0.00     0.029 A 
BRANCH  33  37
HETATM   37  C   UNL     1     -39.914  50.225 -53.879  1.00  0.00     0.417 C 
HETATM   38  F   UNL     1     -40.904  49.647 -54.614  1.00  0.00    -0.166 F 
HETATM   39  F   UNL     1     -38.762  50.000 -54.571  1.00  0.00    -0.166 F 
HETATM   40  F   UNL     1     -39.815  49.489 -52.739  1.00  0.00    -0.166 F 
ENDBRANCH  33  37
ENDBRANCH  27  31
ENDBRANCH   4  25
TORSDOF 8
ENDMDL
MODEL 5
REMARK VINA RESULT:      -8.5      1.715      2.180
REMARK  8 active torsions:
REMARK  status: ('A' for Active; 'I' for Inactive)
REMARK    1  A    between atoms: N_2  and  C_4 
REMARK    2  A    between atoms: N_2  and  C_32 
REMARK    3  A    between atoms: C_4  and  C_5 
REMARK    4  A    between atoms: N_8  and  C_9 
REMARK    5  A    between atoms: C_12  and  N_13 
REMARK       I    between atoms: N_13  and  C_14 
REMARK       I    between atoms: C_14  and  N_15 
REMARK    6  A    between atoms: N_15  and  C_16 
REMARK    7  A    between atoms: C_18  and  C_19 
REMARK    8  A    between atoms: C_32  and  C_33 
ROOT
HETATM    1  C   UNL     1     -46.076  56.235 -59.831  1.00  0.00     0.161 C 
HETATM    2  C   UNL     1     -44.833  57.016 -59.437  1.00  0.00     0.179 C 
HETATM    3  C   UNL     1     -43.821  55.946 -59.056  1.00  0.00     0.177 C 
HETATM    4  C   UNL     1     -43.729  56.055 -57.542  1.00  0.00     0.141 C 
HETATM    5  C   UNL     1     -44.113  57.512 -57.291  1.00  0.00     0.196 C 
HETATM    6  O   UNL     1     -45.094  57.845 -58.293  1.00  0.00    -0.379 OA
HETATM    7  O   UNL     1     -44.350  54.672 -59.464  1.00  0.00    -0.379 OA
HETATM    8  C   UNL     1     -45.470  54.935 -60.330  1.00  0.00     0.198 C 
ENDROOT
BRANCH   1   9
HETATM    9  N   UNL     1     -46.915  56.949 -60.763  1.00  0.00    -0.274 N 
HETATM   10  N   UNL     1     -47.568  56.323 -61.758  1.00  0.00     0.005 NA
HETATM   11  N   UNL     1     -48.244  57.234 -62.440  1.00  0.00    -0.161 NA
HETATM   12  C   UNL     1     -48.020  58.454 -61.860  1.00  0.00     0.095 A 
HETATM   13  C   UNL     1     -47.188  58.292 -60.777  1.00  0.00     0.139 A 
BRANCH  12  14
HETATM   14  C   UNL     1     -48.615  59.676 -62.455  1.00  0.00     0.296 C 
BRANCH  14  15
HETATM   15  N   UNL     1     -50.078  59.839 -62.099  1.00  0.00    -0.066 N 
HETATM   16  C   UNL     1     -50.981  59.684 -63.291  1.00  0.00     0.270 C 
HETATM   17  H   UNL     1     -50.290  59.045 -61.478  1.00  0.00     0.280 HD
BRANCH  15  18
HETATM   18  C   UNL     1     -50.330  61.101 -61.319  1.00  0.00     0.273 C 
BRANCH  18  19
HETATM   19  C   UNL     1     -50.590  60.861 -59.858  1.00  0.00    -0.033 A 
HETATM   20  C   UNL     1     -49.529  60.850 -58.939  1.00  0.00     0.009 A 
HETATM   21  C   UNL     1     -49.768  60.596 -57.588  1.00  0.00     0.001 A 
HETATM   22  C   UNL     1     -51.065  60.352 -57.142  1.00  0.00     0.000 A 
HETATM   23  C   UNL     1     -52.126  60.365 -58.043  1.00  0.00     0.001 A 
HETATM   24  C   UNL     1     -51.893  60.620 -59.396  1.00  0.00     0.009 A 
ENDBRANCH  18  19
ENDBRANCH  15  18
ENDBRANCH  14  15
ENDBRANCH  12  14
ENDBRANCH   1   9
BRANCH   4  25
HETATM   25  N   UNL     1     -42.468  55.614 -56.961  1.00  0.00    -0.334 N 
HETATM   26  C   UNL     1     -42.399  54.998 -55.726  1.00  0.00     0.321 C 
HETATM   27  N   UNL     1     -41.105  54.632 -55.433  1.00  0.00    -0.309 N 
HETATM   28  O   UNL     1     -43.395  54.795 -55.047  1.00  0.00    -0.247 OA
HETATM   29  H   UNL     1     -40.413  54.859 -56.129  1.00  0.00     0.170 HD
HETATM   30  H   UNL     1     -41.656  56.156 -57.223  1.00  0.00     0.164 HD
BRANCH  27  31
HETATM   31  C   UNL     1     -40.649  53.884 -54.328  1.00  0.00     0.037 A 
HETATM   32  C   UNL     1     -40.676  54.341 -53.008  1.00  0.00     0.045 A 
HETATM   33  C   UNL     1     -40.244  53.521 -51.949  1.00  0.00     0.050 A 
HETATM   34  C   UNL     1     -39.756  52.238 -52.234  1.00  0.00     0.016 A 
HETATM   35  C   UNL     1     -39.717  51.778 -53.549  1.00  0.00     0.003 A 
HETATM   36  C   UNL     1     -40.164  52.596 -54.587  1.00  0.00     0.029 A 
BRANCH  33  37
HETATM   37  C   UNL     1     -40.278  54.022 -50.526  1.00  0.00     0.417 C 
HETATM   38  F   UNL     1     -39.046  54.105 -49.950  1.00  0.00    -0.166 F 
HETATM   39  F   UNL     1     -40.819  55.268 -50.419  1.00  0.00    -0.166 F 
HETATM   40  F   UNL     1     -41.019  53.221 -49.713  1.00  0.00    -0.166 F 
ENDBRANCH  33  37
ENDBRANCH  27  31
ENDBRANCH   4  25
TORSDOF 8
ENDMDL
MODEL 6
REMARK VINA RESULT:      -8.4      8.180     10.539
REMARK  8 active torsions:
REMARK  status: ('A' for Active; 'I' for Inactive)
REMARK    1  A    between atoms: N_2  and  C_4 
REMARK    2  A    between atoms: N_2  and  C_32 
REMARK    3  A    between atoms: C_4  and  C_5 
REMARK    4  A    between atoms: N_8  and  C_9 
REMARK    5  A    between atoms: C_12  and  N_13 
REMARK       I    between atoms: N_13  and  C_14 
REMARK       I    between atoms: C_14  and  N_15 
REMARK    6  A    between atoms: N_15  and  C_16 
REMARK    7  A    between atoms: C_18  and  C_19 
REMARK    8  A    between atoms: C_32  and  C_33 
ROOT
HETATM    1  C   UNL     1     -44.290  60.743 -51.633  1.00  0.00     0.161 C 
HETATM    2  C   UNL     1     -44.039  59.320 -51.162  1.00  0.00     0.179 C 
HETATM    3  C   UNL     1     -42.777  58.898 -51.898  1.00  0.00     0.177 C 
HETATM    4  C   UNL     1     -43.277  57.905 -52.937  1.00  0.00     0.141 C 
HETATM    5  C   UNL     1     -44.549  57.361 -52.289  1.00  0.00     0.196 C 
HETATM    6  O   UNL     1     -45.120  58.458 -51.548  1.00  0.00    -0.379 OA
HETATM    7  O   UNL     1     -42.211  60.068 -52.514  1.00  0.00    -0.379 OA
HETATM    8  C   UNL     1     -42.880  61.210 -51.949  1.00  0.00     0.198 C 
ENDROOT
BRANCH   1   9
HETATM    9  N   UNL     1     -45.025  61.531 -50.673  1.00  0.00    -0.274 N 
HETATM   10  N   UNL     1     -46.212  61.130 -50.182  1.00  0.00     0.005 NA
HETATM   11  N   UNL     1     -46.637  62.056 -49.336  1.00  0.00    -0.161 NA
HETATM   12  C   UNL     1     -45.699  63.053 -49.287  1.00  0.00     0.095 A 
HETATM   13  C   UNL     1     -44.654  62.729 -50.121  1.00  0.00     0.139 A 
BRANCH  12  14
HETATM   14  C   UNL     1     -45.942  64.255 -48.454  1.00  0.00     0.296 C 
BRANCH  14  15
HETATM   15  N   UNL     1     -46.164  63.912 -46.995  1.00  0.00    -0.066 N 
HETATM   16  C   UNL     1     -47.622  63.872 -46.630  1.00  0.00     0.270 C 
HETATM   17  H   UNL     1     -45.821  62.946 -46.894  1.00  0.00     0.280 HD
BRANCH  15  18
HETATM   18  C   UNL     1     -45.343  64.781 -46.081  1.00  0.00     0.273 C 
BRANCH  18  19
HETATM   19  C   UNL     1     -44.689  64.021 -44.960  1.00  0.00    -0.033 A 
HETATM   20  C   UNL     1     -44.690  62.618 -44.955  1.00  0.00     0.009 A 
HETATM   21  C   UNL     1     -44.110  61.915 -43.898  1.00  0.00     0.001 A 
HETATM   22  C   UNL     1     -43.523  62.605 -42.840  1.00  0.00     0.000 A 
HETATM   23  C   UNL     1     -43.513  63.997 -42.835  1.00  0.00     0.001 A 
HETATM   24  C   UNL     1     -44.091  64.705 -43.890  1.00  0.00     0.009 A 
ENDBRANCH  18  19
ENDBRANCH  15  18
ENDBRANCH  14  15
ENDBRANCH  12  14
ENDBRANCH   1   9
BRANCH   4  25
HETATM   25  N   UNL     1     -42.302  56.913 -53.371  1.00  0.00    -0.334 N 
HETATM   26  C   UNL     1     -41.977  55.812 -52.604  1.00  0.00     0.321 C 
HETATM   27  N   UNL     1     -41.076  55.005 -53.260  1.00  0.00    -0.309 N 
HETATM   28  O   UNL     1     -42.487  55.611 -51.511  1.00  0.00    -0.247 OA
HETATM   29  H   UNL     1     -40.785  55.319 -54.173  1.00  0.00     0.170 HD
HETATM   30  H   UNL     1     -41.564  57.263 -53.966  1.00  0.00     0.164 HD
BRANCH  27  31
HETATM   31  C   UNL     1     -40.596  53.742 -52.859  1.00  0.00     0.037 A 
HETATM   32  C   UNL     1     -40.595  52.609 -53.676  1.00  0.00     0.045 A 
HETATM   33  C   UNL     1     -40.057  51.389 -53.223  1.00  0.00     0.050 A 
HETATM   34  C   UNL     1     -39.542  51.313 -51.921  1.00  0.00     0.016 A 
HETATM   35  C   UNL     1     -39.548  52.435 -51.096  1.00  0.00     0.003 A 
HETATM   36  C   UNL     1     -40.069  53.642 -51.565  1.00  0.00     0.029 A 
BRANCH  33  37
HETATM   37  C   UNL     1     -40.059  50.170 -54.112  1.00  0.00     0.417 C 
HETATM   38  F   UNL     1     -39.792  49.012 -53.448  1.00  0.00    -0.166 F 
HETATM   39  F   UNL     1     -41.256  49.972 -54.732  1.00  0.00    -0.166 F 
HETATM   40  F   UNL     1     -39.133  50.254 -55.106  1.00  0.00    -0.166 F 
ENDBRANCH  33  37
ENDBRANCH  27  31
ENDBRANCH   4  25
TORSDOF 8
ENDMDL
MODEL 7
REMARK VINA RESULT:      -8.3      9.862     12.758
REMARK  8 active torsions:
REMARK  status: ('A' for Active; 'I' for Inactive)
REMARK    1  A    between atoms: N_2  and  C_4 
REMARK    2  A    between atoms: N_2  and  C_32 
REMARK    3  A    between atoms: C_4  and  C_5 
REMARK    4  A    between atoms: N_8  and  C_9 
REMARK    5  A    between atoms: C_12  and  N_13 
REMARK       I    between atoms: N_13  and  C_14 
REMARK       I    between atoms: C_14  and  N_15 
REMARK    6  A    between atoms: N_15  and  C_16 
REMARK    7  A    between atoms: C_18  and  C_19 
REMARK    8  A    between atoms: C_32  and  C_33 
ROOT
HETATM    1  C   UNL     1     -43.331  60.355 -51.841  1.00  0.00     0.161 C 
HETATM    2  C   UNL     1     -43.765  61.810 -51.894  1.00  0.00     0.179 C 
HETATM    3  C   UNL     1     -43.606  62.302 -50.464  1.00  0.00     0.177 C 
HETATM    4  C   UNL     1     -45.037  62.441 -49.966  1.00  0.00     0.141 C 
HETATM    5  C   UNL     1     -45.814  62.684 -51.258  1.00  0.00     0.196 C 
HETATM    6  O   UNL     1     -45.145  61.916 -52.277  1.00  0.00    -0.379 OA
HETATM    7  O   UNL     1     -42.885  61.299 -49.728  1.00  0.00    -0.379 OA
HETATM    8  C   UNL     1     -42.340  60.377 -50.690  1.00  0.00     0.198 C 
ENDROOT
BRANCH   1   9
HETATM    9  N   UNL     1     -42.831  59.872 -53.106  1.00  0.00    -0.274 N 
HETATM   10  N   UNL     1     -41.526  59.927 -53.425  1.00  0.00     0.005 NA
HETATM   11  N   UNL     1     -41.380  59.419 -54.638  1.00  0.00    -0.161 NA
HETATM   12  C   UNL     1     -42.613  59.031 -55.090  1.00  0.00     0.095 A 
HETATM   13  C   UNL     1     -43.551  59.296 -54.119  1.00  0.00     0.139 A 
BRANCH  12  14
HETATM   14  C   UNL     1     -42.758  58.472 -56.456  1.00  0.00     0.296 C 
BRANCH  14  15
HETATM   15  N   UNL     1     -42.574  56.969 -56.489  1.00  0.00    -0.066 N 
HETATM   16  C   UNL     1     -43.178  56.344 -57.716  1.00  0.00     0.270 C 
HETATM   17  H   UNL     1     -41.556  56.828 -56.572  1.00  0.00     0.280 HD
BRANCH  15  18
HETATM   18  C   UNL     1     -43.018  56.319 -55.207  1.00  0.00     0.273 C 
BRANCH  18  19
HETATM   19  C   UNL     1     -42.131  55.184 -54.772  1.00  0.00    -0.033 A 
HETATM   20  C   UNL     1     -42.524  54.334 -53.728  1.00  0.00     0.009 A 
HETATM   21  C   UNL     1     -41.686  53.301 -53.305  1.00  0.00     0.001 A 
HETATM   22  C   UNL     1     -40.452  53.107 -53.921  1.00  0.00     0.000 A 
HETATM   23  C   UNL     1     -40.053  53.942 -54.961  1.00  0.00     0.001 A 
HETATM   24  C   UNL     1     -40.887  54.976 -55.388  1.00  0.00     0.009 A 
ENDBRANCH  18  19
ENDBRANCH  15  18
ENDBRANCH  14  15
ENDBRANCH  12  14
ENDBRANCH   1   9
BRANCH   4  25
HETATM   25  N   UNL     1     -45.235  63.418 -48.904  1.00  0.00    -0.334 N 
HETATM   26  C   UNL     1     -45.327  63.054 -47.574  1.00  0.00     0.321 C 
HETATM   27  N   UNL     1     -45.457  64.163 -46.770  1.00  0.00    -0.309 N 
HETATM   28  O   UNL     1     -45.253  61.888 -47.215  1.00  0.00    -0.247 OA
HETATM   29  H   UNL     1     -45.473  65.053 -47.244  1.00  0.00     0.170 HD
HETATM   30  H   UNL     1     -45.754  64.245 -49.165  1.00  0.00     0.164 HD
BRANCH  27  31
HETATM   31  C   UNL     1     -45.464  64.213 -45.361  1.00  0.00     0.037 A 
HETATM   32  C   UNL     1     -44.377  63.851 -44.560  1.00  0.00     0.045 A 
HETATM   33  C   UNL     1     -44.440  63.968 -43.159  1.00  0.00     0.050 A 
HETATM   34  C   UNL     1     -45.623  64.429 -42.565  1.00  0.00     0.016 A 
HETATM   35  C   UNL     1     -46.714  64.782 -43.355  1.00  0.00     0.003 A 
HETATM   36  C   UNL     1     -46.632  64.678 -44.744  1.00  0.00     0.029 A 
BRANCH  33  37
HETATM   37  C   UNL     1     -43.261  63.576 -42.302  1.00  0.00     0.417 C 
HETATM   38  F   UNL     1     -43.491  63.711 -40.966  1.00  0.00    -0.166 F 
HETATM   39  F   UNL     1     -42.887  62.278 -42.482  1.00  0.00    -0.166 F 
HETATM   40  F   UNL     1     -42.156  64.323 -42.569  1.00  0.00    -0.166 F 
ENDBRANCH  33  37
ENDBRANCH  27  31
ENDBRANCH   4  25
TORSDOF 8
ENDMDL
MODEL 8
REMARK VINA RESULT:      -8.1      2.298      3.191
REMARK  8 active torsions:
REMARK  status: ('A' for Active; 'I' for Inactive)
REMARK    1  A    between atoms: N_2  and  C_4 
REMARK    2  A    between atoms: N_2  and  C_32 
REMARK    3  A    between atoms: C_4  and  C_5 
REMARK    4  A    between atoms: N_8  and  C_9 
REMARK    5  A    between atoms: C_12  and  N_13 
REMARK       I    between atoms: N_13  and  C_14 
REMARK       I    between atoms: C_14  and  N_15 
REMARK    6  A    between atoms: N_15  and  C_16 
REMARK    7  A    between atoms: C_18  and  C_19 
REMARK    8  A    between atoms: C_32  and  C_33 
ROOT
HETATM    1  C   UNL     1     -46.158  58.024 -58.040  1.00  0.00     0.161 C 
HETATM    2  C   UNL     1     -45.113  58.549 -57.069  1.00  0.00     0.179 C 
HETATM    3  C   UNL     1     -43.943  57.588 -57.220  1.00  0.00     0.177 C 
HETATM    4  C   UNL     1     -43.971  56.778 -55.932  1.00  0.00     0.141 C 
HETATM    5  C   UNL     1     -44.639  57.739 -54.951  1.00  0.00     0.196 C 
HETATM    6  O   UNL     1     -45.599  58.490 -55.719  1.00  0.00    -0.379 OA
HETATM    7  O   UNL     1     -44.194  56.762 -58.370  1.00  0.00    -0.379 OA
HETATM    8  C   UNL     1     -45.286  57.361 -59.093  1.00  0.00     0.198 C 
ENDROOT
BRANCH   1   9
HETATM    9  N   UNL     1     -47.056  59.052 -58.508  1.00  0.00    -0.274 N 
HETATM   10  N   UNL     1     -47.358  59.196 -59.811  1.00  0.00     0.005 NA
HETATM   11  N   UNL     1     -48.193  60.217 -59.926  1.00  0.00    -0.161 NA
HETATM   12  C   UNL     1     -48.427  60.720 -58.674  1.00  0.00     0.095 A 
HETATM   13  C   UNL     1     -47.723  59.980 -57.753  1.00  0.00     0.139 A 
BRANCH  12  14
HETATM   14  C   UNL     1     -49.291  61.914 -58.508  1.00  0.00     0.296 C 
BRANCH  14  15
HETATM   15  N   UNL     1     -50.441  61.668 -57.552  1.00  0.00    -0.066 N 
HETATM   16  C   UNL     1     -51.587  60.948 -58.206  1.00  0.00     0.270 C 
HETATM   17  H   UNL     1     -50.064  61.019 -56.846  1.00  0.00     0.280 HD
BRANCH  15  18
HETATM   18  C   UNL     1     -50.855  62.924 -56.834  1.00  0.00     0.273 C 
BRANCH  18  19
HETATM   19  C   UNL     1     -51.339  62.681 -55.431  1.00  0.00    -0.033 A 
HETATM   20  C   UNL     1     -50.486  62.113 -54.473  1.00  0.00     0.009 A 
HETATM   21  C   UNL     1     -50.946  61.858 -53.180  1.00  0.00     0.001 A 
HETATM   22  C   UNL     1     -52.259  62.170 -52.833  1.00  0.00     0.000 A 
HETATM   23  C   UNL     1     -53.114  62.737 -53.774  1.00  0.00     0.001 A 
HETATM   24  C   UNL     1     -52.658  62.994 -55.068  1.00  0.00     0.009 A 
ENDBRANCH  18  19
ENDBRANCH  15  18
ENDBRANCH  14  15
ENDBRANCH  12  14
ENDBRANCH   1   9
BRANCH   4  25
HETATM   25  N   UNL     1     -42.689  56.224 -55.518  1.00  0.00    -0.334 N 
HETATM   26  C   UNL     1     -42.589  55.204 -54.591  1.00  0.00     0.321 C 
HETATM   27  N   UNL     1     -41.278  54.826 -54.415  1.00  0.00    -0.309 N 
HETATM   28  O   UNL     1     -43.575  54.713 -54.061  1.00  0.00    -0.247 OA
HETATM   29  H   UNL     1     -40.596  55.330 -54.962  1.00  0.00     0.170 HD
HETATM   30  H   UNL     1     -41.910  56.867 -55.542  1.00  0.00     0.164 HD
BRANCH  27  31
HETATM   31  C   UNL     1     -40.784  53.753 -53.647  1.00  0.00     0.037 A 
HETATM   32  C   UNL     1     -40.569  52.466 -54.148  1.00  0.00     0.045 A 
HETATM   33  C   UNL     1     -40.030  51.453 -53.333  1.00  0.00     0.050 A 
HETATM   34  C   UNL     1     -39.735  51.739 -51.993  1.00  0.00     0.016 A 
HETATM   35  C   UNL     1     -39.956  53.017 -51.483  1.00  0.00     0.003 A 
HETATM   36  C   UNL     1     -40.473  54.017 -52.308  1.00  0.00     0.029 A 
BRANCH  33  37
HETATM   37  C   UNL     1     -39.800  50.066 -53.882  1.00  0.00     0.417 C 
HETATM   38  F   UNL     1     -40.838  49.597 -54.629  1.00  0.00    -0.166 F 
HETATM   39  F   UNL     1     -38.703  49.994 -54.688  1.00  0.00    -0.166 F 
HETATM   40  F   UNL     1     -39.601  49.147 -52.898  1.00  0.00    -0.166 F 
ENDBRANCH  33  37
ENDBRANCH  27  31
ENDBRANCH   4  25
TORSDOF 8
ENDMDL
MODEL 9
REMARK VINA RESULT:      -8.0      4.987     12.200
REMARK  8 active torsions:
REMARK  status: ('A' for Active; 'I' for Inactive)
REMARK    1  A    between atoms: N_2  and  C_4 
REMARK    2  A    between atoms: N_2  and  C_32 
REMARK    3  A    between atoms: C_4  and  C_5 
REMARK    4  A    between atoms: N_8  and  C_9 
REMARK    5  A    between atoms: C_12  and  N_13 
REMARK       I    between atoms: N_13  and  C_14 
REMARK       I    between atoms: C_14  and  N_15 
REMARK    6  A    between atoms: N_15  and  C_16 
REMARK    7  A    between atoms: C_18  and  C_19 
REMARK    8  A    between atoms: C_32  and  C_33 
ROOT
HETATM    1  C   UNL     1     -43.392  57.342 -53.309  1.00  0.00     0.161 C 
HETATM    2  C   UNL     1     -42.584  57.372 -54.595  1.00  0.00     0.179 C 
HETATM    3  C   UNL     1     -43.346  58.332 -55.496  1.00  0.00     0.177 C 
HETATM    4  C   UNL     1     -43.984  57.425 -56.537  1.00  0.00     0.141 C 
HETATM    5  C   UNL     1     -43.035  56.228 -56.559  1.00  0.00     0.196 C 
HETATM    6  O   UNL     1     -42.555  56.074 -55.209  1.00  0.00    -0.379 OA
HETATM    7  O   UNL     1     -44.338  58.998 -54.695  1.00  0.00    -0.379 OA
HETATM    8  C   UNL     1     -44.024  58.723 -53.317  1.00  0.00     0.198 C 
ENDROOT
BRANCH   1   9
HETATM    9  N   UNL     1     -42.595  57.010 -52.153  1.00  0.00    -0.274 N 
HETATM   10  N   UNL     1     -41.579  57.788 -51.740  1.00  0.00     0.005 NA
HETATM   11  N   UNL     1     -41.041  57.225 -50.669  1.00  0.00    -0.161 NA
HETATM   12  C   UNL     1     -41.734  56.076 -50.398  1.00  0.00     0.095 A 
HETATM   13  C   UNL     1     -42.741  55.929 -51.324  1.00  0.00     0.139 A 
BRANCH  12  14
HETATM   14  C   UNL     1     -41.311  55.206 -49.274  1.00  0.00     0.296 C 
BRANCH  14  15
HETATM   15  N   UNL     1     -40.903  53.821 -49.737  1.00  0.00    -0.066 N 
HETATM   16  C   UNL     1     -40.666  52.880 -48.589  1.00  0.00     0.270 C 
HETATM   17  H   UNL     1     -41.726  53.456 -50.238  1.00  0.00     0.280 HD
BRANCH  15  18
HETATM   18  C   UNL     1     -39.762  53.868 -50.716  1.00  0.00     0.273 C 
BRANCH  18  19
HETATM   19  C   UNL     1     -39.969  52.993 -51.921  1.00  0.00    -0.033 A 
HETATM   20  C   UNL     1     -39.502  51.670 -51.928  1.00  0.00     0.009 A 
HETATM   21  C   UNL     1     -39.668  50.868 -53.059  1.00  0.00     0.001 A 
HETATM   22  C   UNL     1     -40.302  51.379 -54.189  1.00  0.00     0.000 A 
HETATM   23  C   UNL     1     -40.773  52.689 -54.192  1.00  0.00     0.001 A 
HETATM   24  C   UNL     1     -40.610  53.494 -53.064  1.00  0.00     0.009 A 
ENDBRANCH  18  19
ENDBRANCH  15  18
ENDBRANCH  14  15
ENDBRANCH  12  14
ENDBRANCH   1   9
BRANCH   4  25
HETATM   25  N   UNL     1     -44.260  58.050 -57.823  1.00  0.00    -0.334 N 
HETATM   26  C   UNL     1     -45.536  58.134 -58.346  1.00  0.00     0.321 C 
HETATM   27  N   UNL     1     -45.533  58.816 -59.541  1.00  0.00    -0.309 N 
HETATM   28  O   UNL     1     -46.507  57.680 -57.758  1.00  0.00    -0.247 OA
HETATM   29  H   UNL     1     -44.635  59.143 -59.861  1.00  0.00     0.170 HD
HETATM   30  H   UNL     1     -43.514  57.991 -58.503  1.00  0.00     0.164 HD
BRANCH  27  31
HETATM   31  C   UNL     1     -46.645  59.205 -60.316  1.00  0.00     0.037 A 
HETATM   32  C   UNL     1     -47.406  58.325 -61.089  1.00  0.00     0.045 A 
HETATM   33  C   UNL     1     -48.532  58.777 -61.803  1.00  0.00     0.050 A 
HETATM   34  C   UNL     1     -48.870  60.137 -61.755  1.00  0.00     0.016 A 
HETATM   35  C   UNL     1     -48.110  61.023 -60.995  1.00  0.00     0.003 A 
HETATM   36  C   UNL     1     -47.007  60.557 -60.277  1.00  0.00     0.029 A 
BRANCH  33  37
HETATM   37  C   UNL     1     -49.350  57.820 -62.635  1.00  0.00     0.417 C 
HETATM   38  F   UNL     1     -49.444  56.573 -62.094  1.00  0.00    -0.166 F 
HETATM   39  F   UNL     1     -50.633  58.241 -62.814  1.00  0.00    -0.166 F 
HETATM   40  F   UNL     1     -48.836  57.649 -63.883  1.00  0.00    -0.166 F 
ENDBRANCH  33  37
ENDBRANCH  27  31
ENDBRANCH   4  25
TORSDOF 8
ENDMDL
MODEL 10
REMARK VINA RESULT:      -7.8      5.375     12.530
REMARK  8 active torsions:
REMARK  status: ('A' for Active; 'I' for Inactive)
REMARK    1  A    between atoms: N_2  and  C_4 
REMARK    2  A    between atoms: N_2  and  C_32 
REMARK    3  A    between atoms: C_4  and  C_5 
REMARK    4  A    between atoms: N_8  and  C_9 
REMARK    5  A    between atoms: C_12  and  N_13 
REMARK       I    between atoms: N_13  and  C_14 
REMARK       I    between atoms: C_14  and  N_15 
REMARK    6  A    between atoms: N_15  and  C_16 
REMARK    7  A    between atoms: C_18  and  C_19 
REMARK    8  A    between atoms: C_32  and  C_33 
ROOT
HETATM    1  C   UNL     1     -43.570  56.543 -55.774  1.00  0.00     0.161 C 
HETATM    2  C   UNL     1     -42.995  56.875 -57.141  1.00  0.00     0.179 C 
HETATM    3  C   UNL     1     -44.034  57.786 -57.775  1.00  0.00     0.177 C 
HETATM    4  C   UNL     1     -44.680  56.914 -58.841  1.00  0.00     0.141 C 
HETATM    5  C   UNL     1     -43.570  55.919 -59.171  1.00  0.00     0.196 C 
HETATM    6  O   UNL     1     -42.860  55.688 -57.939  1.00  0.00    -0.379 OA
HETATM    7  O   UNL     1     -44.977  58.160 -56.754  1.00  0.00    -0.379 OA
HETATM    8  C   UNL     1     -44.405  57.779 -55.489  1.00  0.00     0.198 C 
ENDROOT
BRANCH   1   9
HETATM    9  N   UNL     1     -42.554  56.219 -54.801  1.00  0.00    -0.274 N 
HETATM   10  N   UNL     1     -41.287  55.943 -55.159  1.00  0.00     0.005 NA
HETATM   11  N   UNL     1     -40.599  55.683 -54.058  1.00  0.00    -0.161 NA
HETATM   12  C   UNL     1     -41.445  55.804 -52.988  1.00  0.00     0.095 A 
HETATM   13  C   UNL     1     -42.694  56.162 -53.440  1.00  0.00     0.139 A 
BRANCH  12  14
HETATM   14  C   UNL     1     -40.952  55.512 -51.620  1.00  0.00     0.296 C 
BRANCH  14  15
HETATM   15  N   UNL     1     -41.178  54.069 -51.218  1.00  0.00    -0.066 N 
HETATM   16  C   UNL     1     -41.984  53.944 -49.955  1.00  0.00     0.270 C 
HETATM   17  H   UNL     1     -41.764  53.674 -51.968  1.00  0.00     0.280 HD
BRANCH  15  18
HETATM   18  C   UNL     1     -39.895  53.285 -51.188  1.00  0.00     0.273 C 
BRANCH  18  19
HETATM   19  C   UNL     1     -39.887  52.112 -52.129  1.00  0.00    -0.033 A 
HETATM   20  C   UNL     1     -40.259  52.275 -53.472  1.00  0.00     0.009 A 
HETATM   21  C   UNL     1     -40.281  51.180 -54.337  1.00  0.00     0.001 A 
HETATM   22  C   UNL     1     -39.931  49.915 -53.870  1.00  0.00     0.000 A 
HETATM   23  C   UNL     1     -39.556  49.741 -52.540  1.00  0.00     0.001 A 
HETATM   24  C   UNL     1     -39.532  50.833 -51.672  1.00  0.00     0.009 A 
ENDBRANCH  18  19
ENDBRANCH  15  18
ENDBRANCH  14  15
ENDBRANCH  12  14
ENDBRANCH   1   9
BRANCH   4  25
HETATM   25  N   UNL     1     -45.255  57.634 -59.970  1.00  0.00    -0.334 N 
HETATM   26  C   UNL     1     -46.600  57.568 -60.280  1.00  0.00     0.321 C 
HETATM   27  N   UNL     1     -46.896  58.378 -61.352  1.00  0.00    -0.309 N 
HETATM   28  O   UNL     1     -47.383  56.895 -59.625  1.00  0.00    -0.247 OA
HETATM   29  H   UNL     1     -46.121  58.883 -61.752  1.00  0.00     0.170 HD
HETATM   30  H   UNL     1     -44.635  57.778 -60.754  1.00  0.00     0.164 HD
BRANCH  27  31
HETATM   31  C   UNL     1     -48.167  58.668 -61.890  1.00  0.00     0.037 A 
HETATM   32  C   UNL     1     -49.061  59.586 -61.333  1.00  0.00     0.045 A 
HETATM   33  C   UNL     1     -50.297  59.858 -61.950  1.00  0.00     0.050 A 
HETATM   34  C   UNL     1     -50.639  59.174 -63.125  1.00  0.00     0.016 A 
HETATM   35  C   UNL     1     -49.756  58.251 -63.681  1.00  0.00     0.003 A 
HETATM   36  C   UNL     1     -48.527  58.003 -63.068  1.00  0.00     0.029 A 
BRANCH  33  37
HETATM   37  C   UNL     1     -51.257  60.851 -61.342  1.00  0.00     0.417 C 
HETATM   38  F   UNL     1     -51.892  60.384 -60.232  1.00  0.00    -0.166 F 
HETATM   39  F   UNL     1     -50.647  62.008 -60.959  1.00  0.00    -0.166 F 
HETATM   40  F   UNL     1     -52.240  61.218 -62.210  1.00  0.00    -0.166 F 
ENDBRANCH  33  37
ENDBRANCH  27  31
ENDBRANCH   4  25
TORSDOF 8
ENDMDL
