MODEL 1
REMARK VINA RESULT:      -7.6      0.000      0.000
REMARK  10 active torsions:
REMARK  status: ('A' for Active; 'I' for Inactive)
REMARK    1  A    between atoms: C_4  and  N_5 
REMARK    2  A    between atoms: N_5  and  C_6 
REMARK    3  A    between atoms: C_6  and  N_7 
REMARK    4  A    between atoms: N_7  and  N_8 
REMARK       I    between atoms: N_8  and  C_9 
REMARK    5  A    between atoms: C_9  and  C_10 
REMARK    6  A    between atoms: C_10  and  O_11 
REMARK    7  A    between atoms: O_11  and  C_12 
REMARK    8  A    between atoms: C_23  and  C_24 
REMARK    9  A    between atoms: C_24  and  O_25 
REMARK   10  A    between atoms: C_28  and  C_29 
ROOT
HETATM    1  C   UNL     1     -42.814  60.974 -54.888  1.00  0.00     0.191 C 
HETATM    2  S   UNL     1     -43.800  61.845 -53.843  1.00  0.00    -0.039 SA
ENDROOT
BRANCH   1   3
HETATM    3  N   UNL     1     -43.173  60.949 -56.214  1.00  0.00    -0.325 N 
HETATM    4  H   UNL     1     -43.989  61.532 -56.377  1.00  0.00     0.169 HD
BRANCH   3   5
HETATM    5  C   UNL     1     -43.123  59.833 -57.035  1.00  0.00     0.094 C 
HETATM    6  S   UNL     1     -41.842  59.974 -58.151  1.00  0.00    -0.075 SA
HETATM    7  C   UNL     1     -42.404  58.648 -59.066  1.00  0.00    -0.007 C 
HETATM    8  C   UNL     1     -41.730  58.315 -60.359  1.00  0.00     0.057 C 
HETATM    9  C   UNL     1     -43.474  58.024 -58.442  1.00  0.00     0.006 C 
HETATM   10  C   UNL     1     -43.796  58.628 -57.156  1.00  0.00     0.085 C 
BRANCH   9  11
HETATM   11  C   UNL     1     -44.182  56.927 -59.097  1.00  0.00    -0.024 A 
HETATM   12  C   UNL     1     -45.359  57.207 -59.806  1.00  0.00     0.012 A 
HETATM   13  C   UNL     1     -46.050  56.184 -60.453  1.00  0.00     0.001 A 
HETATM   14  C   UNL     1     -45.569  54.876 -60.396  1.00  0.00     0.000 A 
HETATM   15  C   UNL     1     -44.400  54.592 -59.690  1.00  0.00     0.001 A 
HETATM   16  C   UNL     1     -43.707  55.614 -59.038  1.00  0.00     0.012 A 
ENDBRANCH   9  11
BRANCH  10  17
HETATM   17  C   UNL     1     -44.675  58.064 -56.127  1.00  0.00     0.296 C 
HETATM   18  O   UNL     1     -45.884  57.924 -56.280  1.00  0.00    -0.259 OA
BRANCH  17  19
HETATM   19  O   UNL     1     -44.032  57.760 -54.965  1.00  0.00    -0.322 OA
HETATM   20  C   UNL     1     -44.882  57.271 -53.927  1.00  0.00     0.213 C 
ENDBRANCH  17  19
ENDBRANCH  10  17
ENDBRANCH   3   5
ENDBRANCH   1   3
BRANCH   1  21
HETATM   21  N   UNL     1     -41.747  60.218 -54.486  1.00  0.00    -0.273 N 
HETATM   22  H   UNL     1     -40.880  60.738 -54.328  1.00  0.00     0.189 HD
BRANCH  21  23
HETATM   23  N   UNL     1     -41.906  59.150 -53.584  1.00  0.00    -0.266 N 
HETATM   24  C   UNL     1     -40.766  58.612 -53.017  1.00  0.00     0.265 C 
HETATM   25  O   UNL     1     -39.645  59.105 -53.148  1.00  0.00    -0.269 OA
HETATM   26  H   UNL     1     -42.759  58.598 -53.668  1.00  0.00     0.190 HD
BRANCH  24  27
HETATM   27  C   UNL     1     -41.007  57.346 -52.189  1.00  0.00     0.218 C 
HETATM   28  C   UNL     1     -41.726  57.703 -50.892  1.00  0.00     0.050 C 
BRANCH  27  29
HETATM   29  O   UNL     1     -41.837  56.426 -52.899  1.00  0.00    -0.335 OA
BRANCH  29  30
HETATM   30  C   UNL     1     -41.357  55.150 -53.051  1.00  0.00     0.091 A 
HETATM   31  C   UNL     1     -41.230  54.657 -54.359  1.00  0.00     0.068 A 
HETATM   32 CL   UNL     1     -41.710  55.605 -55.723  1.00  0.00    -0.081 Cl
HETATM   33  C   UNL     1     -40.728  53.375 -54.595  1.00  0.00     0.046 A 
HETATM   34  C   UNL     1     -40.337  52.586 -53.518  1.00  0.00     0.012 A 
HETATM   35 BR   UNL     1     -39.657  50.849 -53.825  1.00  0.00    -0.051 Br
HETATM   36  C   UNL     1     -40.435  53.068 -52.215  1.00  0.00     0.022 A 
HETATM   37  C   UNL     1     -40.939  54.351 -51.981  1.00  0.00     0.040 A 
ENDBRANCH  29  30
ENDBRANCH  27  29
ENDBRANCH  24  27
ENDBRANCH  21  23
ENDBRANCH   1  21
TORSDOF 10
ENDMDL
MODEL 2
REMARK VINA RESULT:      -7.6      5.845      8.748
REMARK  10 active torsions:
REMARK  status: ('A' for Active; 'I' for Inactive)
REMARK    1  A    between atoms: C_4  and  N_5 
REMARK    2  A    between atoms: N_5  and  C_6 
REMARK    3  A    between atoms: C_6  and  N_7 
REMARK    4  A    between atoms: N_7  and  N_8 
REMARK       I    between atoms: N_8  and  C_9 
REMARK    5  A    between atoms: C_9  and  C_10 
REMARK    6  A    between atoms: C_10  and  O_11 
REMARK    7  A    between atoms: O_11  and  C_12 
REMARK    8  A    between atoms: C_23  and  C_24 
REMARK    9  A    between atoms: C_24  and  O_25 
REMARK   10  A    between atoms: C_28  and  C_29 
ROOT
HETATM    1  C   UNL     1     -44.304  57.775 -52.545  1.00  0.00     0.191 C 
HETATM    2  S   UNL     1     -44.795  58.897 -53.695  1.00  0.00    -0.039 SA
ENDROOT
BRANCH   1   3
HETATM    3  N   UNL     1     -44.255  56.458 -52.936  1.00  0.00    -0.325 N 
HETATM    4  H   UNL     1     -45.041  55.940 -52.554  1.00  0.00     0.169 HD
BRANCH   3   5
HETATM    5  C   UNL     1     -43.100  55.700 -53.049  1.00  0.00     0.094 C 
HETATM    6  S   UNL     1     -42.055  56.379 -54.212  1.00  0.00    -0.075 SA
HETATM    7  C   UNL     1     -41.058  54.995 -54.223  1.00  0.00    -0.007 C 
HETATM    8  C   UNL     1     -39.944  54.905 -55.218  1.00  0.00     0.057 C 
HETATM    9  C   UNL     1     -41.445  54.089 -53.247  1.00  0.00     0.006 C 
HETATM   10  C   UNL     1     -42.555  54.581 -52.441  1.00  0.00     0.085 C 
BRANCH   9  11
HETATM   11  C   UNL     1     -40.796  52.785 -53.142  1.00  0.00    -0.024 A 
HETATM   12  C   UNL     1     -40.052  52.489 -51.991  1.00  0.00     0.012 A 
HETATM   13  C   UNL     1     -39.431  51.247 -51.855  1.00  0.00     0.001 A 
HETATM   14  C   UNL     1     -39.552  50.295 -52.867  1.00  0.00     0.000 A 
HETATM   15  C   UNL     1     -40.290  50.586 -54.015  1.00  0.00     0.001 A 
HETATM   16  C   UNL     1     -40.910  51.829 -54.156  1.00  0.00     0.012 A 
ENDBRANCH   9  11
BRANCH  10  17
HETATM   17  C   UNL     1     -43.028  54.012 -51.176  1.00  0.00     0.296 C 
HETATM   18  O   UNL     1     -44.145  53.525 -51.036  1.00  0.00    -0.259 OA
BRANCH  17  19
HETATM   19  O   UNL     1     -42.132  54.124 -50.156  1.00  0.00    -0.322 OA
HETATM   20  C   UNL     1     -41.749  55.464 -49.847  1.00  0.00     0.213 C 
ENDBRANCH  17  19
ENDBRANCH  10  17
ENDBRANCH   3   5
ENDBRANCH   1   3
BRANCH   1  21
HETATM   21  N   UNL     1     -44.050  58.077 -51.235  1.00  0.00    -0.273 N 
HETATM   22  H   UNL     1     -43.264  57.572 -50.817  1.00  0.00     0.189 HD
BRANCH  21  23
HETATM   23  N   UNL     1     -44.160  59.395 -50.754  1.00  0.00    -0.266 N 
HETATM   24  C   UNL     1     -45.373  59.785 -50.220  1.00  0.00     0.265 C 
HETATM   25  O   UNL     1     -46.307  59.008 -50.016  1.00  0.00    -0.269 OA
HETATM   26  H   UNL     1     -43.512  60.082 -51.138  1.00  0.00     0.190 HD
BRANCH  24  27
HETATM   27  C   UNL     1     -45.467  61.276 -49.884  1.00  0.00     0.218 C 
HETATM   28  C   UNL     1     -45.945  62.055 -51.105  1.00  0.00     0.050 C 
BRANCH  27  29
HETATM   29  O   UNL     1     -46.411  61.502 -48.835  1.00  0.00    -0.335 OA
BRANCH  29  30
HETATM   30  C   UNL     1     -45.971  62.216 -47.751  1.00  0.00     0.091 A 
HETATM   31  C   UNL     1     -45.796  61.520 -46.544  1.00  0.00     0.068 A 
HETATM   32 CL   UNL     1     -46.171  59.837 -46.421  1.00  0.00    -0.081 Cl
HETATM   33  C   UNL     1     -45.331  62.175 -45.401  1.00  0.00     0.046 A 
HETATM   34  C   UNL     1     -45.024  63.530 -45.468  1.00  0.00     0.012 A 
HETATM   35 BR   UNL     1     -44.394  64.427 -43.928  1.00  0.00    -0.051 Br
HETATM   36  C   UNL     1     -45.170  64.231 -46.663  1.00  0.00     0.022 A 
HETATM   37  C   UNL     1     -45.638  63.574 -47.805  1.00  0.00     0.040 A 
ENDBRANCH  29  30
ENDBRANCH  27  29
ENDBRANCH  24  27
ENDBRANCH  21  23
ENDBRANCH   1  21
TORSDOF 10
ENDMDL
MODEL 3
REMARK VINA RESULT:      -7.5      1.696      1.986
REMARK  10 active torsions:
REMARK  status: ('A' for Active; 'I' for Inactive)
REMARK    1  A    between atoms: C_4  and  N_5 
REMARK    2  A    between atoms: N_5  and  C_6 
REMARK    3  A    between atoms: C_6  and  N_7 
REMARK    4  A    between atoms: N_7  and  N_8 
REMARK       I    between atoms: N_8  and  C_9 
REMARK    5  A    between atoms: C_9  and  C_10 
REMARK    6  A    between atoms: C_10  and  O_11 
REMARK    7  A    between atoms: O_11  and  C_12 
REMARK    8  A    between atoms: C_23  and  C_24 
REMARK    9  A    between atoms: C_24  and  O_25 
REMARK   10  A    between atoms: C_28  and  C_29 
ROOT
HETATM    1  C   UNL     1     -42.788  60.588 -54.701  1.00  0.00     0.191 C 
HETATM    2  S   UNL     1     -43.835  61.785 -55.244  1.00  0.00    -0.039 SA
ENDROOT
BRANCH   1   3
HETATM    3  N   UNL     1     -41.865  60.110 -55.599  1.00  0.00    -0.325 N 
HETATM    4  H   UNL     1     -41.114  60.780 -55.736  1.00  0.00     0.169 HD
BRANCH   3   5
HETATM    5  C   UNL     1     -42.162  59.379 -56.739  1.00  0.00     0.094 C 
HETATM    6  S   UNL     1     -41.691  60.236 -58.135  1.00  0.00    -0.075 SA
HETATM    7  C   UNL     1     -42.534  59.165 -59.160  1.00  0.00    -0.007 C 
HETATM    8  C   UNL     1     -42.627  59.473 -60.621  1.00  0.00     0.057 C 
HETATM    9  C   UNL     1     -43.049  58.090 -58.450  1.00  0.00     0.006 C 
HETATM   10  C   UNL     1     -42.688  58.132 -57.039  1.00  0.00     0.085 C 
BRANCH   9  11
HETATM   11  C   UNL     1     -43.897  57.100 -59.109  1.00  0.00    -0.024 A 
HETATM   12  C   UNL     1     -45.272  57.353 -59.220  1.00  0.00     0.012 A 
HETATM   13  C   UNL     1     -46.106  56.433 -59.855  1.00  0.00     0.001 A 
HETATM   14  C   UNL     1     -45.572  55.259 -60.383  1.00  0.00     0.000 A 
HETATM   15  C   UNL     1     -44.205  55.002 -60.273  1.00  0.00     0.001 A 
HETATM   16  C   UNL     1     -43.367  55.918 -59.634  1.00  0.00     0.012 A 
ENDBRANCH   9  11
BRANCH  10  17
HETATM   17  C   UNL     1     -42.830  57.039 -56.074  1.00  0.00     0.296 C 
HETATM   18  O   UNL     1     -42.338  55.928 -56.240  1.00  0.00    -0.259 OA
BRANCH  17  19
HETATM   19  O   UNL     1     -43.608  57.355 -55.000  1.00  0.00    -0.322 OA
HETATM   20  C   UNL     1     -44.977  57.609 -55.314  1.00  0.00     0.213 C 
ENDBRANCH  17  19
ENDBRANCH  10  17
ENDBRANCH   3   5
ENDBRANCH   1   3
BRANCH   1  21
HETATM   21  N   UNL     1     -42.864  60.001 -53.468  1.00  0.00    -0.273 N 
HETATM   22  H   UNL     1     -43.811  59.793 -53.143  1.00  0.00     0.189 HD
BRANCH  21  23
HETATM   23  N   UNL     1     -41.931  59.029 -53.062  1.00  0.00    -0.266 N 
HETATM   24  C   UNL     1     -42.336  58.102 -52.120  1.00  0.00     0.265 C 
HETATM   25  O   UNL     1     -43.499  57.996 -51.729  1.00  0.00    -0.269 OA
HETATM   26  H   UNL     1     -40.944  59.260 -53.178  1.00  0.00     0.190 HD
BRANCH  24  27
HETATM   27  C   UNL     1     -41.217  57.195 -51.601  1.00  0.00     0.218 C 
HETATM   28  C   UNL     1     -40.531  57.848 -50.405  1.00  0.00     0.050 C 
BRANCH  27  29
HETATM   29  O   UNL     1     -41.742  55.941 -51.163  1.00  0.00    -0.335 OA
BRANCH  29  30
HETATM   30  C   UNL     1     -41.344  54.828 -51.857  1.00  0.00     0.091 A 
HETATM   31  C   UNL     1     -40.420  53.972 -51.236  1.00  0.00     0.068 A 
HETATM   32 CL   UNL     1     -39.771  54.338 -49.676  1.00  0.00    -0.081 Cl
HETATM   33  C   UNL     1     -39.984  52.807 -51.872  1.00  0.00     0.046 A 
HETATM   34  C   UNL     1     -40.486  52.487 -53.130  1.00  0.00     0.012 A 
HETATM   35 BR   UNL     1     -39.902  50.914 -54.000  1.00  0.00    -0.051 Br
HETATM   36  C   UNL     1     -41.420  53.313 -53.751  1.00  0.00     0.022 A 
HETATM   37  C   UNL     1     -41.853  54.479 -53.113  1.00  0.00     0.040 A 
ENDBRANCH  29  30
ENDBRANCH  27  29
ENDBRANCH  24  27
ENDBRANCH  21  23
ENDBRANCH   1  21
TORSDOF 10
ENDMDL
MODEL 4
REMARK VINA RESULT:      -7.2      1.751      2.534
REMARK  10 active torsions:
REMARK  status: ('A' for Active; 'I' for Inactive)
REMARK    1  A    between atoms: C_4  and  N_5 
REMARK    2  A    between atoms: N_5  and  C_6 
REMARK    3  A    between atoms: C_6  and  N_7 
REMARK    4  A    between atoms: N_7  and  N_8 
REMARK       I    between atoms: N_8  and  C_9 
REMARK    5  A    between atoms: C_9  and  C_10 
REMARK    6  A    between atoms: C_10  and  O_11 
REMARK    7  A    between atoms: O_11  and  C_12 
REMARK    8  A    between atoms: C_23  and  C_24 
REMARK    9  A    between atoms: C_24  and  O_25 
REMARK   10  A    between atoms: C_28  and  C_29 
ROOT
HETATM    1  C   UNL     1     -42.828  60.971 -54.530  1.00  0.00     0.191 C 
HETATM    2  S   UNL     1     -43.594  61.450 -53.113  1.00  0.00    -0.039 SA
ENDROOT
BRANCH   1   3
HETATM    3  N   UNL     1     -43.454  61.276 -55.715  1.00  0.00    -0.325 N 
HETATM    4  H   UNL     1     -44.008  62.122 -55.622  1.00  0.00     0.169 HD
BRANCH   3   5
HETATM    5  C   UNL     1     -44.004  60.352 -56.589  1.00  0.00     0.094 C 
HETATM    6  S   UNL     1     -45.695  60.272 -56.383  1.00  0.00    -0.075 SA
HETATM    7  C   UNL     1     -45.814  58.865 -57.339  1.00  0.00    -0.007 C 
HETATM    8  C   UNL     1     -47.131  58.164 -57.447  1.00  0.00     0.057 C 
HETATM    9  C   UNL     1     -44.595  58.547 -57.920  1.00  0.00     0.006 C 
HETATM   10  C   UNL     1     -43.559  59.523 -57.606  1.00  0.00     0.085 C 
BRANCH   9  11
HETATM   11  C   UNL     1     -44.437  57.322 -58.698  1.00  0.00    -0.024 A 
HETATM   12  C   UNL     1     -45.005  57.254 -59.978  1.00  0.00     0.012 A 
HETATM   13  C   UNL     1     -44.861  56.102 -60.751  1.00  0.00     0.001 A 
HETATM   14  C   UNL     1     -44.149  55.014 -60.250  1.00  0.00     0.000 A 
HETATM   15  C   UNL     1     -43.583  55.075 -58.976  1.00  0.00     0.001 A 
HETATM   16  C   UNL     1     -43.729  56.225 -58.198  1.00  0.00     0.012 A 
ENDBRANCH   9  11
BRANCH  10  17
HETATM   17  C   UNL     1     -42.253  59.643 -58.260  1.00  0.00     0.296 C 
HETATM   18  O   UNL     1     -41.975  59.081 -59.314  1.00  0.00    -0.259 OA
BRANCH  17  19
HETATM   19  O   UNL     1     -41.357  60.393 -57.559  1.00  0.00    -0.322 OA
HETATM   20  C   UNL     1     -40.947  61.593 -58.214  1.00  0.00     0.213 C 
ENDBRANCH  17  19
ENDBRANCH  10  17
ENDBRANCH   3   5
ENDBRANCH   1   3
BRANCH   1  21
HETATM   21  N   UNL     1     -41.685  60.219 -54.570  1.00  0.00    -0.273 N 
HETATM   22  H   UNL     1     -40.843  60.724 -54.858  1.00  0.00     0.189 HD
BRANCH  21  23
HETATM   23  N   UNL     1     -41.419  59.240 -53.595  1.00  0.00    -0.266 N 
HETATM   24  C   UNL     1     -41.741  57.930 -53.895  1.00  0.00     0.265 C 
HETATM   25  O   UNL     1     -42.111  57.560 -55.010  1.00  0.00    -0.269 OA
HETATM   26  H   UNL     1     -41.361  59.556 -52.628  1.00  0.00     0.190 HD
BRANCH  24  27
HETATM   27  C   UNL     1     -41.589  56.956 -52.723  1.00  0.00     0.218 C 
HETATM   28  C   UNL     1     -42.044  57.624 -51.430  1.00  0.00     0.050 C 
BRANCH  27  29
HETATM   29  O   UNL     1     -42.402  55.798 -52.917  1.00  0.00    -0.335 OA
BRANCH  29  30
HETATM   30  C   UNL     1     -41.749  54.599 -53.049  1.00  0.00     0.091 A 
HETATM   31  C   UNL     1     -42.043  53.823 -54.182  1.00  0.00     0.068 A 
HETATM   32 CL   UNL     1     -43.222  54.338 -55.337  1.00  0.00    -0.081 Cl
HETATM   33  C   UNL     1     -41.404  52.600 -54.397  1.00  0.00     0.046 A 
HETATM   34  C   UNL     1     -40.453  52.156 -53.484  1.00  0.00     0.012 A 
HETATM   35 BR   UNL     1     -39.581  50.503 -53.765  1.00  0.00    -0.051 Br
HETATM   36  C   UNL     1     -40.132  52.924 -52.367  1.00  0.00     0.022 A 
HETATM   37  C   UNL     1     -40.775  54.147 -52.152  1.00  0.00     0.040 A 
ENDBRANCH  29  30
ENDBRANCH  27  29
ENDBRANCH  24  27
ENDBRANCH  21  23
ENDBRANCH   1  21
TORSDOF 10
ENDMDL
MODEL 5
REMARK VINA RESULT:      -7.2      2.655      7.034
REMARK  10 active torsions:
REMARK  status: ('A' for Active; 'I' for Inactive)
REMARK    1  A    between atoms: C_4  and  N_5 
REMARK    2  A    between atoms: N_5  and  C_6 
REMARK    3  A    between atoms: C_6  and  N_7 
REMARK    4  A    between atoms: N_7  and  N_8 
REMARK       I    between atoms: N_8  and  C_9 
REMARK    5  A    between atoms: C_9  and  C_10 
REMARK    6  A    between atoms: C_10  and  O_11 
REMARK    7  A    between atoms: O_11  and  C_12 
REMARK    8  A    between atoms: C_23  and  C_24 
REMARK    9  A    between atoms: C_24  and  O_25 
REMARK   10  A    between atoms: C_28  and  C_29 
ROOT
HETATM    1  C   UNL     1     -43.741  60.598 -52.990  1.00  0.00     0.191 C 
HETATM    2  S   UNL     1     -45.349  60.802 -53.433  1.00  0.00    -0.039 SA
ENDROOT
BRANCH   1   3
HETATM    3  N   UNL     1     -43.493  59.893 -51.837  1.00  0.00    -0.325 N 
HETATM    4  H   UNL     1     -42.933  60.443 -51.192  1.00  0.00     0.169 HD
BRANCH   3   5
HETATM    5  C   UNL     1     -43.230  58.534 -51.772  1.00  0.00     0.094 C 
HETATM    6  S   UNL     1     -44.617  57.682 -51.266  1.00  0.00    -0.075 SA
HETATM    7  C   UNL     1     -43.730  56.246 -51.021  1.00  0.00    -0.007 C 
HETATM    8  C   UNL     1     -44.408  55.065 -50.404  1.00  0.00     0.057 C 
HETATM    9  C   UNL     1     -42.420  56.384 -51.457  1.00  0.00     0.006 C 
HETATM   10  C   UNL     1     -42.168  57.689 -52.054  1.00  0.00     0.085 C 
BRANCH   9  11
HETATM   11  C   UNL     1     -41.450  55.313 -51.250  1.00  0.00    -0.024 A 
HETATM   12  C   UNL     1     -41.286  54.345 -52.251  1.00  0.00     0.012 A 
HETATM   13  C   UNL     1     -40.358  53.316 -52.089  1.00  0.00     0.001 A 
HETATM   14  C   UNL     1     -39.589  53.250 -50.929  1.00  0.00     0.000 A 
HETATM   15  C   UNL     1     -39.750  54.210 -49.929  1.00  0.00     0.001 A 
HETATM   16  C   UNL     1     -40.680  55.239 -50.085  1.00  0.00     0.012 A 
ENDBRANCH   9  11
BRANCH  10  17
HETATM   17  C   UNL     1     -40.994  58.070 -52.845  1.00  0.00     0.296 C 
HETATM   18  O   UNL     1     -40.522  57.362 -53.728  1.00  0.00    -0.259 OA
BRANCH  17  19
HETATM   19  O   UNL     1     -40.443  59.259 -52.471  1.00  0.00    -0.322 OA
HETATM   20  C   UNL     1     -39.639  59.196 -51.293  1.00  0.00     0.213 C 
ENDBRANCH  17  19
ENDBRANCH  10  17
ENDBRANCH   3   5
ENDBRANCH   1   3
BRANCH   1  21
HETATM   21  N   UNL     1     -42.685  61.170 -53.646  1.00  0.00    -0.273 N 
HETATM   22  H   UNL     1     -41.904  61.453 -53.048  1.00  0.00     0.189 HD
BRANCH  21  23
HETATM   23  N   UNL     1     -42.257  60.693 -54.899  1.00  0.00    -0.266 N 
HETATM   24  C   UNL     1     -42.687  61.370 -56.025  1.00  0.00     0.265 C 
HETATM   25  O   UNL     1     -43.298  62.438 -55.983  1.00  0.00    -0.269 OA
HETATM   26  H   UNL     1     -41.983  59.712 -54.951  1.00  0.00     0.190 HD
BRANCH  24  27
HETATM   27  C   UNL     1     -42.328  60.689 -57.349  1.00  0.00     0.218 C 
HETATM   28  C   UNL     1     -41.254  61.495 -58.073  1.00  0.00     0.050 C 
BRANCH  27  29
HETATM   29  O   UNL     1     -41.801  59.381 -57.120  1.00  0.00    -0.335 OA
BRANCH  29  30
HETATM   30  C   UNL     1     -42.341  58.359 -57.858  1.00  0.00     0.091 A 
HETATM   31  C   UNL     1     -43.439  57.676 -57.312  1.00  0.00     0.068 A 
HETATM   32 CL   UNL     1     -44.052  58.076 -55.745  1.00  0.00    -0.081 Cl
HETATM   33  C   UNL     1     -44.056  56.637 -58.013  1.00  0.00     0.046 A 
HETATM   34  C   UNL     1     -43.584  56.289 -59.274  1.00  0.00     0.012 A 
HETATM   35 BR   UNL     1     -44.411  54.885 -60.231  1.00  0.00    -0.051 Br
HETATM   36  C   UNL     1     -42.509  56.971 -59.840  1.00  0.00     0.022 A 
HETATM   37  C   UNL     1     -41.892  58.009 -59.136  1.00  0.00     0.040 A 
ENDBRANCH  29  30
ENDBRANCH  27  29
ENDBRANCH  24  27
ENDBRANCH  21  23
ENDBRANCH   1  21
TORSDOF 10
ENDMDL
MODEL 6
REMARK VINA RESULT:      -7.1      2.926      7.142
REMARK  10 active torsions:
REMARK  status: ('A' for Active; 'I' for Inactive)
REMARK    1  A    between atoms: C_4  and  N_5 
REMARK    2  A    between atoms: N_5  and  C_6 
REMARK    3  A    between atoms: C_6  and  N_7 
REMARK    4  A    between atoms: N_7  and  N_8 
REMARK       I    between atoms: N_8  and  C_9 
REMARK    5  A    between atoms: C_9  and  C_10 
REMARK    6  A    between atoms: C_10  and  O_11 
REMARK    7  A    between atoms: O_11  and  C_12 
REMARK    8  A    between atoms: C_23  and  C_24 
REMARK    9  A    between atoms: C_24  and  O_25 
REMARK   10  A    between atoms: C_28  and  C_29 
ROOT
HETATM    1  C   UNL     1     -43.385  59.909 -52.996  1.00  0.00     0.191 C 
HETATM    2  S   UNL     1     -45.022  60.209 -53.222  1.00  0.00    -0.039 SA
ENDROOT
BRANCH   1   3
HETATM    3  N   UNL     1     -43.035  59.104 -51.939  1.00  0.00    -0.325 N 
HETATM    4  H   UNL     1     -42.332  59.555 -51.359  1.00  0.00     0.169 HD
BRANCH   3   5
HETATM    5  C   UNL     1     -42.900  57.726 -51.994  1.00  0.00     0.094 C 
HETATM    6  S   UNL     1     -44.214  56.967 -51.216  1.00  0.00    -0.075 SA
HETATM    7  C   UNL     1     -43.441  55.447 -51.244  1.00  0.00    -0.007 C 
HETATM    8  C   UNL     1     -44.076  54.292 -50.537  1.00  0.00     0.057 C 
HETATM    9  C   UNL     1     -42.257  55.498 -51.964  1.00  0.00     0.006 C 
HETATM   10  C   UNL     1     -42.018  56.812 -52.548  1.00  0.00     0.085 C 
BRANCH   9  11
HETATM   11  C   UNL     1     -41.376  54.335 -52.033  1.00  0.00    -0.024 A 
HETATM   12  C   UNL     1     -40.501  54.084 -50.966  1.00  0.00     0.012 A 
HETATM   13  C   UNL     1     -39.657  52.974 -50.996  1.00  0.00     0.001 A 
HETATM   14  C   UNL     1     -39.683  52.110 -52.090  1.00  0.00     0.000 A 
HETATM   15  C   UNL     1     -40.550  52.357 -53.155  1.00  0.00     0.001 A 
HETATM   16  C   UNL     1     -41.394  53.469 -53.131  1.00  0.00     0.012 A 
ENDBRANCH   9  11
BRANCH  10  17
HETATM   17  C   UNL     1     -41.022  57.138 -53.573  1.00  0.00     0.296 C 
HETATM   18  O   UNL     1     -40.303  58.130 -53.518  1.00  0.00    -0.259 OA
BRANCH  17  19
HETATM   19  O   UNL     1     -41.008  56.266 -54.620  1.00  0.00    -0.322 OA
HETATM   20  C   UNL     1     -42.113  56.397 -55.515  1.00  0.00     0.213 C 
ENDBRANCH  17  19
ENDBRANCH  10  17
ENDBRANCH   3   5
ENDBRANCH   1   3
BRANCH   1  21
HETATM   21  N   UNL     1     -42.388  60.491 -53.730  1.00  0.00    -0.273 N 
HETATM   22  H   UNL     1     -41.503  60.625 -53.234  1.00  0.00     0.189 HD
BRANCH  21  23
HETATM   23  N   UNL     1     -42.200  60.174 -55.088  1.00  0.00    -0.266 N 
HETATM   24  C   UNL     1     -42.687  61.061 -56.030  1.00  0.00     0.265 C 
HETATM   25  O   UNL     1     -43.144  62.169 -55.746  1.00  0.00    -0.269 OA
HETATM   26  H   UNL     1     -42.064  59.189 -55.318  1.00  0.00     0.190 HD
BRANCH  24  27
HETATM   27  C   UNL     1     -42.602  60.561 -57.475  1.00  0.00     0.218 C 
HETATM   28  C   UNL     1     -41.299  61.034 -58.112  1.00  0.00     0.050 C 
BRANCH  27  29
HETATM   29  O   UNL     1     -42.607  59.133 -57.520  1.00  0.00    -0.335 OA
BRANCH  29  30
HETATM   30  C   UNL     1     -43.654  58.539 -58.176  1.00  0.00     0.091 A 
HETATM   31  C   UNL     1     -43.365  57.841 -59.359  1.00  0.00     0.068 A 
HETATM   32 CL   UNL     1     -41.756  57.778 -59.989  1.00  0.00    -0.081 Cl
HETATM   33  C   UNL     1     -44.375  57.192 -60.072  1.00  0.00     0.046 A 
HETATM   34  C   UNL     1     -45.681  57.227 -59.592  1.00  0.00     0.012 A 
HETATM   35 BR   UNL     1     -47.056  56.352 -60.549  1.00  0.00    -0.051 Br
HETATM   36  C   UNL     1     -45.982  57.896 -58.408  1.00  0.00     0.022 A 
HETATM   37  C   UNL     1     -44.969  58.547 -57.697  1.00  0.00     0.040 A 
ENDBRANCH  29  30
ENDBRANCH  27  29
ENDBRANCH  24  27
ENDBRANCH  21  23
ENDBRANCH   1  21
TORSDOF 10
ENDMDL
MODEL 7
REMARK VINA RESULT:      -7.0      2.740      6.333
REMARK  10 active torsions:
REMARK  status: ('A' for Active; 'I' for Inactive)
REMARK    1  A    between atoms: C_4  and  N_5 
REMARK    2  A    between atoms: N_5  and  C_6 
REMARK    3  A    between atoms: C_6  and  N_7 
REMARK    4  A    between atoms: N_7  and  N_8 
REMARK       I    between atoms: N_8  and  C_9 
REMARK    5  A    between atoms: C_9  and  C_10 
REMARK    6  A    between atoms: C_10  and  O_11 
REMARK    7  A    between atoms: O_11  and  C_12 
REMARK    8  A    between atoms: C_23  and  C_24 
REMARK    9  A    between atoms: C_24  and  O_25 
REMARK   10  A    between atoms: C_28  and  C_29 
ROOT
HETATM    1  C   UNL     1     -43.549  61.522 -53.149  1.00  0.00     0.191 C 
HETATM    2  S   UNL     1     -44.771  62.592 -52.718  1.00  0.00    -0.039 SA
ENDROOT
BRANCH   1   3
HETATM    3  N   UNL     1     -43.414  60.385 -52.390  1.00  0.00    -0.325 N 
HETATM    4  H   UNL     1     -42.970  60.596 -51.501  1.00  0.00     0.169 HD
BRANCH   3   5
HETATM    5  C   UNL     1     -43.092  59.130 -52.880  1.00  0.00     0.094 C 
HETATM    6  S   UNL     1     -44.340  58.544 -53.883  1.00  0.00    -0.075 SA
HETATM    7  C   UNL     1     -43.669  56.976 -53.916  1.00  0.00    -0.007 C 
HETATM    8  C   UNL     1     -44.429  55.871 -54.579  1.00  0.00     0.057 C 
HETATM    9  C   UNL     1     -42.435  56.943 -53.285  1.00  0.00     0.006 C 
HETATM   10  C   UNL     1     -42.017  58.257 -52.814  1.00  0.00     0.085 C 
BRANCH   9  11
HETATM   11  C   UNL     1     -41.725  55.680 -53.103  1.00  0.00    -0.024 A 
HETATM   12  C   UNL     1     -41.011  55.143 -54.184  1.00  0.00     0.012 A 
HETATM   13  C   UNL     1     -40.312  53.945 -54.039  1.00  0.00     0.001 A 
HETATM   14  C   UNL     1     -40.320  53.280 -52.814  1.00  0.00     0.000 A 
HETATM   15  C   UNL     1     -41.029  53.810 -51.736  1.00  0.00     0.001 A 
HETATM   16  C   UNL     1     -41.734  55.006 -51.878  1.00  0.00     0.012 A 
ENDBRANCH   9  11
BRANCH  10  17
HETATM   17  C   UNL     1     -40.676  58.628 -52.354  1.00  0.00     0.296 C 
HETATM   18  O   UNL     1     -39.812  59.080 -53.098  1.00  0.00    -0.259 OA
BRANCH  17  19
HETATM   19  O   UNL     1     -40.460  58.373 -51.032  1.00  0.00    -0.322 OA
HETATM   20  C   UNL     1     -40.479  59.528 -50.194  1.00  0.00     0.213 C 
ENDBRANCH  17  19
ENDBRANCH  10  17
ENDBRANCH   3   5
ENDBRANCH   1   3
BRANCH   1  21
HETATM   21  N   UNL     1     -42.630  61.762 -54.134  1.00  0.00    -0.273 N 
HETATM   22  H   UNL     1     -41.674  61.469 -53.918  1.00  0.00     0.189 HD
BRANCH  21  23
HETATM   23  N   UNL     1     -42.951  61.587 -55.493  1.00  0.00    -0.266 N 
HETATM   24  C   UNL     1     -42.223  60.658 -56.211  1.00  0.00     0.265 C 
HETATM   25  O   UNL     1     -41.415  59.883 -55.697  1.00  0.00    -0.269 OA
HETATM   26  H   UNL     1     -43.414  62.365 -55.962  1.00  0.00     0.190 HD
BRANCH  24  27
HETATM   27  C   UNL     1     -42.511  60.653 -57.715  1.00  0.00     0.218 C 
HETATM   28  C   UNL     1     -42.096  61.987 -58.328  1.00  0.00     0.050 C 
BRANCH  27  29
HETATM   29  O   UNL     1     -41.764  59.629 -58.373  1.00  0.00    -0.335 OA
BRANCH  29  30
HETATM   30  C   UNL     1     -42.432  58.469 -58.669  1.00  0.00     0.091 A 
HETATM   31  C   UNL     1     -43.001  58.358 -59.948  1.00  0.00     0.068 A 
HETATM   32 CL   UNL     1     -42.904  59.657 -61.085  1.00  0.00    -0.081 Cl
HETATM   33  C   UNL     1     -43.679  57.198 -60.331  1.00  0.00     0.046 A 
HETATM   34  C   UNL     1     -43.777  56.137 -59.437  1.00  0.00     0.012 A 
HETATM   35 BR   UNL     1     -44.693  54.563 -59.945  1.00  0.00    -0.051 Br
HETATM   36  C   UNL     1     -43.200  56.222 -58.172  1.00  0.00     0.022 A 
HETATM   37  C   UNL     1     -42.523  57.383 -57.790  1.00  0.00     0.040 A 
ENDBRANCH  29  30
ENDBRANCH  27  29
ENDBRANCH  24  27
ENDBRANCH  21  23
ENDBRANCH   1  21
TORSDOF 10
ENDMDL
MODEL 8
REMARK VINA RESULT:      -6.9      3.307      8.007
REMARK  10 active torsions:
REMARK  status: ('A' for Active; 'I' for Inactive)
REMARK    1  A    between atoms: C_4  and  N_5 
REMARK    2  A    between atoms: N_5  and  C_6 
REMARK    3  A    between atoms: C_6  and  N_7 
REMARK    4  A    between atoms: N_7  and  N_8 
REMARK       I    between atoms: N_8  and  C_9 
REMARK    5  A    between atoms: C_9  and  C_10 
REMARK    6  A    between atoms: C_10  and  O_11 
REMARK    7  A    between atoms: O_11  and  C_12 
REMARK    8  A    between atoms: C_23  and  C_24 
REMARK    9  A    between atoms: C_24  and  O_25 
REMARK   10  A    between atoms: C_28  and  C_29 
ROOT
HETATM    1  C   UNL     1     -42.365  57.752 -52.742  1.00  0.00     0.191 C 
HETATM    2  S   UNL     1     -44.015  57.550 -52.495  1.00  0.00    -0.039 SA
ENDROOT
BRANCH   1   3
HETATM    3  N   UNL     1     -41.525  57.312 -51.747  1.00  0.00    -0.325 N 
HETATM    4  H   UNL     1     -40.646  57.820 -51.768  1.00  0.00     0.169 HD
BRANCH   3   5
HETATM    5  C   UNL     1     -41.388  55.994 -51.341  1.00  0.00     0.094 C 
HETATM    6  S   UNL     1     -41.301  55.901 -49.641  1.00  0.00    -0.075 SA
HETATM    7  C   UNL     1     -40.812  54.268 -49.687  1.00  0.00    -0.007 C 
HETATM    8  C   UNL     1     -40.416  53.588 -48.414  1.00  0.00     0.057 C 
HETATM    9  C   UNL     1     -40.854  53.767 -50.979  1.00  0.00     0.006 C 
HETATM   10  C   UNL     1     -41.353  54.744 -51.938  1.00  0.00     0.085 C 
BRANCH   9  11
HETATM   11  C   UNL     1     -40.378  52.417 -51.271  1.00  0.00    -0.024 A 
HETATM   12  C   UNL     1     -39.860  52.141 -52.544  1.00  0.00     0.012 A 
HETATM   13  C   UNL     1     -39.386  50.866 -52.849  1.00  0.00     0.001 A 
HETATM   14  C   UNL     1     -39.425  49.861 -51.884  1.00  0.00     0.000 A 
HETATM   15  C   UNL     1     -39.941  50.130 -50.616  1.00  0.00     0.001 A 
HETATM   16  C   UNL     1     -40.420  51.404 -50.308  1.00  0.00     0.012 A 
ENDBRANCH   9  11
BRANCH  10  17
HETATM   17  C   UNL     1     -41.774  54.472 -53.316  1.00  0.00     0.296 C 
HETATM   18  O   UNL     1     -42.581  53.597 -53.610  1.00  0.00    -0.259 OA
BRANCH  17  19
HETATM   19  O   UNL     1     -41.144  55.246 -54.244  1.00  0.00    -0.322 OA
HETATM   20  C   UNL     1     -40.149  54.564 -55.007  1.00  0.00     0.213 C 
ENDBRANCH  17  19
ENDBRANCH  10  17
ENDBRANCH   3   5
ENDBRANCH   1   3
BRANCH   1  21
HETATM   21  N   UNL     1     -41.823  58.408 -53.812  1.00  0.00    -0.273 N 
HETATM   22  H   UNL     1     -40.809  58.540 -53.773  1.00  0.00     0.189 HD
BRANCH  21  23
HETATM   23  N   UNL     1     -42.284  58.178 -55.122  1.00  0.00    -0.266 N 
HETATM   24  C   UNL     1     -42.223  59.228 -56.019  1.00  0.00     0.265 C 
HETATM   25  O   UNL     1     -41.661  60.297 -55.776  1.00  0.00    -0.269 OA
HETATM   26  H   UNL     1     -42.954  57.420 -55.248  1.00  0.00     0.190 HD
BRANCH  24  27
HETATM   27  C   UNL     1     -42.905  58.954 -57.362  1.00  0.00     0.218 C 
HETATM   28  C   UNL     1     -41.862  58.915 -58.475  1.00  0.00     0.050 C 
BRANCH  27  29
HETATM   29  O   UNL     1     -43.564  57.686 -57.348  1.00  0.00    -0.335 OA
BRANCH  29  30
HETATM   30  C   UNL     1     -44.562  57.498 -58.269  1.00  0.00     0.091 A 
HETATM   31  C   UNL     1     -44.355  56.523 -59.258  1.00  0.00     0.068 A 
HETATM   32 CL   UNL     1     -42.876  55.632 -59.340  1.00  0.00    -0.081 Cl
HETATM   33  C   UNL     1     -45.335  56.259 -60.218  1.00  0.00     0.046 A 
HETATM   34  C   UNL     1     -46.535  56.962 -60.181  1.00  0.00     0.012 A 
HETATM   35 BR   UNL     1     -47.868  56.614 -61.475  1.00  0.00    -0.051 Br
HETATM   36  C   UNL     1     -46.766  57.917 -59.192  1.00  0.00     0.022 A 
HETATM   37  C   UNL     1     -45.783  58.180 -58.234  1.00  0.00     0.040 A 
ENDBRANCH  29  30
ENDBRANCH  27  29
ENDBRANCH  24  27
ENDBRANCH  21  23
ENDBRANCH   1  21
TORSDOF 10
ENDMDL
MODEL 9
REMARK VINA RESULT:      -6.7      2.258      2.991
REMARK  10 active torsions:
REMARK  status: ('A' for Active; 'I' for Inactive)
REMARK    1  A    between atoms: C_4  and  N_5 
REMARK    2  A    between atoms: N_5  and  C_6 
REMARK    3  A    between atoms: C_6  and  N_7 
REMARK    4  A    between atoms: N_7  and  N_8 
REMARK       I    between atoms: N_8  and  C_9 
REMARK    5  A    between atoms: C_9  and  C_10 
REMARK    6  A    between atoms: C_10  and  O_11 
REMARK    7  A    between atoms: O_11  and  C_12 
REMARK    8  A    between atoms: C_23  and  C_24 
REMARK    9  A    between atoms: C_24  and  O_25 
REMARK   10  A    between atoms: C_28  and  C_29 
ROOT
HETATM    1  C   UNL     1     -44.767  60.326 -52.979  1.00  0.00     0.191 C 
HETATM    2  S   UNL     1     -44.506  61.985 -52.915  1.00  0.00    -0.039 SA
ENDROOT
BRANCH   1   3
HETATM    3  N   UNL     1     -45.499  59.848 -54.039  1.00  0.00    -0.325 N 
HETATM    4  H   UNL     1     -46.139  59.120 -53.735  1.00  0.00     0.169 HD
BRANCH   3   5
HETATM    5  C   UNL     1     -45.013  59.651 -55.322  1.00  0.00     0.094 C 
HETATM    6  S   UNL     1     -45.932  60.541 -56.449  1.00  0.00    -0.075 SA
HETATM    7  C   UNL     1     -45.220  59.731 -57.771  1.00  0.00    -0.007 C 
HETATM    8  C   UNL     1     -45.738  59.989 -59.151  1.00  0.00     0.057 C 
HETATM    9  C   UNL     1     -44.195  58.895 -57.356  1.00  0.00     0.006 C 
HETATM   10  C   UNL     1     -43.963  58.971 -55.919  1.00  0.00     0.085 C 
BRANCH   9  11
HETATM   11  C   UNL     1     -43.511  58.024 -58.308  1.00  0.00    -0.024 A 
HETATM   12  C   UNL     1     -42.452  58.546 -59.065  1.00  0.00     0.012 A 
HETATM   13  C   UNL     1     -41.771  57.737 -59.973  1.00  0.00     0.001 A 
HETATM   14  C   UNL     1     -42.143  56.402 -60.130  1.00  0.00     0.000 A 
HETATM   15  C   UNL     1     -43.198  55.879 -59.381  1.00  0.00     0.001 A 
HETATM   16  C   UNL     1     -43.885  56.687 -58.473  1.00  0.00     0.012 A 
ENDBRANCH   9  11
BRANCH  10  17
HETATM   17  C   UNL     1     -42.804  58.438 -55.197  1.00  0.00     0.296 C 
HETATM   18  O   UNL     1     -41.887  59.142 -54.788  1.00  0.00    -0.259 OA
BRANCH  17  19
HETATM   19  O   UNL     1     -42.815  57.081 -55.070  1.00  0.00    -0.322 OA
HETATM   20  C   UNL     1     -44.074  56.532 -54.684  1.00  0.00     0.213 C 
ENDBRANCH  17  19
ENDBRANCH  10  17
ENDBRANCH   3   5
ENDBRANCH   1   3
BRANCH   1  21
HETATM   21  N   UNL     1     -44.385  59.450 -52.001  1.00  0.00    -0.273 N 
HETATM   22  H   UNL     1     -45.138  58.879 -51.609  1.00  0.00     0.189 HD
BRANCH  21  23
HETATM   23  N   UNL     1     -43.166  58.750 -52.081  1.00  0.00    -0.266 N 
HETATM   24  C   UNL     1     -43.084  57.527 -51.443  1.00  0.00     0.265 C 
HETATM   25  O   UNL     1     -44.053  56.959 -50.935  1.00  0.00    -0.269 OA
HETATM   26  H   UNL     1     -42.329  59.302 -52.265  1.00  0.00     0.190 HD
BRANCH  24  27
HETATM   27  C   UNL     1     -41.681  56.915 -51.425  1.00  0.00     0.218 C 
HETATM   28  C   UNL     1     -40.732  57.814 -50.639  1.00  0.00     0.050 C 
BRANCH  27  29
HETATM   29  O   UNL     1     -41.691  55.638 -50.784  1.00  0.00    -0.335 OA
BRANCH  29  30
HETATM   30  C   UNL     1     -41.234  54.574 -51.517  1.00  0.00     0.091 A 
HETATM   31  C   UNL     1     -40.275  53.739 -50.920  1.00  0.00     0.068 A 
HETATM   32 CL   UNL     1     -39.660  54.074 -49.340  1.00  0.00    -0.081 Cl
HETATM   33  C   UNL     1     -39.777  52.624 -51.596  1.00  0.00     0.046 A 
HETATM   34  C   UNL     1     -40.250  52.330 -52.871  1.00  0.00     0.012 A 
HETATM   35 BR   UNL     1     -39.583  50.823 -53.796  1.00  0.00    -0.051 Br
HETATM   36  C   UNL     1     -41.218  53.134 -53.470  1.00  0.00     0.022 A 
HETATM   37  C   UNL     1     -41.714  54.252 -52.792  1.00  0.00     0.040 A 
ENDBRANCH  29  30
ENDBRANCH  27  29
ENDBRANCH  24  27
ENDBRANCH  21  23
ENDBRANCH   1  21
TORSDOF 10
ENDMDL
MODEL 10
REMARK VINA RESULT:      -6.7      2.798      6.761
REMARK  10 active torsions:
REMARK  status: ('A' for Active; 'I' for Inactive)
REMARK    1  A    between atoms: C_4  and  N_5 
REMARK    2  A    between atoms: N_5  and  C_6 
REMARK    3  A    between atoms: C_6  and  N_7 
REMARK    4  A    between atoms: N_7  and  N_8 
REMARK       I    between atoms: N_8  and  C_9 
REMARK    5  A    between atoms: C_9  and  C_10 
REMARK    6  A    between atoms: C_10  and  O_11 
REMARK    7  A    between atoms: O_11  and  C_12 
REMARK    8  A    between atoms: C_23  and  C_24 
REMARK    9  A    between atoms: C_24  and  O_25 
REMARK   10  A    between atoms: C_28  and  C_29 
ROOT
HETATM    1  C   UNL     1     -43.429  61.387 -54.994  1.00  0.00     0.191 C 
HETATM    2  S   UNL     1     -44.164  61.248 -53.490  1.00  0.00    -0.039 SA
ENDROOT
BRANCH   1   3
HETATM    3  N   UNL     1     -42.223  60.750 -55.163  1.00  0.00    -0.325 N 
HETATM    4  H   UNL     1     -41.672  61.206 -55.885  1.00  0.00     0.169 HD
BRANCH   3   5
HETATM    5  C   UNL     1     -42.029  59.378 -55.109  1.00  0.00     0.094 C 
HETATM    6  S   UNL     1     -42.464  58.657 -56.592  1.00  0.00    -0.075 SA
HETATM    7  C   UNL     1     -42.393  57.088 -55.926  1.00  0.00    -0.007 C 
HETATM    8  C   UNL     1     -42.833  55.923 -56.755  1.00  0.00     0.057 C 
HETATM    9  C   UNL     1     -41.906  57.113 -54.628  1.00  0.00     0.006 C 
HETATM   10  C   UNL     1     -41.535  58.456 -54.201  1.00  0.00     0.085 C 
BRANCH   9  11
HETATM   11  C   UNL     1     -41.856  55.894 -53.827  1.00  0.00    -0.024 A 
HETATM   12  C   UNL     1     -40.699  55.103 -53.867  1.00  0.00     0.012 A 
HETATM   13  C   UNL     1     -40.615  53.939 -53.103  1.00  0.00     0.001 A 
HETATM   14  C   UNL     1     -41.687  53.560 -52.295  1.00  0.00     0.000 A 
HETATM   15  C   UNL     1     -42.841  54.342 -52.254  1.00  0.00     0.001 A 
HETATM   16  C   UNL     1     -42.930  55.506 -53.020  1.00  0.00     0.012 A 
ENDBRANCH   9  11
BRANCH  10  17
HETATM   17  C   UNL     1     -40.750  58.803 -53.012  1.00  0.00     0.296 C 
HETATM   18  O   UNL     1     -39.558  59.087 -53.055  1.00  0.00    -0.259 OA
BRANCH  17  19
HETATM   19  O   UNL     1     -41.455  58.727 -51.849  1.00  0.00    -0.322 OA
HETATM   20  C   UNL     1     -40.880  57.872 -50.861  1.00  0.00     0.213 C 
ENDBRANCH  17  19
ENDBRANCH  10  17
ENDBRANCH   3   5
ENDBRANCH   1   3
BRANCH   1  21
HETATM   21  N   UNL     1     -43.903  62.168 -56.013  1.00  0.00    -0.273 N 
HETATM   22  H   UNL     1     -43.233  62.841 -56.393  1.00  0.00     0.189 HD
BRANCH  21  23
HETATM   23  N   UNL     1     -44.756  61.643 -57.001  1.00  0.00    -0.266 N 
HETATM   24  C   UNL     1     -44.260  61.531 -58.286  1.00  0.00     0.265 C 
HETATM   25  O   UNL     1     -43.080  61.730 -58.578  1.00  0.00    -0.269 OA
HETATM   26  H   UNL     1     -45.759  61.717 -56.832  1.00  0.00     0.190 HD
BRANCH  24  27
HETATM   27  C   UNL     1     -45.299  61.121 -59.333  1.00  0.00     0.218 C 
HETATM   28  C   UNL     1     -45.920  62.363 -59.963  1.00  0.00     0.050 C 
BRANCH  27  29
HETATM   29  O   UNL     1     -44.692  60.365 -60.383  1.00  0.00    -0.335 OA
BRANCH  29  30
HETATM   30  C   UNL     1     -44.745  58.999 -60.272  1.00  0.00     0.091 A 
HETATM   31  C   UNL     1     -43.531  58.297 -60.337  1.00  0.00     0.068 A 
HETATM   32 CL   UNL     1     -42.034  59.121 -60.600  1.00  0.00    -0.081 Cl
HETATM   33  C   UNL     1     -43.502  56.906 -60.211  1.00  0.00     0.046 A 
HETATM   34  C   UNL     1     -44.690  56.214 -60.003  1.00  0.00     0.012 A 
HETATM   35 BR   UNL     1     -44.663  54.331 -59.832  1.00  0.00    -0.051 Br
HETATM   36  C   UNL     1     -45.901  56.897 -59.913  1.00  0.00     0.022 A 
HETATM   37  C   UNL     1     -45.928  58.289 -60.041  1.00  0.00     0.040 A 
ENDBRANCH  29  30
ENDBRANCH  27  29
ENDBRANCH  24  27
ENDBRANCH  21  23
ENDBRANCH   1  21
TORSDOF 10
ENDMDL
