MODEL 1
REMARK VINA RESULT:      -9.2      0.000      0.000
REMARK  3 active torsions:
REMARK  status: ('A' for Active; 'I' for Inactive)
REMARK    1  A    between atoms: O_2  and  C_3 
REMARK    2  A    between atoms: C_4  and  N_5 
REMARK       I    between atoms: N_5  and  C_6 
REMARK       I    between atoms: C_6  and  N_7 
REMARK    3  A    between atoms: C_10  and  C_11 
ROOT
HETATM    1  N   UNL     1     -42.503  57.075 -57.666  1.00  0.00    -0.306 N 
HETATM    2  C   UNL     1     -42.285  57.453 -56.364  1.00  0.00     0.323 C 
HETATM    3  N   UNL     1     -41.940  56.415 -55.492  1.00  0.00    -0.330 N 
HETATM    4  C   UNL     1     -41.325  56.857 -54.243  1.00  0.00     0.155 C 
HETATM    5  C   UNL     1     -40.921  55.746 -53.328  1.00  0.00     0.001 C 
HETATM    6  C   UNL     1     -41.215  54.447 -53.506  1.00  0.00    -0.046 C 
HETATM    7  C   UNL     1     -42.007  54.036 -54.713  1.00  0.00     0.059 C 
HETATM    8  C   UNL     1     -41.795  55.007 -55.875  1.00  0.00     0.132 C 
HETATM    9  O   UNL     1     -42.351  58.614 -55.964  1.00  0.00    -0.247 OA
HETATM   10  H   UNL     1     -42.193  56.160 -57.954  1.00  0.00     0.171 HD
ENDROOT
BRANCH   1  11
HETATM   11  C   UNL     1     -42.885  57.887 -58.761  1.00  0.00     0.072 A 
HETATM   12  C   UNL     1     -44.273  58.101 -58.937  1.00  0.00     0.095 A 
HETATM   13  C   UNL     1     -44.728  58.889 -60.001  1.00  0.00     0.042 A 
HETATM   14  C   UNL     1     -43.812  59.459 -60.886  1.00  0.00     0.045 A 
HETATM   15  C   UNL     1     -42.452  59.245 -60.701  1.00  0.00     0.118 A 
HETATM   16  C   UNL     1     -41.979  58.470 -59.648  1.00  0.00     0.074 A 
HETATM   17  F   UNL     1     -41.581  59.801 -61.555  1.00  0.00    -0.206 F 
BRANCH  12  18
HETATM   18  O   UNL     1     -45.085  57.489 -58.010  1.00  0.00    -0.354 OA
HETATM   19  C   UNL     1     -46.099  58.289 -57.411  1.00  0.00     0.210 C 
ENDBRANCH  12  18
ENDBRANCH   1  11
BRANCH   6  20
HETATM   20  C   UNL     1     -40.759  53.390 -52.649  1.00  0.00    -0.002 A 
HETATM   21  C   UNL     1     -40.335  52.063 -52.985  1.00  0.00     0.003 A 
HETATM   22  C   UNL     1     -39.956  51.440 -51.791  1.00  0.00     0.043 A 
HETATM   23  C   UNL     1     -40.236  51.313 -54.178  1.00  0.00     0.014 A 
HETATM   24  C   UNL     1     -39.472  50.127 -51.734  1.00  0.00     0.030 A 
HETATM   25  N   UNL     1     -40.160  52.345 -50.776  1.00  0.00    -0.364 N 
HETATM   26  C   UNL     1     -39.374  49.418 -52.934  1.00  0.00     0.002 A 
HETATM   27  C   UNL     1     -39.752  49.999 -54.140  1.00  0.00     0.001 A 
HETATM   28  H   UNL     1     -39.976  52.161 -49.800  1.00  0.00     0.165 HD
HETATM   29  C   UNL     1     -40.642  53.521 -51.280  1.00  0.00     0.101 A 
ENDBRANCH   6  20
TORSDOF 3
ENDMDL
MODEL 2
REMARK VINA RESULT:      -9.0      1.718      2.380
REMARK  3 active torsions:
REMARK  status: ('A' for Active; 'I' for Inactive)
REMARK    1  A    between atoms: O_2  and  C_3 
REMARK    2  A    between atoms: C_4  and  N_5 
REMARK       I    between atoms: N_5  and  C_6 
REMARK       I    between atoms: C_6  and  N_7 
REMARK    3  A    between atoms: C_10  and  C_11 
ROOT
HETATM    1  N   UNL     1     -44.342  56.920 -57.095  1.00  0.00    -0.306 N 
HETATM    2  C   UNL     1     -43.404  57.398 -56.214  1.00  0.00     0.323 C 
HETATM    3  N   UNL     1     -42.829  56.438 -55.375  1.00  0.00    -0.330 N 
HETATM    4  C   UNL     1     -41.579  56.857 -54.747  1.00  0.00     0.155 C 
HETATM    5  C   UNL     1     -40.945  55.815 -53.881  1.00  0.00     0.001 C 
HETATM    6  C   UNL     1     -41.505  54.642 -53.540  1.00  0.00    -0.046 C 
HETATM    7  C   UNL     1     -42.874  54.310 -54.055  1.00  0.00     0.059 C 
HETATM    8  C   UNL     1     -43.153  55.008 -55.387  1.00  0.00     0.132 C 
HETATM    9  O   UNL     1     -43.047  58.574 -56.159  1.00  0.00    -0.247 OA
HETATM   10  H   UNL     1     -44.395  55.924 -57.239  1.00  0.00     0.171 HD
ENDROOT
BRANCH   1  11
HETATM   11  C   UNL     1     -45.104  57.646 -58.041  1.00  0.00     0.072 A 
HETATM   12  C   UNL     1     -44.580  57.719 -59.354  1.00  0.00     0.095 A 
HETATM   13  C   UNL     1     -45.274  58.423 -60.345  1.00  0.00     0.042 A 
HETATM   14  C   UNL     1     -46.479  59.054 -60.035  1.00  0.00     0.045 A 
HETATM   15  C   UNL     1     -46.986  58.972 -58.743  1.00  0.00     0.118 A 
HETATM   16  C   UNL     1     -46.315  58.273 -57.746  1.00  0.00     0.074 A 
HETATM   17  F   UNL     1     -48.147  59.578 -58.459  1.00  0.00    -0.206 F 
BRANCH  12  18
HETATM   18  O   UNL     1     -43.384  57.065 -59.548  1.00  0.00    -0.354 OA
HETATM   19  C   UNL     1     -42.280  57.852 -59.980  1.00  0.00     0.210 C 
ENDBRANCH  12  18
ENDBRANCH   1  11
BRANCH   6  20
HETATM   20  C   UNL     1     -40.850  53.630 -52.762  1.00  0.00    -0.002 A 
HETATM   21  C   UNL     1     -40.466  52.300 -53.134  1.00  0.00     0.003 A 
HETATM   22  C   UNL     1     -39.829  51.733 -52.025  1.00  0.00     0.043 A 
HETATM   23  C   UNL     1     -40.595  51.507 -54.296  1.00  0.00     0.014 A 
HETATM   24  C   UNL     1     -39.306  50.434 -52.026  1.00  0.00     0.030 A 
HETATM   25  N   UNL     1     -39.845  52.672 -51.021  1.00  0.00    -0.364 N 
HETATM   26  C   UNL     1     -39.438  49.681 -53.196  1.00  0.00     0.002 A 
HETATM   27  C   UNL     1     -40.075  50.206 -54.315  1.00  0.00     0.001 A 
HETATM   28  H   UNL     1     -39.457  52.530 -50.099  1.00  0.00     0.165 HD
HETATM   29  C   UNL     1     -40.456  53.817 -51.452  1.00  0.00     0.101 A 
ENDBRANCH   6  20
TORSDOF 3
ENDMDL
MODEL 3
REMARK VINA RESULT:      -8.6      5.973      7.507
REMARK  3 active torsions:
REMARK  status: ('A' for Active; 'I' for Inactive)
REMARK    1  A    between atoms: O_2  and  C_3 
REMARK    2  A    between atoms: C_4  and  N_5 
REMARK       I    between atoms: N_5  and  C_6 
REMARK       I    between atoms: C_6  and  N_7 
REMARK    3  A    between atoms: C_10  and  C_11 
ROOT
HETATM    1  N   UNL     1     -44.127  60.067 -50.238  1.00  0.00    -0.306 N 
HETATM    2  C   UNL     1     -42.823  60.059 -50.667  1.00  0.00     0.323 C 
HETATM    3  N   UNL     1     -42.431  58.910 -51.362  1.00  0.00    -0.330 N 
HETATM    4  C   UNL     1     -41.212  59.069 -52.150  1.00  0.00     0.155 C 
HETATM    5  C   UNL     1     -40.815  57.852 -52.924  1.00  0.00     0.001 C 
HETATM    6  C   UNL     1     -41.391  56.643 -52.820  1.00  0.00    -0.046 C 
HETATM    7  C   UNL     1     -42.534  56.459 -51.865  1.00  0.00     0.059 C 
HETATM    8  C   UNL     1     -43.300  57.766 -51.654  1.00  0.00     0.132 C 
HETATM    9  O   UNL     1     -42.036  60.988 -50.496  1.00  0.00    -0.247 OA
HETATM   10  H   UNL     1     -44.760  59.386 -50.627  1.00  0.00     0.171 HD
ENDROOT
BRANCH   1  11
HETATM   11  C   UNL     1     -44.798  61.069 -49.497  1.00  0.00     0.072 A 
HETATM   12  C   UNL     1     -45.672  61.915 -50.222  1.00  0.00     0.095 A 
HETATM   13  C   UNL     1     -46.367  62.933 -49.560  1.00  0.00     0.042 A 
HETATM   14  C   UNL     1     -46.196  63.113 -48.187  1.00  0.00     0.045 A 
HETATM   15  C   UNL     1     -45.339  62.274 -47.485  1.00  0.00     0.118 A 
HETATM   16  C   UNL     1     -44.643  61.253 -48.123  1.00  0.00     0.074 A 
HETATM   17  F   UNL     1     -45.186  62.453 -46.166  1.00  0.00    -0.206 F 
BRANCH  12  18
HETATM   18  O   UNL     1     -45.762  61.652 -51.571  1.00  0.00    -0.354 OA
HETATM   19  C   UNL     1     -47.022  61.207 -52.059  1.00  0.00     0.210 C 
ENDBRANCH  12  18
ENDBRANCH   1  11
BRANCH   6  20
HETATM   20  C   UNL     1     -41.037  55.508 -53.622  1.00  0.00    -0.002 A 
HETATM   21  C   UNL     1     -40.613  54.200 -53.215  1.00  0.00     0.003 A 
HETATM   22  C   UNL     1     -40.423  53.451 -54.380  1.00  0.00     0.043 A 
HETATM   23  C   UNL     1     -40.362  53.568 -51.977  1.00  0.00     0.014 A 
HETATM   24  C   UNL     1     -40.015  52.110 -54.369  1.00  0.00     0.030 A 
HETATM   25  N   UNL     1     -40.701  54.274 -55.446  1.00  0.00    -0.364 N 
HETATM   26  C   UNL     1     -39.789  51.510 -53.127  1.00  0.00     0.002 A 
HETATM   27  C   UNL     1     -39.956  52.227 -51.947  1.00  0.00     0.001 A 
HETATM   28  H   UNL     1     -40.640  53.996 -56.415  1.00  0.00     0.165 HD
HETATM   29  C   UNL     1     -41.071  55.513 -55.002  1.00  0.00     0.101 A 
ENDBRANCH   6  20
TORSDOF 3
ENDMDL
MODEL 4
REMARK VINA RESULT:      -8.6      1.401      2.838
REMARK  3 active torsions:
REMARK  status: ('A' for Active; 'I' for Inactive)
REMARK    1  A    between atoms: O_2  and  C_3 
REMARK    2  A    between atoms: C_4  and  N_5 
REMARK       I    between atoms: N_5  and  C_6 
REMARK       I    between atoms: C_6  and  N_7 
REMARK    3  A    between atoms: C_10  and  C_11 
ROOT
HETATM    1  N   UNL     1     -42.545  57.428 -57.562  1.00  0.00    -0.306 N 
HETATM    2  C   UNL     1     -42.817  56.094 -57.382  1.00  0.00     0.323 C 
HETATM    3  N   UNL     1     -42.284  55.527 -56.220  1.00  0.00    -0.330 N 
HETATM    4  C   UNL     1     -42.898  54.260 -55.831  1.00  0.00     0.155 C 
HETATM    5  C   UNL     1     -42.353  53.674 -54.567  1.00  0.00     0.001 C 
HETATM    6  C   UNL     1     -41.287  54.136 -53.893  1.00  0.00    -0.046 C 
HETATM    7  C   UNL     1     -40.559  55.341 -54.414  1.00  0.00     0.059 C 
HETATM    8  C   UNL     1     -41.490  56.248 -55.220  1.00  0.00     0.132 C 
HETATM    9  O   UNL     1     -43.503  55.422 -58.151  1.00  0.00    -0.247 OA
HETATM   10  H   UNL     1     -42.191  57.951 -56.775  1.00  0.00     0.171 HD
ENDROOT
BRANCH   1  11
HETATM   11  C   UNL     1     -42.924  58.262 -58.640  1.00  0.00     0.072 A 
HETATM   12  C   UNL     1     -44.245  58.770 -58.614  1.00  0.00     0.095 A 
HETATM   13  C   UNL     1     -44.696  59.597 -59.649  1.00  0.00     0.042 A 
HETATM   14  C   UNL     1     -43.842  59.917 -60.705  1.00  0.00     0.045 A 
HETATM   15  C   UNL     1     -42.546  59.415 -60.718  1.00  0.00     0.118 A 
HETATM   16  C   UNL     1     -42.078  58.596 -59.698  1.00  0.00     0.074 A 
HETATM   17  F   UNL     1     -41.734  59.733 -61.736  1.00  0.00    -0.206 F 
BRANCH  12  18
HETATM   18  O   UNL     1     -45.001  58.387 -57.529  1.00  0.00    -0.354 OA
HETATM   19  C   UNL     1     -46.404  58.255 -57.733  1.00  0.00     0.210 C 
ENDBRANCH  12  18
ENDBRANCH   1  11
BRANCH   6  20
HETATM   20  C   UNL     1     -40.825  53.597 -52.646  1.00  0.00    -0.002 A 
HETATM   21  C   UNL     1     -40.923  54.142 -51.324  1.00  0.00     0.003 A 
HETATM   22  C   UNL     1     -40.347  53.212 -50.454  1.00  0.00     0.043 A 
HETATM   23  C   UNL     1     -41.437  55.334 -50.767  1.00  0.00     0.014 A 
HETATM   24  C   UNL     1     -40.275  53.404 -49.068  1.00  0.00     0.030 A 
HETATM   25  N   UNL     1     -39.902  52.159 -51.218  1.00  0.00    -0.364 N 
HETATM   26  C   UNL     1     -40.804  54.587 -48.547  1.00  0.00     0.002 A 
HETATM   27  C   UNL     1     -41.375  55.542 -49.383  1.00  0.00     0.001 A 
HETATM   28  H   UNL     1     -39.436  51.342 -50.850  1.00  0.00     0.165 HD
HETATM   29  C   UNL     1     -40.184  52.379 -52.538  1.00  0.00     0.101 A 
ENDBRANCH   6  20
TORSDOF 3
ENDMDL
MODEL 5
REMARK VINA RESULT:      -8.5      1.856      2.520
REMARK  3 active torsions:
REMARK  status: ('A' for Active; 'I' for Inactive)
REMARK    1  A    between atoms: O_2  and  C_3 
REMARK    2  A    between atoms: C_4  and  N_5 
REMARK       I    between atoms: N_5  and  C_6 
REMARK       I    between atoms: C_6  and  N_7 
REMARK    3  A    between atoms: C_10  and  C_11 
ROOT
HETATM    1  N   UNL     1     -42.747  58.321 -56.870  1.00  0.00    -0.306 N 
HETATM    2  C   UNL     1     -43.067  56.991 -56.986  1.00  0.00     0.323 C 
HETATM    3  N   UNL     1     -42.447  56.146 -56.060  1.00  0.00    -0.330 N 
HETATM    4  C   UNL     1     -43.080  54.838 -55.920  1.00  0.00     0.155 C 
HETATM    5  C   UNL     1     -42.440  53.948 -54.903  1.00  0.00     0.001 C 
HETATM    6  C   UNL     1     -41.288  54.206 -54.260  1.00  0.00    -0.046 C 
HETATM    7  C   UNL     1     -40.557  55.483 -54.556  1.00  0.00     0.059 C 
HETATM    8  C   UNL     1     -41.519  56.582 -55.013  1.00  0.00     0.132 C 
HETATM    9  O   UNL     1     -43.861  56.544 -57.812  1.00  0.00    -0.247 OA
HETATM   10  H   UNL     1     -42.289  58.629 -56.026  1.00  0.00     0.171 HD
ENDROOT
BRANCH   1  11
HETATM   11  C   UNL     1     -43.193  59.402 -57.668  1.00  0.00     0.072 A 
HETATM   12  C   UNL     1     -42.542  59.581 -58.913  1.00  0.00     0.095 A 
HETATM   13  C   UNL     1     -42.924  60.632 -59.755  1.00  0.00     0.042 A 
HETATM   14  C   UNL     1     -43.943  61.500 -59.365  1.00  0.00     0.045 A 
HETATM   15  C   UNL     1     -44.578  61.312 -58.143  1.00  0.00     0.118 A 
HETATM   16  C   UNL     1     -44.217  60.272 -57.294  1.00  0.00     0.074 A 
HETATM   17  F   UNL     1     -45.559  62.150 -57.782  1.00  0.00    -0.206 F 
BRANCH  12  18
HETATM   18  O   UNL     1     -41.549  58.670 -59.194  1.00  0.00    -0.354 OA
HETATM   19  C   UNL     1     -41.746  57.828 -60.324  1.00  0.00     0.210 C 
ENDBRANCH  12  18
ENDBRANCH   1  11
BRANCH   6  20
HETATM   20  C   UNL     1     -40.728  53.369 -53.239  1.00  0.00    -0.002 A 
HETATM   21  C   UNL     1     -40.319  51.996 -53.307  1.00  0.00     0.003 A 
HETATM   22  C   UNL     1     -39.808  51.659 -52.050  1.00  0.00     0.043 A 
HETATM   23  C   UNL     1     -40.332  50.995 -54.303  1.00  0.00     0.014 A 
HETATM   24  C   UNL     1     -39.299  50.389 -51.747  1.00  0.00     0.030 A 
HETATM   25  N   UNL     1     -39.921  52.772 -51.251  1.00  0.00    -0.364 N 
HETATM   26  C   UNL     1     -39.314  49.425 -52.759  1.00  0.00     0.002 A 
HETATM   27  C   UNL     1     -39.825  49.720 -54.019  1.00  0.00     0.001 A 
HETATM   28  H   UNL     1     -39.634  52.813 -50.284  1.00  0.00     0.165 HD
HETATM   29  C   UNL     1     -40.472  53.807 -51.955  1.00  0.00     0.101 A 
ENDBRANCH   6  20
TORSDOF 3
ENDMDL
MODEL 6
REMARK VINA RESULT:      -8.4      4.583      5.849
REMARK  3 active torsions:
REMARK  status: ('A' for Active; 'I' for Inactive)
REMARK    1  A    between atoms: O_2  and  C_3 
REMARK    2  A    between atoms: C_4  and  N_5 
REMARK       I    between atoms: N_5  and  C_6 
REMARK       I    between atoms: C_6  and  N_7 
REMARK    3  A    between atoms: C_10  and  C_11 
ROOT
HETATM    1  N   UNL     1     -43.352  58.805 -50.983  1.00  0.00    -0.306 N 
HETATM    2  C   UNL     1     -42.358  58.407 -51.842  1.00  0.00     0.323 C 
HETATM    3  N   UNL     1     -41.927  57.086 -51.686  1.00  0.00    -0.330 N 
HETATM    4  C   UNL     1     -41.190  56.553 -52.829  1.00  0.00     0.155 C 
HETATM    5  C   UNL     1     -40.764  55.127 -52.676  1.00  0.00     0.001 C 
HETATM    6  C   UNL     1     -40.874  54.399 -51.553  1.00  0.00    -0.046 C 
HETATM    7  C   UNL     1     -41.475  55.029 -50.330  1.00  0.00     0.059 C 
HETATM    8  C   UNL     1     -42.460  56.138 -50.702  1.00  0.00     0.132 C 
HETATM    9  O   UNL     1     -41.878  59.125 -52.719  1.00  0.00    -0.247 OA
HETATM   10  H   UNL     1     -43.850  58.094 -50.470  1.00  0.00     0.171 HD
ENDROOT
BRANCH   1  11
HETATM   11  C   UNL     1     -43.968  60.075 -50.885  1.00  0.00     0.072 A 
HETATM   12  C   UNL     1     -45.080  60.306 -51.730  1.00  0.00     0.095 A 
HETATM   13  C   UNL     1     -45.739  61.541 -51.695  1.00  0.00     0.042 A 
HETATM   14  C   UNL     1     -45.297  62.540 -50.828  1.00  0.00     0.045 A 
HETATM   15  C   UNL     1     -44.207  62.300 -50.000  1.00  0.00     0.118 A 
HETATM   16  C   UNL     1     -43.542  61.080 -50.016  1.00  0.00     0.074 A 
HETATM   17  F   UNL     1     -43.795  63.267 -49.168  1.00  0.00    -0.206 F 
BRANCH  12  18
HETATM   18  O   UNL     1     -45.427  59.254 -52.548  1.00  0.00    -0.354 OA
HETATM   19  C   UNL     1     -45.300  59.457 -53.951  1.00  0.00     0.210 C 
ENDBRANCH  12  18
ENDBRANCH   1  11
BRANCH   6  20
HETATM   20  C   UNL     1     -40.519  53.013 -51.451  1.00  0.00    -0.002 A 
HETATM   21  C   UNL     1     -40.249  52.061 -52.488  1.00  0.00     0.003 A 
HETATM   22  C   UNL     1     -39.918  50.856 -51.862  1.00  0.00     0.043 A 
HETATM   23  C   UNL     1     -40.254  52.090 -53.901  1.00  0.00     0.014 A 
HETATM   24  C   UNL     1     -39.579  49.695 -52.570  1.00  0.00     0.030 A 
HETATM   25  N   UNL     1     -40.003  51.063 -50.506  1.00  0.00    -0.364 N 
HETATM   26  C   UNL     1     -39.580  49.760 -53.965  1.00  0.00     0.002 A 
HETATM   27  C   UNL     1     -39.915  50.939 -54.624  1.00  0.00     0.001 A 
HETATM   28  H   UNL     1     -39.822  50.357 -49.807  1.00  0.00     0.165 HD
HETATM   29  C   UNL     1     -40.364  52.356 -50.246  1.00  0.00     0.101 A 
ENDBRANCH   6  20
TORSDOF 3
ENDMDL
MODEL 7
REMARK VINA RESULT:      -8.2      5.852      9.597
REMARK  3 active torsions:
REMARK  status: ('A' for Active; 'I' for Inactive)
REMARK    1  A    between atoms: O_2  and  C_3 
REMARK    2  A    between atoms: C_4  and  N_5 
REMARK       I    between atoms: N_5  and  C_6 
REMARK       I    between atoms: C_6  and  N_7 
REMARK    3  A    between atoms: C_10  and  C_11 
ROOT
HETATM    1  N   UNL     1     -41.124  54.887 -52.292  1.00  0.00    -0.306 N 
HETATM    2  C   UNL     1     -42.367  55.239 -51.827  1.00  0.00     0.323 C 
HETATM    3  N   UNL     1     -42.550  56.605 -51.590  1.00  0.00    -0.330 N 
HETATM    4  C   UNL     1     -43.948  57.019 -51.495  1.00  0.00     0.155 C 
HETATM    5  C   UNL     1     -44.143  58.485 -51.280  1.00  0.00     0.001 C 
HETATM    6  C   UNL     1     -43.165  59.371 -51.025  1.00  0.00    -0.046 C 
HETATM    7  C   UNL     1     -41.746  58.889 -50.949  1.00  0.00     0.059 C 
HETATM    8  C   UNL     1     -41.535  57.641 -51.807  1.00  0.00     0.132 C 
HETATM    9  O   UNL     1     -43.287  54.442 -51.650  1.00  0.00    -0.247 OA
HETATM   10  H   UNL     1     -40.521  55.618 -52.637  1.00  0.00     0.171 HD
ENDROOT
BRANCH   1  11
HETATM   11  C   UNL     1     -40.638  53.594 -52.598  1.00  0.00     0.072 A 
HETATM   12  C   UNL     1     -40.717  53.191 -53.953  1.00  0.00     0.095 A 
HETATM   13  C   UNL     1     -40.261  51.923 -54.332  1.00  0.00     0.042 A 
HETATM   14  C   UNL     1     -39.732  51.059 -53.373  1.00  0.00     0.045 A 
HETATM   15  C   UNL     1     -39.656  51.467 -52.047  1.00  0.00     0.118 A 
HETATM   16  C   UNL     1     -40.098  52.723 -51.650  1.00  0.00     0.074 A 
HETATM   17  F   UNL     1     -39.141  50.629 -51.136  1.00  0.00    -0.206 F 
BRANCH  12  18
HETATM   18  O   UNL     1     -41.260  54.120 -54.812  1.00  0.00    -0.354 OA
HETATM   19  C   UNL     1     -42.610  53.917 -55.214  1.00  0.00     0.210 C 
ENDBRANCH  12  18
ENDBRANCH   1  11
BRANCH   6  20
HETATM   20  C   UNL     1     -43.370  60.784 -50.888  1.00  0.00    -0.002 A 
HETATM   21  C   UNL     1     -43.919  61.524 -49.790  1.00  0.00     0.003 A 
HETATM   22  C   UNL     1     -43.870  62.876 -50.142  1.00  0.00     0.043 A 
HETATM   23  C   UNL     1     -44.461  61.192 -48.528  1.00  0.00     0.014 A 
HETATM   24  C   UNL     1     -44.315  63.903 -49.299  1.00  0.00     0.030 A 
HETATM   25  N   UNL     1     -43.333  62.950 -51.406  1.00  0.00    -0.364 N 
HETATM   26  C   UNL     1     -44.833  63.541 -48.053  1.00  0.00     0.002 A 
HETATM   27  C   UNL     1     -44.909  62.206 -47.671  1.00  0.00     0.001 A 
HETATM   28  H   UNL     1     -43.186  63.809 -51.916  1.00  0.00     0.165 HD
HETATM   29  C   UNL     1     -43.029  61.698 -51.865  1.00  0.00     0.101 A 
ENDBRANCH   6  20
TORSDOF 3
ENDMDL
MODEL 8
REMARK VINA RESULT:      -8.2      2.421      3.066
REMARK  3 active torsions:
REMARK  status: ('A' for Active; 'I' for Inactive)
REMARK    1  A    between atoms: O_2  and  C_3 
REMARK    2  A    between atoms: C_4  and  N_5 
REMARK       I    between atoms: N_5  and  C_6 
REMARK       I    between atoms: C_6  and  N_7 
REMARK    3  A    between atoms: C_10  and  C_11 
ROOT
HETATM    1  N   UNL     1     -44.620  57.891 -55.648  1.00  0.00    -0.306 N 
HETATM    2  C   UNL     1     -43.412  57.410 -56.088  1.00  0.00     0.323 C 
HETATM    3  N   UNL     1     -42.790  56.491 -55.236  1.00  0.00    -0.330 N 
HETATM    4  C   UNL     1     -41.744  55.693 -55.871  1.00  0.00     0.155 C 
HETATM    5  C   UNL     1     -41.105  54.685 -54.970  1.00  0.00     0.001 C 
HETATM    6  C   UNL     1     -41.314  54.584 -53.647  1.00  0.00    -0.046 C 
HETATM    7  C   UNL     1     -42.263  55.537 -52.981  1.00  0.00     0.059 C 
HETATM    8  C   UNL     1     -43.334  56.027 -53.957  1.00  0.00     0.132 C 
HETATM    9  O   UNL     1     -42.899  57.718 -57.163  1.00  0.00    -0.247 OA
HETATM   10  H   UNL     1     -45.076  57.409 -54.888  1.00  0.00     0.171 HD
ENDROOT
BRANCH   1  11
HETATM   11  C   UNL     1     -45.465  58.839 -56.273  1.00  0.00     0.072 A 
HETATM   12  C   UNL     1     -45.423  60.159 -55.763  1.00  0.00     0.095 A 
HETATM   13  C   UNL     1     -46.235  61.150 -56.327  1.00  0.00     0.042 A 
HETATM   14  C   UNL     1     -47.085  60.834 -57.387  1.00  0.00     0.045 A 
HETATM   15  C   UNL     1     -47.115  59.536 -57.881  1.00  0.00     0.118 A 
HETATM   16  C   UNL     1     -46.313  58.537 -57.339  1.00  0.00     0.074 A 
HETATM   17  F   UNL     1     -47.932  59.245 -58.903  1.00  0.00    -0.206 F 
BRANCH  12  18
HETATM   18  O   UNL     1     -44.554  60.358 -54.715  1.00  0.00    -0.354 OA
HETATM   19  C   UNL     1     -45.122  60.744 -53.469  1.00  0.00     0.210 C 
ENDBRANCH  12  18
ENDBRANCH   1  11
BRANCH   6  20
HETATM   20  C   UNL     1     -40.741  53.565 -52.814  1.00  0.00    -0.002 A 
HETATM   21  C   UNL     1     -40.397  52.211 -53.136  1.00  0.00     0.003 A 
HETATM   22  C   UNL     1     -39.839  51.646 -51.984  1.00  0.00     0.043 A 
HETATM   23  C   UNL     1     -40.503  51.395 -54.284  1.00  0.00     0.014 A 
HETATM   24  C   UNL     1     -39.372  50.327 -51.929  1.00  0.00     0.030 A 
HETATM   25  N   UNL     1     -39.862  52.610 -51.004  1.00  0.00    -0.364 N 
HETATM   26  C   UNL     1     -39.480  49.550 -53.086  1.00  0.00     0.002 A 
HETATM   27  C   UNL     1     -40.040  50.073 -54.248  1.00  0.00     0.001 A 
HETATM   28  H   UNL     1     -39.525  52.476 -50.062  1.00  0.00     0.165 HD
HETATM   29  C   UNL     1     -40.402  53.768 -51.491  1.00  0.00     0.101 A 
ENDBRANCH   6  20
TORSDOF 3
ENDMDL
MODEL 9
REMARK VINA RESULT:      -8.1      5.294      6.290
REMARK  3 active torsions:
REMARK  status: ('A' for Active; 'I' for Inactive)
REMARK    1  A    between atoms: O_2  and  C_3 
REMARK    2  A    between atoms: C_4  and  N_5 
REMARK       I    between atoms: N_5  and  C_6 
REMARK       I    between atoms: C_6  and  N_7 
REMARK    3  A    between atoms: C_10  and  C_11 
ROOT
HETATM    1  N   UNL     1     -44.380  59.866 -51.407  1.00  0.00    -0.306 N 
HETATM    2  C   UNL     1     -43.097  59.699 -50.948  1.00  0.00     0.323 C 
HETATM    3  N   UNL     1     -42.632  58.379 -50.945  1.00  0.00    -0.330 N 
HETATM    4  C   UNL     1     -41.180  58.253 -50.852  1.00  0.00     0.155 C 
HETATM    5  C   UNL     1     -40.682  56.843 -50.888  1.00  0.00     0.001 C 
HETATM    6  C   UNL     1     -41.453  55.744 -50.843  1.00  0.00    -0.046 C 
HETATM    7  C   UNL     1     -42.943  55.902 -50.756  1.00  0.00     0.059 C 
HETATM    8  C   UNL     1     -43.402  57.215 -51.392  1.00  0.00     0.132 C 
HETATM    9  O   UNL     1     -42.369  60.622 -50.587  1.00  0.00    -0.247 OA
HETATM   10  H   UNL     1     -44.811  59.102 -51.906  1.00  0.00     0.171 HD
ENDROOT
BRANCH   1  11
HETATM   11  C   UNL     1     -45.125  61.065 -51.506  1.00  0.00     0.072 A 
HETATM   12  C   UNL     1     -45.946  61.395 -50.401  1.00  0.00     0.095 A 
HETATM   13  C   UNL     1     -46.716  62.563 -50.427  1.00  0.00     0.042 A 
HETATM   14  C   UNL     1     -46.676  63.398 -51.544  1.00  0.00     0.045 A 
HETATM   15  C   UNL     1     -45.863  63.066 -52.621  1.00  0.00     0.118 A 
HETATM   16  C   UNL     1     -45.086  61.914 -52.613  1.00  0.00     0.074 A 
HETATM   17  F   UNL     1     -45.829  63.879 -53.687  1.00  0.00    -0.206 F 
BRANCH  12  18
HETATM   18  O   UNL     1     -45.913  60.499 -49.356  1.00  0.00    -0.354 OA
HETATM   19  C   UNL     1     -45.531  61.007 -48.082  1.00  0.00     0.210 C 
ENDBRANCH  12  18
ENDBRANCH   1  11
BRANCH   6  20
HETATM   20  C   UNL     1     -40.955  54.403 -50.946  1.00  0.00    -0.002 A 
HETATM   21  C   UNL     1     -40.619  53.642 -52.113  1.00  0.00     0.003 A 
HETATM   22  C   UNL     1     -40.148  52.401 -51.671  1.00  0.00     0.043 A 
HETATM   23  C   UNL     1     -40.668  53.869 -53.506  1.00  0.00     0.014 A 
HETATM   24  C   UNL     1     -39.712  51.394 -52.542  1.00  0.00     0.030 A 
HETATM   25  N   UNL     1     -40.215  52.405 -50.298  1.00  0.00    -0.364 N 
HETATM   26  C   UNL     1     -39.761  51.656 -53.914  1.00  0.00     0.002 A 
HETATM   27  C   UNL     1     -40.234  52.874 -54.392  1.00  0.00     0.001 A 
HETATM   28  H   UNL     1     -39.942  51.630 -49.710  1.00  0.00     0.165 HD
HETATM   29  C   UNL     1     -40.699  53.603 -49.850  1.00  0.00     0.101 A 
ENDBRANCH   6  20
TORSDOF 3
ENDMDL
MODEL 10
REMARK VINA RESULT:      -8.1      6.539      9.647
REMARK  3 active torsions:
REMARK  status: ('A' for Active; 'I' for Inactive)
REMARK    1  A    between atoms: O_2  and  C_3 
REMARK    2  A    between atoms: C_4  and  N_5 
REMARK       I    between atoms: N_5  and  C_6 
REMARK       I    between atoms: C_6  and  N_7 
REMARK    3  A    between atoms: C_10  and  C_11 
ROOT
HETATM    1  N   UNL     1     -42.420  55.789 -52.090  1.00  0.00    -0.306 N 
HETATM    2  C   UNL     1     -41.998  57.093 -52.163  1.00  0.00     0.323 C 
HETATM    3  N   UNL     1     -42.881  58.036 -51.626  1.00  0.00    -0.330 N 
HETATM    4  C   UNL     1     -42.276  59.334 -51.338  1.00  0.00     0.155 C 
HETATM    5  C   UNL     1     -43.211  60.329 -50.728  1.00  0.00     0.001 C 
HETATM    6  C   UNL     1     -44.536  60.162 -50.583  1.00  0.00    -0.046 C 
HETATM    7  C   UNL     1     -45.167  58.885 -51.054  1.00  0.00     0.059 C 
HETATM    8  C   UNL     1     -44.174  57.723 -51.008  1.00  0.00     0.132 C 
HETATM    9  O   UNL     1     -40.916  57.442 -52.632  1.00  0.00    -0.247 OA
HETATM   10  H   UNL     1     -43.193  55.572 -51.479  1.00  0.00     0.171 HD
ENDROOT
BRANCH   1  11
HETATM   11  C   UNL     1     -41.762  54.629 -52.563  1.00  0.00     0.072 A 
HETATM   12  C   UNL     1     -42.142  54.163 -53.845  1.00  0.00     0.095 A 
HETATM   13  C   UNL     1     -41.540  53.018 -54.379  1.00  0.00     0.042 A 
HETATM   14  C   UNL     1     -40.568  52.337 -53.645  1.00  0.00     0.045 A 
HETATM   15  C   UNL     1     -40.200  52.806 -52.390  1.00  0.00     0.118 A 
HETATM   16  C   UNL     1     -40.782  53.944 -51.843  1.00  0.00     0.074 A 
HETATM   17  F   UNL     1     -39.261  52.146 -51.696  1.00  0.00    -0.206 F 
BRANCH  12  18
HETATM   18  O   UNL     1     -43.112  54.908 -54.477  1.00  0.00    -0.354 OA
HETATM   19  C   UNL     1     -42.836  55.332 -55.808  1.00  0.00     0.210 C 
ENDBRANCH  12  18
ENDBRANCH   1  11
BRANCH   6  20
HETATM   20  C   UNL     1     -45.402  61.104 -49.934  1.00  0.00    -0.002 A 
HETATM   21  C   UNL     1     -45.492  61.455 -48.548  1.00  0.00     0.003 A 
HETATM   22  C   UNL     1     -46.471  62.447 -48.439  1.00  0.00     0.043 A 
HETATM   23  C   UNL     1     -44.849  61.033 -47.363  1.00  0.00     0.014 A 
HETATM   24  C   UNL     1     -46.824  63.044 -47.222  1.00  0.00     0.030 A 
HETATM   25  N   UNL     1     -46.966  62.672 -49.702  1.00  0.00    -0.364 N 
HETATM   26  C   UNL     1     -46.159  62.613 -46.070  1.00  0.00     0.002 A 
HETATM   27  C   UNL     1     -45.187  61.620 -46.136  1.00  0.00     0.001 A 
HETATM   28  H   UNL     1     -47.694  63.338 -49.921  1.00  0.00     0.165 HD
HETATM   29  C   UNL     1     -46.331  61.870 -50.610  1.00  0.00     0.101 A 
ENDBRANCH   6  20
TORSDOF 3
ENDMDL
