MODEL 1
REMARK VINA RESULT:      -8.2      0.000      0.000
REMARK  6 active torsions:
REMARK  status: ('A' for Active; 'I' for Inactive)
REMARK    1  A    between atoms: C_2  and  C_3 
REMARK    2  A    between atoms: C_6  and  N_7 
REMARK    3  A    between atoms: N_7  and  C_8 
REMARK    4  A    between atoms: C_8  and  C_9 
REMARK    5  A    between atoms: N_15  and  C_16 
REMARK    6  A    between atoms: C_23  and  C_24 
ROOT
HETATM    1  C   UNL     1     -34.762  41.808 -55.316  1.00  0.00     0.028 A 
HETATM    2  C   UNL     1     -35.345  41.860 -53.947  1.00  0.00     0.255 A 
HETATM    3  O   UNL     1     -36.350  42.453 -53.610  1.00  0.00    -0.268 OA
HETATM    4  N   UNL     1     -34.668  41.101 -52.940  1.00  0.00    -0.307 N 
HETATM    5  C   UNL     1     -33.578  40.308 -53.257  1.00  0.00     0.144 A 
HETATM    6  C   UNL     1     -33.141  40.193 -54.552  1.00  0.00     0.038 A 
HETATM    7  N   UNL     1     -32.786  39.469 -52.494  1.00  0.00    -0.216 N 
HETATM    8  N   UNL     1     -31.992  38.708 -53.296  1.00  0.00    -0.169 NA
HETATM    9  C   UNL     1     -32.155  39.178 -54.543  1.00  0.00     0.077 C 
HETATM   10  C   UNL     1     -33.728  40.983 -55.573  1.00  0.00     0.032 A 
HETATM   11  H   UNL     1     -35.085  41.100 -52.019  1.00  0.00     0.170 HD
ENDROOT
BRANCH   1  12
HETATM   12  C   UNL     1     -35.427  42.649 -56.357  1.00  0.00     0.164 C 
BRANCH  12  13
HETATM   13  N   UNL     1     -36.810  42.221 -56.484  1.00  0.00    -0.385 N 
HETATM   14  H   UNL     1     -37.504  42.960 -56.396  1.00  0.00     0.160 HD
BRANCH  13  15
HETATM   15  C   UNL     1     -37.178  41.343 -57.511  1.00  0.00     0.028 A 
HETATM   16  C   UNL     1     -36.904  41.724 -58.832  1.00  0.00     0.029 A 
HETATM   17  C   UNL     1     -37.280  40.925 -59.917  1.00  0.00     0.009 A 
HETATM   18  C   UNL     1     -37.956  39.721 -59.709  1.00  0.00    -0.058 A 
HETATM   19  C   UNL     1     -38.259  39.344 -58.398  1.00  0.00     0.009 A 
HETATM   20  C   UNL     1     -37.894  40.157 -57.316  1.00  0.00     0.029 A 
BRANCH  18  21
HETATM   21  C   UNL     1     -38.344  38.845 -60.872  1.00  0.00     0.034 C 
HETATM   22  C   UNL     1     -37.372  38.981 -62.035  1.00  0.00     0.010 C 
ENDBRANCH  18  21
ENDBRANCH  13  15
ENDBRANCH  12  13
ENDBRANCH   1  12
BRANCH   9  23
HETATM   23  C   UNL     1     -31.355  38.575 -55.697  1.00  0.00    -0.004 C 
HETATM   24  C   UNL     1     -30.589  39.658 -56.495  1.00  0.00     0.021 C 
HETATM   25  C   UNL     1     -30.308  37.576 -55.163  1.00  0.00     0.021 C 
HETATM   26  C   UNL     1     -32.295  37.857 -56.685  1.00  0.00     0.021 C 
ENDBRANCH   9  23
BRANCH   7  27
HETATM   27  C   UNL     1     -32.720  39.328 -51.082  1.00  0.00     0.060 A 
HETATM   28  C   UNL     1     -33.687  38.544 -50.431  1.00  0.00     0.031 A 
HETATM   29  C   UNL     1     -33.652  38.390 -49.043  1.00  0.00     0.002 A 
HETATM   30  C   UNL     1     -32.646  38.999 -48.299  1.00  0.00     0.000 A 
HETATM   31  C   UNL     1     -31.665  39.754 -48.941  1.00  0.00     0.002 A 
HETATM   32  C   UNL     1     -31.696  39.918 -50.330  1.00  0.00     0.031 A 
ENDBRANCH   7  27
TORSDOF 6
ENDMDL
MODEL 2
REMARK VINA RESULT:      -8.2     17.539     20.525
REMARK  6 active torsions:
REMARK  status: ('A' for Active; 'I' for Inactive)
REMARK    1  A    between atoms: C_2  and  C_3 
REMARK    2  A    between atoms: C_6  and  N_7 
REMARK    3  A    between atoms: N_7  and  C_8 
REMARK    4  A    between atoms: C_8  and  C_9 
REMARK    5  A    between atoms: N_15  and  C_16 
REMARK    6  A    between atoms: C_23  and  C_24 
ROOT
HETATM    1  C   UNL     1     -42.581  59.809 -56.710  1.00  0.00     0.028 A 
HETATM    2  C   UNL     1     -42.143  59.435 -55.337  1.00  0.00     0.255 A 
HETATM    3  O   UNL     1     -41.910  60.195 -54.419  1.00  0.00    -0.268 OA
HETATM    4  N   UNL     1     -42.022  58.034 -55.070  1.00  0.00    -0.307 N 
HETATM    5  C   UNL     1     -42.373  57.093 -56.024  1.00  0.00     0.144 A 
HETATM    6  C   UNL     1     -42.885  57.475 -57.238  1.00  0.00     0.038 A 
HETATM    7  N   UNL     1     -42.383  55.710 -56.005  1.00  0.00    -0.216 N 
HETATM    8  N   UNL     1     -43.046  55.227 -57.091  1.00  0.00    -0.169 NA
HETATM    9  C   UNL     1     -43.304  56.284 -57.877  1.00  0.00     0.077 C 
HETATM   10  C   UNL     1     -42.952  58.849 -57.580  1.00  0.00     0.032 A 
HETATM   11  H   UNL     1     -41.765  57.775 -54.127  1.00  0.00     0.170 HD
ENDROOT
BRANCH   1  12
HETATM   12  C   UNL     1     -42.647  61.271 -57.014  1.00  0.00     0.164 C 
BRANCH  12  13
HETATM   13  N   UNL     1     -41.307  61.742 -57.320  1.00  0.00    -0.385 N 
HETATM   14  H   UNL     1     -40.553  61.247 -56.847  1.00  0.00     0.160 HD
BRANCH  13  15
HETATM   15  C   UNL     1     -40.945  62.005 -58.648  1.00  0.00     0.028 A 
HETATM   16  C   UNL     1     -39.875  62.881 -58.875  1.00  0.00     0.029 A 
HETATM   17  C   UNL     1     -39.479  63.231 -60.171  1.00  0.00     0.009 A 
HETATM   18  C   UNL     1     -40.157  62.719 -61.280  1.00  0.00    -0.058 A 
HETATM   19  C   UNL     1     -41.243  61.867 -61.065  1.00  0.00     0.009 A 
HETATM   20  C   UNL     1     -41.644  61.534 -59.764  1.00  0.00     0.029 A 
BRANCH  18  21
HETATM   21  C   UNL     1     -39.721  63.075 -62.679  1.00  0.00     0.034 C 
HETATM   22  C   UNL     1     -38.342  63.717 -62.699  1.00  0.00     0.010 C 
ENDBRANCH  18  21
ENDBRANCH  13  15
ENDBRANCH  12  13
ENDBRANCH   1  12
BRANCH   9  23
HETATM   23  C   UNL     1     -44.000  56.084 -59.223  1.00  0.00    -0.004 C 
HETATM   24  C   UNL     1     -44.292  54.590 -59.504  1.00  0.00     0.021 C 
HETATM   25  C   UNL     1     -45.353  56.825 -59.245  1.00  0.00     0.021 C 
HETATM   26  C   UNL     1     -43.111  56.600 -60.370  1.00  0.00     0.021 C 
ENDBRANCH   9  23
BRANCH   7  27
HETATM   27  C   UNL     1     -41.824  54.817 -55.053  1.00  0.00     0.060 A 
HETATM   28  C   UNL     1     -42.494  54.614 -53.835  1.00  0.00     0.031 A 
HETATM   29  C   UNL     1     -41.968  53.746 -52.876  1.00  0.00     0.002 A 
HETATM   30  C   UNL     1     -40.783  53.062 -53.131  1.00  0.00     0.000 A 
HETATM   31  C   UNL     1     -40.127  53.234 -54.349  1.00  0.00     0.002 A 
HETATM   32  C   UNL     1     -40.645  54.106 -55.313  1.00  0.00     0.031 A 
ENDBRANCH   7  27
TORSDOF 6
ENDMDL
MODEL 3
REMARK VINA RESULT:      -8.0     16.875     20.541
REMARK  6 active torsions:
REMARK  status: ('A' for Active; 'I' for Inactive)
REMARK    1  A    between atoms: C_2  and  C_3 
REMARK    2  A    between atoms: C_6  and  N_7 
REMARK    3  A    between atoms: N_7  and  C_8 
REMARK    4  A    between atoms: C_8  and  C_9 
REMARK    5  A    between atoms: N_15  and  C_16 
REMARK    6  A    between atoms: C_23  and  C_24 
ROOT
HETATM    1  C   UNL     1     -42.384  57.762 -54.115  1.00  0.00     0.028 A 
HETATM    2  C   UNL     1     -41.714  59.065 -53.852  1.00  0.00     0.255 A 
HETATM    3  O   UNL     1     -41.212  59.424 -52.805  1.00  0.00    -0.268 OA
HETATM    4  N   UNL     1     -41.622  59.965 -54.961  1.00  0.00    -0.307 N 
HETATM    5  C   UNL     1     -42.069  59.596 -56.219  1.00  0.00     0.144 A 
HETATM    6  C   UNL     1     -42.574  58.342 -56.449  1.00  0.00     0.038 A 
HETATM    7  N   UNL     1     -42.063  60.252 -57.437  1.00  0.00    -0.216 N 
HETATM    8  N   UNL     1     -42.381  59.390 -58.441  1.00  0.00    -0.169 NA
HETATM    9  C   UNL     1     -42.750  58.243 -57.849  1.00  0.00     0.077 C 
HETATM   10  C   UNL     1     -42.757  57.441 -55.370  1.00  0.00     0.032 A 
HETATM   11  H   UNL     1     -41.131  60.834 -54.798  1.00  0.00     0.170 HD
ENDROOT
BRANCH   1  12
HETATM   12  C   UNL     1     -42.539  56.844 -52.946  1.00  0.00     0.164 C 
BRANCH  12  13
HETATM   13  N   UNL     1     -41.246  56.254 -52.645  1.00  0.00    -0.385 N 
HETATM   14  H   UNL     1     -40.941  56.344 -51.678  1.00  0.00     0.160 HD
BRANCH  13  15
HETATM   15  C   UNL     1     -40.933  54.976 -53.126  1.00  0.00     0.028 A 
HETATM   16  C   UNL     1     -40.825  53.932 -52.197  1.00  0.00     0.029 A 
HETATM   17  C   UNL     1     -40.472  52.636 -52.590  1.00  0.00     0.009 A 
HETATM   18  C   UNL     1     -40.201  52.352 -53.931  1.00  0.00    -0.058 A 
HETATM   19  C   UNL     1     -40.277  53.391 -54.862  1.00  0.00     0.009 A 
HETATM   20  C   UNL     1     -40.617  54.690 -54.459  1.00  0.00     0.029 A 
BRANCH  18  21
HETATM   21  C   UNL     1     -39.842  50.954 -54.363  1.00  0.00     0.034 C 
HETATM   22  C   UNL     1     -39.712  50.008 -53.179  1.00  0.00     0.010 C 
ENDBRANCH  18  21
ENDBRANCH  13  15
ENDBRANCH  12  13
ENDBRANCH   1  12
BRANCH   9  23
HETATM   23  C   UNL     1     -43.227  57.065 -58.698  1.00  0.00    -0.004 C 
HETATM   24  C   UNL     1     -43.031  55.713 -57.971  1.00  0.00     0.021 C 
HETATM   25  C   UNL     1     -44.732  57.200 -59.010  1.00  0.00     0.021 C 
HETATM   26  C   UNL     1     -42.433  56.995 -60.017  1.00  0.00     0.021 C 
ENDBRANCH   9  23
BRANCH   7  27
HETATM   27  C   UNL     1     -41.783  61.615 -57.726  1.00  0.00     0.060 A 
HETATM   28  C   UNL     1     -40.621  61.932 -58.449  1.00  0.00     0.031 A 
HETATM   29  C   UNL     1     -40.316  63.262 -58.745  1.00  0.00     0.002 A 
HETATM   30  C   UNL     1     -41.173  64.281 -58.340  1.00  0.00     0.000 A 
HETATM   31  C   UNL     1     -42.344  63.972 -57.649  1.00  0.00     0.002 A 
HETATM   32  C   UNL     1     -42.655  62.643 -57.344  1.00  0.00     0.031 A 
ENDBRANCH   7  27
TORSDOF 6
ENDMDL
MODEL 4
REMARK VINA RESULT:      -8.0     16.353     19.180
REMARK  6 active torsions:
REMARK  status: ('A' for Active; 'I' for Inactive)
REMARK    1  A    between atoms: C_2  and  C_3 
REMARK    2  A    between atoms: C_6  and  N_7 
REMARK    3  A    between atoms: N_7  and  C_8 
REMARK    4  A    between atoms: C_8  and  C_9 
REMARK    5  A    between atoms: N_15  and  C_16 
REMARK    6  A    between atoms: C_23  and  C_24 
ROOT
HETATM    1  C   UNL     1     -43.268  57.110 -56.307  1.00  0.00     0.028 A 
HETATM    2  C   UNL     1     -42.733  55.826 -56.837  1.00  0.00     0.255 A 
HETATM    3  O   UNL     1     -42.809  55.427 -57.983  1.00  0.00    -0.268 OA
HETATM    4  N   UNL     1     -42.026  55.001 -55.906  1.00  0.00    -0.307 N 
HETATM    5  C   UNL     1     -41.796  55.426 -54.608  1.00  0.00     0.144 A 
HETATM    6  C   UNL     1     -42.202  56.667 -54.189  1.00  0.00     0.038 A 
HETATM    7  N   UNL     1     -41.125  54.847 -53.545  1.00  0.00    -0.216 N 
HETATM    8  N   UNL     1     -40.949  55.754 -52.546  1.00  0.00    -0.169 NA
HETATM    9  C   UNL     1     -41.649  56.844 -52.899  1.00  0.00     0.077 C 
HETATM   10  C   UNL     1     -42.973  57.490 -55.048  1.00  0.00     0.032 A 
HETATM   11  H   UNL     1     -41.625  54.148 -56.272  1.00  0.00     0.170 HD
ENDROOT
BRANCH   1  12
HETATM   12  C   UNL     1     -44.062  57.946 -57.258  1.00  0.00     0.164 C 
BRANCH  12  13
HETATM   13  N   UNL     1     -43.280  58.140 -58.468  1.00  0.00    -0.385 N 
HETATM   14  H   UNL     1     -43.741  57.866 -59.333  1.00  0.00     0.160 HD
BRANCH  13  15
HETATM   15  C   UNL     1     -42.578  59.337 -58.662  1.00  0.00     0.028 A 
HETATM   16  C   UNL     1     -42.389  59.783 -59.977  1.00  0.00     0.029 A 
HETATM   17  C   UNL     1     -41.661  60.943 -60.259  1.00  0.00     0.009 A 
HETATM   18  C   UNL     1     -41.086  61.687 -59.225  1.00  0.00    -0.058 A 
HETATM   19  C   UNL     1     -41.244  61.236 -57.912  1.00  0.00     0.009 A 
HETATM   20  C   UNL     1     -41.962  60.064 -57.638  1.00  0.00     0.029 A 
BRANCH  18  21
HETATM   21  C   UNL     1     -40.320  62.950 -59.521  1.00  0.00     0.034 C 
HETATM   22  C   UNL     1     -39.880  63.022 -60.976  1.00  0.00     0.010 C 
ENDBRANCH  18  21
ENDBRANCH  13  15
ENDBRANCH  12  13
ENDBRANCH   1  12
BRANCH   9  23
HETATM   23  C   UNL     1     -41.711  58.048 -51.960  1.00  0.00    -0.004 C 
HETATM   24  C   UNL     1     -43.169  58.426 -51.603  1.00  0.00     0.021 C 
HETATM   25  C   UNL     1     -40.984  57.737 -50.635  1.00  0.00     0.021 C 
HETATM   26  C   UNL     1     -41.068  59.282 -52.623  1.00  0.00     0.021 C 
ENDBRANCH   9  23
BRANCH   7  27
HETATM   27  C   UNL     1     -40.640  53.520 -53.401  1.00  0.00     0.060 A 
HETATM   28  C   UNL     1     -40.186  53.095 -52.141  1.00  0.00     0.031 A 
HETATM   29  C   UNL     1     -39.700  51.798 -51.967  1.00  0.00     0.002 A 
HETATM   30  C   UNL     1     -39.679  50.912 -53.040  1.00  0.00     0.000 A 
HETATM   31  C   UNL     1     -40.155  51.316 -54.287  1.00  0.00     0.002 A 
HETATM   32  C   UNL     1     -40.640  52.615 -54.470  1.00  0.00     0.031 A 
ENDBRANCH   7  27
TORSDOF 6
ENDMDL
MODEL 5
REMARK VINA RESULT:      -7.8     16.561     19.194
REMARK  6 active torsions:
REMARK  status: ('A' for Active; 'I' for Inactive)
REMARK    1  A    between atoms: C_2  and  C_3 
REMARK    2  A    between atoms: C_6  and  N_7 
REMARK    3  A    between atoms: N_7  and  C_8 
REMARK    4  A    between atoms: C_8  and  C_9 
REMARK    5  A    between atoms: N_15  and  C_16 
REMARK    6  A    between atoms: C_23  and  C_24 
ROOT
HETATM    1  C   UNL     1     -43.589  57.316 -56.692  1.00  0.00     0.028 A 
HETATM    2  C   UNL     1     -42.977  56.026 -57.116  1.00  0.00     0.255 A 
HETATM    3  O   UNL     1     -43.023  55.532 -58.224  1.00  0.00    -0.268 OA
HETATM    4  N   UNL     1     -42.227  55.323 -56.120  1.00  0.00    -0.307 N 
HETATM    5  C   UNL     1     -42.030  55.865 -54.860  1.00  0.00     0.144 A 
HETATM    6  C   UNL     1     -42.510  57.110 -54.544  1.00  0.00     0.038 A 
HETATM    7  N   UNL     1     -41.331  55.415 -53.754  1.00  0.00    -0.216 N 
HETATM    8  N   UNL     1     -41.214  56.409 -52.832  1.00  0.00    -0.169 NA
HETATM    9  C   UNL     1     -41.975  57.424 -53.272  1.00  0.00     0.077 C 
HETATM   10  C   UNL     1     -43.323  57.813 -55.468  1.00  0.00     0.032 A 
HETATM   11  H   UNL     1     -41.775  54.468 -56.415  1.00  0.00     0.170 HD
ENDROOT
BRANCH   1  12
HETATM   12  C   UNL     1     -44.425  58.023 -57.709  1.00  0.00     0.164 C 
BRANCH  12  13
HETATM   13  N   UNL     1     -45.608  57.222 -57.974  1.00  0.00    -0.385 N 
HETATM   14  H   UNL     1     -46.205  57.046 -57.169  1.00  0.00     0.160 HD
BRANCH  13  15
HETATM   15  C   UNL     1     -46.396  57.491 -59.101  1.00  0.00     0.028 A 
HETATM   16  C   UNL     1     -46.690  56.429 -59.966  1.00  0.00     0.029 A 
HETATM   17  C   UNL     1     -47.433  56.623 -61.137  1.00  0.00     0.009 A 
HETATM   18  C   UNL     1     -47.893  57.896 -61.480  1.00  0.00    -0.058 A 
HETATM   19  C   UNL     1     -47.582  58.968 -60.639  1.00  0.00     0.009 A 
HETATM   20  C   UNL     1     -46.824  58.769 -59.477  1.00  0.00     0.029 A 
BRANCH  18  21
HETATM   21  C   UNL     1     -48.713  58.107 -62.727  1.00  0.00     0.034 C 
HETATM   22  C   UNL     1     -48.561  56.955 -63.709  1.00  0.00     0.010 C 
ENDBRANCH  18  21
ENDBRANCH  13  15
ENDBRANCH  12  13
ENDBRANCH   1  12
BRANCH   9  23
HETATM   23  C   UNL     1     -42.113  58.695 -52.435  1.00  0.00    -0.004 C 
HETATM   24  C   UNL     1     -41.138  58.701 -51.232  1.00  0.00     0.021 C 
HETATM   25  C   UNL     1     -41.792  59.939 -53.287  1.00  0.00     0.021 C 
HETATM   26  C   UNL     1     -43.541  58.813 -51.868  1.00  0.00     0.021 C 
ENDBRANCH   9  23
BRANCH   7  27
HETATM   27  C   UNL     1     -40.770  54.135 -53.501  1.00  0.00     0.060 A 
HETATM   28  C   UNL     1     -40.573  53.729 -52.171  1.00  0.00     0.031 A 
HETATM   29  C   UNL     1     -40.019  52.479 -51.889  1.00  0.00     0.002 A 
HETATM   30  C   UNL     1     -39.676  51.619 -52.928  1.00  0.00     0.000 A 
HETATM   31  C   UNL     1     -39.896  52.001 -54.251  1.00  0.00     0.002 A 
HETATM   32  C   UNL     1     -40.445  53.255 -54.542  1.00  0.00     0.031 A 
ENDBRANCH   7  27
TORSDOF 6
ENDMDL
MODEL 6
REMARK VINA RESULT:      -7.8     16.935     20.770
REMARK  6 active torsions:
REMARK  status: ('A' for Active; 'I' for Inactive)
REMARK    1  A    between atoms: C_2  and  C_3 
REMARK    2  A    between atoms: C_6  and  N_7 
REMARK    3  A    between atoms: N_7  and  C_8 
REMARK    4  A    between atoms: C_8  and  C_9 
REMARK    5  A    between atoms: N_15  and  C_16 
REMARK    6  A    between atoms: C_23  and  C_24 
ROOT
HETATM    1  C   UNL     1     -42.847  56.264 -56.949  1.00  0.00     0.028 A 
HETATM    2  C   UNL     1     -42.726  56.632 -58.387  1.00  0.00     0.255 A 
HETATM    3  O   UNL     1     -42.952  55.914 -59.340  1.00  0.00    -0.268 OA
HETATM    4  N   UNL     1     -42.340  57.982 -58.666  1.00  0.00    -0.307 N 
HETATM    5  C   UNL     1     -42.168  58.900 -57.643  1.00  0.00     0.144 A 
HETATM    6  C   UNL     1     -42.403  58.555 -56.337  1.00  0.00     0.038 A 
HETATM    7  N   UNL     1     -41.839  60.244 -57.647  1.00  0.00    -0.216 N 
HETATM    8  N   UNL     1     -42.034  60.782 -56.412  1.00  0.00    -0.169 NA
HETATM    9  C   UNL     1     -42.320  59.757 -55.594  1.00  0.00     0.077 C 
HETATM   10  C   UNL     1     -42.712  57.212 -56.002  1.00  0.00     0.032 A 
HETATM   11  H   UNL     1     -42.298  58.247 -59.641  1.00  0.00     0.170 HD
ENDROOT
BRANCH   1  12
HETATM   12  C   UNL     1     -43.187  54.840 -56.652  1.00  0.00     0.164 C 
BRANCH  12  13
HETATM   13  N   UNL     1     -43.540  54.731 -55.247  1.00  0.00    -0.385 N 
HETATM   14  H   UNL     1     -44.480  54.388 -55.059  1.00  0.00     0.160 HD
BRANCH  13  15
HETATM   15  C   UNL     1     -42.636  54.162 -54.341  1.00  0.00     0.028 A 
HETATM   16  C   UNL     1     -42.838  54.398 -52.974  1.00  0.00     0.029 A 
HETATM   17  C   UNL     1     -41.956  53.903 -52.008  1.00  0.00     0.009 A 
HETATM   18  C   UNL     1     -40.833  53.164 -52.387  1.00  0.00    -0.058 A 
HETATM   19  C   UNL     1     -40.605  52.947 -53.748  1.00  0.00     0.009 A 
HETATM   20  C   UNL     1     -41.485  53.459 -54.712  1.00  0.00     0.029 A 
BRANCH  18  21
HETATM   21  C   UNL     1     -39.891  52.609 -51.349  1.00  0.00     0.034 C 
HETATM   22  C   UNL     1     -39.463  51.186 -51.673  1.00  0.00     0.010 C 
ENDBRANCH  18  21
ENDBRANCH  13  15
ENDBRANCH  12  13
ENDBRANCH   1  12
BRANCH   9  23
HETATM   23  C   UNL     1     -42.544  60.008 -54.104  1.00  0.00    -0.004 C 
HETATM   24  C   UNL     1     -43.828  59.313 -53.589  1.00  0.00     0.021 C 
HETATM   25  C   UNL     1     -41.364  59.451 -53.280  1.00  0.00     0.021 C 
HETATM   26  C   UNL     1     -42.697  61.516 -53.829  1.00  0.00     0.021 C 
ENDBRANCH   9  23
BRANCH   7  27
HETATM   27  C   UNL     1     -41.361  61.053 -58.712  1.00  0.00     0.060 A 
HETATM   28  C   UNL     1     -41.902  60.874 -59.997  1.00  0.00     0.031 A 
HETATM   29  C   UNL     1     -41.450  61.650 -61.066  1.00  0.00     0.002 A 
HETATM   30  C   UNL     1     -40.473  62.619 -60.860  1.00  0.00     0.000 A 
HETATM   31  C   UNL     1     -39.952  62.824 -59.583  1.00  0.00     0.002 A 
HETATM   32  C   UNL     1     -40.395  62.047 -58.507  1.00  0.00     0.031 A 
ENDBRANCH   7  27
TORSDOF 6
ENDMDL
MODEL 7
REMARK VINA RESULT:      -7.5     18.158     21.115
REMARK  6 active torsions:
REMARK  status: ('A' for Active; 'I' for Inactive)
REMARK    1  A    between atoms: C_2  and  C_3 
REMARK    2  A    between atoms: C_6  and  N_7 
REMARK    3  A    between atoms: N_7  and  C_8 
REMARK    4  A    between atoms: C_8  and  C_9 
REMARK    5  A    between atoms: N_15  and  C_16 
REMARK    6  A    between atoms: C_23  and  C_24 
ROOT
HETATM    1  C   UNL     1     -41.851  57.738 -52.471  1.00  0.00     0.028 A 
HETATM    2  C   UNL     1     -41.550  58.179 -51.081  1.00  0.00     0.255 A 
HETATM    3  O   UNL     1     -40.694  57.727 -50.347  1.00  0.00    -0.268 OA
HETATM    4  N   UNL     1     -42.325  59.272 -50.581  1.00  0.00    -0.307 N 
HETATM    5  C   UNL     1     -43.247  59.921 -51.386  1.00  0.00     0.144 A 
HETATM    6  C   UNL     1     -43.414  59.561 -52.699  1.00  0.00     0.038 A 
HETATM    7  N   UNL     1     -44.081  61.002 -51.161  1.00  0.00    -0.216 N 
HETATM    8  N   UNL     1     -44.623  61.433 -52.332  1.00  0.00    -0.169 NA
HETATM    9  C   UNL     1     -44.274  60.532 -53.264  1.00  0.00     0.077 C 
HETATM   10  C   UNL     1     -42.726  58.436 -53.220  1.00  0.00     0.032 A 
HETATM   11  H   UNL     1     -42.095  59.603 -49.653  1.00  0.00     0.170 HD
ENDROOT
BRANCH   1  12
HETATM   12  C   UNL     1     -41.089  56.555 -52.975  1.00  0.00     0.164 C 
BRANCH  12  13
HETATM   13  N   UNL     1     -41.238  55.467 -52.025  1.00  0.00    -0.385 N 
HETATM   14  H   UNL     1     -42.121  55.449 -51.518  1.00  0.00     0.160 HD
BRANCH  13  15
HETATM   15  C   UNL     1     -40.873  54.164 -52.390  1.00  0.00     0.028 A 
HETATM   16  C   UNL     1     -40.161  53.396 -51.460  1.00  0.00     0.029 A 
HETATM   17  C   UNL     1     -39.720  52.103 -51.763  1.00  0.00     0.009 A 
HETATM   18  C   UNL     1     -39.971  51.546 -53.019  1.00  0.00    -0.058 A 
HETATM   19  C   UNL     1     -40.655  52.314 -53.964  1.00  0.00     0.009 A 
HETATM   20  C   UNL     1     -41.080  53.614 -53.659  1.00  0.00     0.029 A 
BRANCH  18  21
HETATM   21  C   UNL     1     -39.518  50.146 -53.344  1.00  0.00     0.034 C 
HETATM   22  C   UNL     1     -39.796  49.781 -54.794  1.00  0.00     0.010 C 
ENDBRANCH  18  21
ENDBRANCH  13  15
ENDBRANCH  12  13
ENDBRANCH   1  12
BRANCH   9  23
HETATM   23  C   UNL     1     -44.771  60.687 -54.701  1.00  0.00    -0.004 C 
HETATM   24  C   UNL     1     -45.338  59.360 -55.261  1.00  0.00     0.021 C 
HETATM   25  C   UNL     1     -45.904  61.732 -54.769  1.00  0.00     0.021 C 
HETATM   26  C   UNL     1     -43.617  61.119 -55.626  1.00  0.00     0.021 C 
ENDBRANCH   9  23
BRANCH   7  27
HETATM   27  C   UNL     1     -44.401  61.655 -49.941  1.00  0.00     0.060 A 
HETATM   28  C   UNL     1     -45.090  60.939 -48.948  1.00  0.00     0.031 A 
HETATM   29  C   UNL     1     -45.423  61.554 -47.739  1.00  0.00     0.002 A 
HETATM   30  C   UNL     1     -45.057  62.876 -47.505  1.00  0.00     0.000 A 
HETATM   31  C   UNL     1     -44.347  63.584 -48.474  1.00  0.00     0.002 A 
HETATM   32  C   UNL     1     -44.013  62.977 -49.689  1.00  0.00     0.031 A 
ENDBRANCH   7  27
TORSDOF 6
ENDMDL
MODEL 8
REMARK VINA RESULT:      -7.5     16.919     20.793
REMARK  6 active torsions:
REMARK  status: ('A' for Active; 'I' for Inactive)
REMARK    1  A    between atoms: C_2  and  C_3 
REMARK    2  A    between atoms: C_6  and  N_7 
REMARK    3  A    between atoms: N_7  and  C_8 
REMARK    4  A    between atoms: C_8  and  C_9 
REMARK    5  A    between atoms: N_15  and  C_16 
REMARK    6  A    between atoms: C_23  and  C_24 
ROOT
HETATM    1  C   UNL     1     -43.405  56.645 -53.125  1.00  0.00     0.028 A 
HETATM    2  C   UNL     1     -43.835  55.826 -54.292  1.00  0.00     0.255 A 
HETATM    3  O   UNL     1     -43.765  54.617 -54.394  1.00  0.00    -0.268 OA
HETATM    4  N   UNL     1     -44.423  56.539 -55.384  1.00  0.00    -0.307 N 
HETATM    5  C   UNL     1     -44.643  57.904 -55.309  1.00  0.00     0.144 A 
HETATM    6  C   UNL     1     -44.342  58.607 -54.170  1.00  0.00     0.038 A 
HETATM    7  N   UNL     1     -45.215  58.804 -56.192  1.00  0.00    -0.216 N 
HETATM    8  N   UNL     1     -45.438  59.996 -55.574  1.00  0.00    -0.169 NA
HETATM    9  C   UNL     1     -44.860  59.909 -54.366  1.00  0.00     0.077 C 
HETATM   10  C   UNL     1     -43.687  57.961 -53.091  1.00  0.00     0.032 A 
HETATM   11  H   UNL     1     -44.755  55.982 -56.161  1.00  0.00     0.170 HD
ENDROOT
BRANCH   1  12
HETATM   12  C   UNL     1     -42.732  55.913 -52.009  1.00  0.00     0.164 C 
BRANCH  12  13
HETATM   13  N   UNL     1     -41.350  55.668 -52.382  1.00  0.00    -0.385 N 
HETATM   14  H   UNL     1     -40.654  56.159 -51.824  1.00  0.00     0.160 HD
BRANCH  13  15
HETATM   15  C   UNL     1     -40.917  54.361 -52.640  1.00  0.00     0.028 A 
HETATM   16  C   UNL     1     -40.620  53.539 -51.544  1.00  0.00     0.029 A 
HETATM   17  C   UNL     1     -40.138  52.236 -51.715  1.00  0.00     0.009 A 
HETATM   18  C   UNL     1     -39.928  51.723 -52.997  1.00  0.00    -0.058 A 
HETATM   19  C   UNL     1     -40.194  52.543 -54.096  1.00  0.00     0.009 A 
HETATM   20  C   UNL     1     -40.661  53.852 -53.917  1.00  0.00     0.029 A 
BRANCH  18  21
HETATM   21  C   UNL     1     -39.432  50.313 -53.188  1.00  0.00     0.034 C 
HETATM   22  C   UNL     1     -39.603  49.839 -54.624  1.00  0.00     0.010 C 
ENDBRANCH  18  21
ENDBRANCH  13  15
ENDBRANCH  12  13
ENDBRANCH   1  12
BRANCH   9  23
HETATM   23  C   UNL     1     -44.877  61.111 -53.422  1.00  0.00    -0.004 C 
HETATM   24  C   UNL     1     -45.639  60.803 -52.111  1.00  0.00     0.021 C 
HETATM   25  C   UNL     1     -43.439  61.509 -53.032  1.00  0.00     0.021 C 
HETATM   26  C   UNL     1     -45.579  62.309 -54.090  1.00  0.00     0.021 C 
ENDBRANCH   9  23
BRANCH   7  27
HETATM   27  C   UNL     1     -45.564  58.628 -57.557  1.00  0.00     0.060 A 
HETATM   28  C   UNL     1     -46.852  58.166 -57.876  1.00  0.00     0.031 A 
HETATM   29  C   UNL     1     -47.225  57.980 -59.208  1.00  0.00     0.002 A 
HETATM   30  C   UNL     1     -46.326  58.269 -60.231  1.00  0.00     0.000 A 
HETATM   31  C   UNL     1     -45.056  58.757 -59.924  1.00  0.00     0.002 A 
HETATM   32  C   UNL     1     -44.673  58.941 -58.592  1.00  0.00     0.031 A 
ENDBRANCH   7  27
TORSDOF 6
ENDMDL
MODEL 9
REMARK VINA RESULT:      -7.4     15.895     20.011
REMARK  6 active torsions:
REMARK  status: ('A' for Active; 'I' for Inactive)
REMARK    1  A    between atoms: C_2  and  C_3 
REMARK    2  A    between atoms: C_6  and  N_7 
REMARK    3  A    between atoms: N_7  and  C_8 
REMARK    4  A    between atoms: C_8  and  C_9 
REMARK    5  A    between atoms: N_15  and  C_16 
REMARK    6  A    between atoms: C_23  and  C_24 
ROOT
HETATM    1  C   UNL     1     -42.486  56.585 -54.496  1.00  0.00     0.028 A 
HETATM    2  C   UNL     1     -43.327  55.515 -55.100  1.00  0.00     0.255 A 
HETATM    3  O   UNL     1     -43.533  54.409 -54.640  1.00  0.00    -0.268 OA
HETATM    4  N   UNL     1     -43.987  55.844 -56.326  1.00  0.00    -0.307 N 
HETATM    5  C   UNL     1     -43.897  57.117 -56.866  1.00  0.00     0.144 A 
HETATM    6  C   UNL     1     -43.209  58.111 -56.219  1.00  0.00     0.038 A 
HETATM    7  N   UNL     1     -44.455  57.689 -57.996  1.00  0.00    -0.216 N 
HETATM    8  N   UNL     1     -44.282  59.039 -57.977  1.00  0.00    -0.169 NA
HETATM    9  C   UNL     1     -43.477  59.301 -56.935  1.00  0.00     0.077 C 
HETATM   10  C   UNL     1     -42.475  57.817 -55.042  1.00  0.00     0.032 A 
HETATM   11  H   UNL     1     -44.593  55.135 -56.718  1.00  0.00     0.170 HD
ENDROOT
BRANCH   1  12
HETATM   12  C   UNL     1     -41.745  56.226 -53.249  1.00  0.00     0.164 C 
BRANCH  12  13
HETATM   13  N   UNL     1     -40.505  55.566 -53.621  1.00  0.00    -0.385 N 
HETATM   14  H   UNL     1     -39.654  56.047 -53.339  1.00  0.00     0.160 HD
BRANCH  13  15
HETATM   15  C   UNL     1     -40.361  54.186 -53.420  1.00  0.00     0.028 A 
HETATM   16  C   UNL     1     -40.276  53.720 -52.101  1.00  0.00     0.029 A 
HETATM   17  C   UNL     1     -40.086  52.363 -51.816  1.00  0.00     0.009 A 
HETATM   18  C   UNL     1     -39.962  51.433 -52.850  1.00  0.00    -0.058 A 
HETATM   19  C   UNL     1     -40.017  51.891 -54.169  1.00  0.00     0.009 A 
HETATM   20  C   UNL     1     -40.192  53.253 -54.447  1.00  0.00     0.029 A 
BRANCH  18  21
HETATM   21  C   UNL     1     -39.780  49.968 -52.549  1.00  0.00     0.034 C 
HETATM   22  C   UNL     1     -39.602  49.710 -51.060  1.00  0.00     0.010 C 
ENDBRANCH  18  21
ENDBRANCH  13  15
ENDBRANCH  12  13
ENDBRANCH   1  12
BRANCH   9  23
HETATM   23  C   UNL     1     -43.033  60.737 -56.657  1.00  0.00    -0.004 C 
HETATM   24  C   UNL     1     -44.045  61.771 -57.206  1.00  0.00     0.021 C 
HETATM   25  C   UNL     1     -42.914  60.979 -55.138  1.00  0.00     0.021 C 
HETATM   26  C   UNL     1     -41.676  61.021 -57.331  1.00  0.00     0.021 C 
ENDBRANCH   9  23
BRANCH   7  27
HETATM   27  C   UNL     1     -45.132  57.069 -59.080  1.00  0.00     0.060 A 
HETATM   28  C   UNL     1     -44.430  56.160 -59.890  1.00  0.00     0.031 A 
HETATM   29  C   UNL     1     -45.066  55.538 -60.965  1.00  0.00     0.002 A 
HETATM   30  C   UNL     1     -46.407  55.801 -61.230  1.00  0.00     0.000 A 
HETATM   31  C   UNL     1     -47.119  56.679 -60.413  1.00  0.00     0.002 A 
HETATM   32  C   UNL     1     -46.488  57.311 -59.336  1.00  0.00     0.031 A 
ENDBRANCH   7  27
TORSDOF 6
ENDMDL
MODEL 10
REMARK VINA RESULT:      -7.4     17.872     20.952
REMARK  6 active torsions:
REMARK  status: ('A' for Active; 'I' for Inactive)
REMARK    1  A    between atoms: C_2  and  C_3 
REMARK    2  A    between atoms: C_6  and  N_7 
REMARK    3  A    between atoms: N_7  and  C_8 
REMARK    4  A    between atoms: C_8  and  C_9 
REMARK    5  A    between atoms: N_15  and  C_16 
REMARK    6  A    between atoms: C_23  and  C_24 
ROOT
HETATM    1  C   UNL     1     -42.403  59.354 -53.189  1.00  0.00     0.028 A 
HETATM    2  C   UNL     1     -42.047  58.430 -52.077  1.00  0.00     0.255 A 
HETATM    3  O   UNL     1     -42.023  58.697 -50.892  1.00  0.00    -0.268 OA
HETATM    4  N   UNL     1     -41.740  57.082 -52.447  1.00  0.00    -0.307 N 
HETATM    5  C   UNL     1     -41.849  56.660 -53.762  1.00  0.00     0.144 A 
HETATM    6  C   UNL     1     -42.294  57.511 -54.742  1.00  0.00     0.038 A 
HETATM    7  N   UNL     1     -41.649  55.431 -54.364  1.00  0.00    -0.216 N 
HETATM    8  N   UNL     1     -42.122  55.446 -55.640  1.00  0.00    -0.169 NA
HETATM    9  C   UNL     1     -42.462  56.718 -55.901  1.00  0.00     0.077 C 
HETATM   10  C   UNL     1     -42.536  58.875 -54.441  1.00  0.00     0.032 A 
HETATM   11  H   UNL     1     -41.539  56.440 -51.692  1.00  0.00     0.170 HD
ENDROOT
BRANCH   1  12
HETATM   12  C   UNL     1     -42.662  60.777 -52.816  1.00  0.00     0.164 C 
BRANCH  12  13
HETATM   13  N   UNL     1     -44.011  60.880 -52.286  1.00  0.00    -0.385 N 
HETATM   14  H   UNL     1     -44.608  60.073 -52.455  1.00  0.00     0.160 HD
BRANCH  13  15
HETATM   15  C   UNL     1     -44.216  61.359 -50.985  1.00  0.00     0.028 A 
HETATM   16  C   UNL     1     -44.979  60.575 -50.109  1.00  0.00     0.029 A 
HETATM   17  C   UNL     1     -45.269  61.001 -48.808  1.00  0.00     0.009 A 
HETATM   18  C   UNL     1     -44.810  62.239 -48.351  1.00  0.00    -0.058 A 
HETATM   19  C   UNL     1     -44.072  63.041 -49.225  1.00  0.00     0.009 A 
HETATM   20  C   UNL     1     -43.799  62.614 -50.531  1.00  0.00     0.029 A 
BRANCH  18  21
HETATM   21  C   UNL     1     -45.099  62.694 -46.944  1.00  0.00     0.034 C 
HETATM   22  C   UNL     1     -45.087  61.536 -45.957  1.00  0.00     0.010 C 
ENDBRANCH  18  21
ENDBRANCH  13  15
ENDBRANCH  12  13
ENDBRANCH   1  12
BRANCH   9  23
HETATM   23  C   UNL     1     -42.985  57.099 -57.286  1.00  0.00    -0.004 C 
HETATM   24  C   UNL     1     -44.396  57.732 -57.214  1.00  0.00     0.021 C 
HETATM   25  C   UNL     1     -42.054  58.136 -57.946  1.00  0.00     0.021 C 
HETATM   26  C   UNL     1     -43.087  55.852 -58.185  1.00  0.00     0.021 C 
ENDBRANCH   9  23
BRANCH   7  27
HETATM   27  C   UNL     1     -41.054  54.254 -53.835  1.00  0.00     0.060 A 
HETATM   28  C   UNL     1     -40.529  53.300 -54.722  1.00  0.00     0.031 A 
HETATM   29  C   UNL     1     -39.942  52.131 -54.234  1.00  0.00     0.002 A 
HETATM   30  C   UNL     1     -39.858  51.914 -52.861  1.00  0.00     0.000 A 
HETATM   31  C   UNL     1     -40.350  52.870 -51.974  1.00  0.00     0.002 A 
HETATM   32  C   UNL     1     -40.944  54.041 -52.455  1.00  0.00     0.031 A 
ENDBRANCH   7  27
TORSDOF 6
ENDMDL
