MODEL 1
REMARK VINA RESULT:      -8.0      0.000      0.000
REMARK  9 active torsions:
REMARK  status: ('A' for Active; 'I' for Inactive)
REMARK    1  A    between atoms: C_2  and  N_3 
REMARK    2  A    between atoms: N_3  and  C_4 
REMARK    3  A    between atoms: C_4  and  N_5 
REMARK    4  A    between atoms: N_8  and  C_10 
REMARK    5  A    between atoms: C_10  and  C_11 
REMARK    6  A    between atoms: C_11  and  N_12 
REMARK    7  A    between atoms: C_13  and  C_14 
REMARK    8  A    between atoms: N_17  and  C_18 
REMARK    9  A    between atoms: C_28  and  C_29 
ROOT
HETATM    1  C   UNL     1     -41.941  57.579 -53.879  1.00  0.00     0.085 C 
HETATM    2  C   UNL     1     -41.554  56.195 -54.312  1.00  0.00     0.278 C 
HETATM    3  O   UNL     1     -41.577  55.837 -55.476  1.00  0.00    -0.265 OA
HETATM    4  N   UNL     1     -41.157  55.524 -53.163  1.00  0.00    -0.212 N 
HETATM    5  N   UNL     1     -41.307  56.374 -52.069  1.00  0.00    -0.189 NA
HETATM    6  C   UNL     1     -41.688  57.624 -52.554  1.00  0.00     0.130 C 
HETATM    7  H   UNL     1     -40.570  56.330 -51.361  1.00  0.00     0.153 HD
ENDROOT
BRANCH   1   8
HETATM    8  C   UNL     1     -42.510  58.645 -54.744  1.00  0.00     0.042 C 
HETATM    9  N   UNL     1     -41.711  59.495 -55.314  1.00  0.00    -0.292 NA
HETATM   10  C   UNL     1     -44.022  58.659 -54.904  1.00  0.00     0.071 C 
BRANCH   9  11
HETATM   11  C   UNL     1     -42.290  60.572 -56.127  1.00  0.00     0.176 C 
BRANCH  11  12
HETATM   12  C   UNL     1     -41.563  60.632 -57.477  1.00  0.00     0.256 C 
BRANCH  12  13
HETATM   13  N   UNL     1     -42.431  60.080 -58.590  1.00  0.00    -0.066 N 
HETATM   14  C   UNL     1     -42.389  58.557 -58.691  1.00  0.00     0.254 C 
HETATM   15  C   UNL     1     -43.330  58.057 -59.806  1.00  0.00     0.153 C 
HETATM   16  N   UNL     1     -44.697  58.544 -59.570  1.00  0.00    -0.355 N 
HETATM   17  C   UNL     1     -44.775  60.013 -59.536  1.00  0.00     0.153 C 
HETATM   18  C   UNL     1     -43.856  60.614 -58.461  1.00  0.00     0.254 C 
HETATM   19  H   UNL     1     -42.009  60.452 -59.461  1.00  0.00     0.280 HD
BRANCH  16  20
HETATM   20  C   UNL     1     -45.578  57.733 -58.832  1.00  0.00     0.169 C 
HETATM   21  S   UNL     1     -46.659  58.313 -57.693  1.00  0.00    -0.041 SA
BRANCH  20  22
HETATM   22  N   UNL     1     -45.415  56.397 -59.146  1.00  0.00    -0.367 N 
HETATM   23  H   UNL     1     -44.508  56.037 -58.875  1.00  0.00     0.161 HD
BRANCH  22  24
HETATM   24  C   UNL     1     -46.024  55.719 -60.289  1.00  0.00     0.117 C 
HETATM   25  C   UNL     1     -44.992  54.942 -61.085  1.00  0.00     0.026 C 
ENDBRANCH  22  24
ENDBRANCH  20  22
ENDBRANCH  16  20
ENDBRANCH  12  13
ENDBRANCH  11  12
ENDBRANCH   9  11
ENDBRANCH   1   8
BRANCH   6  26
HETATM   26  C   UNL     1     -41.808  58.821 -51.655  1.00  0.00     0.430 C 
HETATM   27  F   UNL     1     -41.069  59.865 -52.114  1.00  0.00    -0.165 F 
HETATM   28  F   UNL     1     -43.087  59.293 -51.558  1.00  0.00    -0.165 F 
HETATM   29  F   UNL     1     -41.392  58.571 -50.388  1.00  0.00    -0.165 F 
ENDBRANCH   6  26
BRANCH   4  30
HETATM   30  C   UNL     1     -40.808  54.195 -53.020  1.00  0.00     0.192 A 
HETATM   31  S   UNL     1     -40.359  53.576 -51.497  1.00  0.00    -0.048 SA
HETATM   32  C   UNL     1     -40.046  52.041 -52.202  1.00  0.00     0.037 A 
HETATM   33  C   UNL     1     -40.337  52.106 -53.566  1.00  0.00     0.076 A 
HETATM   34  C   UNL     1     -39.570  50.868 -51.594  1.00  0.00     0.021 A 
HETATM   35  N   UNL     1     -40.796  53.337 -54.016  1.00  0.00    -0.222 NA
HETATM   36  C   UNL     1     -40.142  50.952 -54.352  1.00  0.00     0.033 A 
HETATM   37  C   UNL     1     -39.661  49.779 -53.760  1.00  0.00     0.002 A 
HETATM   38  C   UNL     1     -39.380  49.740 -52.398  1.00  0.00     0.002 A 
ENDBRANCH   4  30
TORSDOF 9
ENDMDL
MODEL 2
REMARK VINA RESULT:      -7.8      1.504      1.826
REMARK  9 active torsions:
REMARK  status: ('A' for Active; 'I' for Inactive)
REMARK    1  A    between atoms: C_2  and  N_3 
REMARK    2  A    between atoms: N_3  and  C_4 
REMARK    3  A    between atoms: C_4  and  N_5 
REMARK    4  A    between atoms: N_8  and  C_10 
REMARK    5  A    between atoms: C_10  and  C_11 
REMARK    6  A    between atoms: C_11  and  N_12 
REMARK    7  A    between atoms: C_13  and  C_14 
REMARK    8  A    between atoms: N_17  and  C_18 
REMARK    9  A    between atoms: C_28  and  C_29 
ROOT
HETATM    1  C   UNL     1     -42.441  57.397 -53.587  1.00  0.00     0.085 C 
HETATM    2  C   UNL     1     -41.473  56.282 -53.851  1.00  0.00     0.278 C 
HETATM    3  O   UNL     1     -40.579  56.365 -54.676  1.00  0.00    -0.265 OA
HETATM    4  N   UNL     1     -41.800  55.263 -52.967  1.00  0.00    -0.212 N 
HETATM    5  N   UNL     1     -42.908  55.655 -52.218  1.00  0.00    -0.189 NA
HETATM    6  C   UNL     1     -43.200  56.976 -52.553  1.00  0.00     0.130 C 
HETATM    7  H   UNL     1     -42.895  55.396 -51.227  1.00  0.00     0.153 HD
ENDROOT
BRANCH   1   8
HETATM    8  C   UNL     1     -42.541  58.674 -54.341  1.00  0.00     0.042 C 
HETATM    9  N   UNL     1     -43.134  58.683 -55.497  1.00  0.00    -0.292 NA
HETATM   10  C   UNL     1     -41.933  59.903 -53.687  1.00  0.00     0.071 C 
BRANCH   9  11
HETATM   11  C   UNL     1     -43.183  59.941 -56.254  1.00  0.00     0.176 C 
BRANCH  11  12
HETATM   12  C   UNL     1     -41.924  60.055 -57.124  1.00  0.00     0.256 C 
BRANCH  12  13
HETATM   13  N   UNL     1     -42.197  59.596 -58.542  1.00  0.00    -0.066 N 
HETATM   14  C   UNL     1     -41.770  58.154 -58.803  1.00  0.00     0.254 C 
HETATM   15  C   UNL     1     -42.120  57.733 -60.245  1.00  0.00     0.153 C 
HETATM   16  N   UNL     1     -43.556  57.924 -60.494  1.00  0.00    -0.355 N 
HETATM   17  C   UNL     1     -43.979  59.322 -60.313  1.00  0.00     0.153 C 
HETATM   18  C   UNL     1     -43.659  59.845 -58.905  1.00  0.00     0.254 C 
HETATM   19  H   UNL     1     -41.595  60.201 -59.133  1.00  0.00     0.280 HD
BRANCH  16  20
HETATM   20  C   UNL     1     -44.426  56.845 -60.253  1.00  0.00     0.169 C 
HETATM   21  S   UNL     1     -43.928  55.326 -59.757  1.00  0.00    -0.041 SA
BRANCH  20  22
HETATM   22  N   UNL     1     -45.740  57.193 -60.507  1.00  0.00    -0.367 N 
HETATM   23  H   UNL     1     -45.825  58.052 -61.036  1.00  0.00     0.161 HD
BRANCH  22  24
HETATM   24  C   UNL     1     -46.873  56.901 -59.631  1.00  0.00     0.117 C 
HETATM   25  C   UNL     1     -46.896  57.828 -58.430  1.00  0.00     0.026 C 
ENDBRANCH  22  24
ENDBRANCH  20  22
ENDBRANCH  16  20
ENDBRANCH  12  13
ENDBRANCH  11  12
ENDBRANCH   9  11
ENDBRANCH   1   8
BRANCH   6  26
HETATM   26  C   UNL     1     -44.257  57.762 -51.833  1.00  0.00     0.430 C 
HETATM   27  F   UNL     1     -43.716  58.783 -51.116  1.00  0.00    -0.165 F 
HETATM   28  F   UNL     1     -45.160  58.346 -52.677  1.00  0.00    -0.165 F 
HETATM   29  F   UNL     1     -44.975  57.007 -50.963  1.00  0.00    -0.165 F 
ENDBRANCH   6  26
BRANCH   4  30
HETATM   30  C   UNL     1     -41.270  53.990 -52.886  1.00  0.00     0.192 A 
HETATM   31  S   UNL     1     -40.626  53.411 -51.418  1.00  0.00    -0.048 SA
HETATM   32  C   UNL     1     -40.170  51.943 -52.186  1.00  0.00     0.037 A 
HETATM   33  C   UNL     1     -40.574  51.991 -53.522  1.00  0.00     0.076 A 
HETATM   34  C   UNL     1     -39.499  50.833 -51.648  1.00  0.00     0.021 A 
HETATM   35  N   UNL     1     -41.224  53.158 -53.903  1.00  0.00    -0.222 NA
HETATM   36  C   UNL     1     -40.292  50.886 -54.352  1.00  0.00     0.033 A 
HETATM   37  C   UNL     1     -39.616  49.778 -53.829  1.00  0.00     0.002 A 
HETATM   38  C   UNL     1     -39.226  49.754 -52.494  1.00  0.00     0.002 A 
ENDBRANCH   4  30
TORSDOF 9
ENDMDL
MODEL 3
REMARK VINA RESULT:      -7.7      1.403      1.818
REMARK  9 active torsions:
REMARK  status: ('A' for Active; 'I' for Inactive)
REMARK    1  A    between atoms: C_2  and  N_3 
REMARK    2  A    between atoms: N_3  and  C_4 
REMARK    3  A    between atoms: C_4  and  N_5 
REMARK    4  A    between atoms: N_8  and  C_10 
REMARK    5  A    between atoms: C_10  and  C_11 
REMARK    6  A    between atoms: C_11  and  N_12 
REMARK    7  A    between atoms: C_13  and  C_14 
REMARK    8  A    between atoms: N_17  and  C_18 
REMARK    9  A    between atoms: C_28  and  C_29 
ROOT
HETATM    1  C   UNL     1     -42.239  57.315 -53.386  1.00  0.00     0.085 C 
HETATM    2  C   UNL     1     -41.241  56.226 -53.650  1.00  0.00     0.278 C 
HETATM    3  O   UNL     1     -40.309  56.358 -54.424  1.00  0.00    -0.265 OA
HETATM    4  N   UNL     1     -41.595  55.165 -52.828  1.00  0.00    -0.212 N 
HETATM    5  N   UNL     1     -42.744  55.507 -52.119  1.00  0.00    -0.189 NA
HETATM    6  C   UNL     1     -43.041  56.837 -52.411  1.00  0.00     0.130 C 
HETATM    7  H   UNL     1     -42.777  55.205 -51.141  1.00  0.00     0.153 HD
ENDROOT
BRANCH   1   8
HETATM    8  C   UNL     1     -42.323  58.622 -54.089  1.00  0.00     0.042 C 
HETATM    9  N   UNL     1     -42.878  58.677 -55.262  1.00  0.00    -0.292 NA
HETATM   10  C   UNL     1     -41.744  59.825 -53.363  1.00  0.00     0.071 C 
BRANCH   9  11
HETATM   11  C   UNL     1     -42.910  59.966 -55.966  1.00  0.00     0.176 C 
BRANCH  11  12
HETATM   12  C   UNL     1     -41.819  59.978 -57.045  1.00  0.00     0.256 C 
BRANCH  12  13
HETATM   13  N   UNL     1     -42.418  59.828 -58.429  1.00  0.00    -0.066 N 
HETATM   14  C   UNL     1     -42.260  58.423 -59.006  1.00  0.00     0.254 C 
HETATM   15  C   UNL     1     -42.933  58.324 -60.390  1.00  0.00     0.153 C 
HETATM   16  N   UNL     1     -44.347  58.712 -60.296  1.00  0.00    -0.355 N 
HETATM   17  C   UNL     1     -44.522  60.088 -59.804  1.00  0.00     0.153 C 
HETATM   18  C   UNL     1     -43.870  60.298 -58.429  1.00  0.00     0.254 C 
HETATM   19  H   UNL     1     -41.857  60.465 -59.026  1.00  0.00     0.280 HD
BRANCH  16  20
HETATM   20  C   UNL     1     -45.303  57.708 -60.056  1.00  0.00     0.169 C 
HETATM   21  S   UNL     1     -46.588  57.866 -58.996  1.00  0.00    -0.041 SA
BRANCH  20  22
HETATM   22  N   UNL     1     -45.026  56.567 -60.784  1.00  0.00    -0.367 N 
HETATM   23  H   UNL     1     -44.905  56.749 -61.773  1.00  0.00     0.161 HD
BRANCH  22  24
HETATM   24  C   UNL     1     -45.514  55.226 -60.467  1.00  0.00     0.117 C 
HETATM   25  C   UNL     1     -44.467  54.419 -59.720  1.00  0.00     0.026 C 
ENDBRANCH  22  24
ENDBRANCH  20  22
ENDBRANCH  16  20
ENDBRANCH  12  13
ENDBRANCH  11  12
ENDBRANCH   9  11
ENDBRANCH   1   8
BRANCH   6  26
HETATM   26  C   UNL     1     -44.145  57.576 -51.711  1.00  0.00     0.430 C 
HETATM   27  F   UNL     1     -45.090  58.008 -52.588  1.00  0.00    -0.165 F 
HETATM   28  F   UNL     1     -44.815  56.804 -50.803  1.00  0.00    -0.165 F 
HETATM   29  F   UNL     1     -43.704  58.668 -51.038  1.00  0.00    -0.165 F 
ENDBRANCH   6  26
BRANCH   4  30
HETATM   30  C   UNL     1     -41.048  53.897 -52.776  1.00  0.00     0.192 A 
HETATM   31  S   UNL     1     -40.820  52.993 -54.203  1.00  0.00    -0.048 SA
HETATM   32  C   UNL     1     -40.238  51.666 -53.280  1.00  0.00     0.037 A 
HETATM   33  C   UNL     1     -40.234  52.024 -51.931  1.00  0.00     0.076 A 
HETATM   34  C   UNL     1     -39.822  50.397 -53.717  1.00  0.00     0.021 A 
HETATM   35  N   UNL     1     -40.677  53.312 -51.659  1.00  0.00    -0.222 NA
HETATM   36  C   UNL     1     -39.800  51.075 -50.982  1.00  0.00     0.033 A 
HETATM   37  C   UNL     1     -39.391  49.806 -51.405  1.00  0.00     0.002 A 
HETATM   38  C   UNL     1     -39.402  49.474 -52.756  1.00  0.00     0.002 A 
ENDBRANCH   4  30
TORSDOF 9
ENDMDL
MODEL 4
REMARK VINA RESULT:      -7.7      1.725      2.184
REMARK  9 active torsions:
REMARK  status: ('A' for Active; 'I' for Inactive)
REMARK    1  A    between atoms: C_2  and  N_3 
REMARK    2  A    between atoms: N_3  and  C_4 
REMARK    3  A    between atoms: C_4  and  N_5 
REMARK    4  A    between atoms: N_8  and  C_10 
REMARK    5  A    between atoms: C_10  and  C_11 
REMARK    6  A    between atoms: C_11  and  N_12 
REMARK    7  A    between atoms: C_13  and  C_14 
REMARK    8  A    between atoms: N_17  and  C_18 
REMARK    9  A    between atoms: C_28  and  C_29 
ROOT
HETATM    1  C   UNL     1     -42.055  58.046 -52.293  1.00  0.00     0.085 C 
HETATM    2  C   UNL     1     -41.909  56.602 -52.676  1.00  0.00     0.278 C 
HETATM    3  O   UNL     1     -42.311  56.157 -53.736  1.00  0.00    -0.265 OA
HETATM    4  N   UNL     1     -41.223  55.991 -51.636  1.00  0.00    -0.212 N 
HETATM    5  N   UNL     1     -40.977  56.935 -50.641  1.00  0.00    -0.189 NA
HETATM    6  C   UNL     1     -41.406  58.173 -51.117  1.00  0.00     0.130 C 
HETATM    7  H   UNL     1     -40.062  56.880 -50.185  1.00  0.00     0.153 HD
ENDROOT
BRANCH   1   8
HETATM    8  C   UNL     1     -42.793  59.089 -53.054  1.00  0.00     0.042 C 
HETATM    9  N   UNL     1     -42.135  59.886 -53.840  1.00  0.00    -0.292 NA
HETATM   10  C   UNL     1     -44.299  59.140 -52.856  1.00  0.00     0.071 C 
BRANCH   9  11
HETATM   11  C   UNL     1     -42.869  60.943 -54.549  1.00  0.00     0.176 C 
BRANCH  11  12
HETATM   12  C   UNL     1     -42.713  60.736 -56.061  1.00  0.00     0.256 C 
BRANCH  12  13
HETATM   13  N   UNL     1     -43.574  59.586 -56.547  1.00  0.00    -0.066 N 
HETATM   14  C   UNL     1     -44.361  59.914 -57.813  1.00  0.00     0.254 C 
HETATM   15  C   UNL     1     -45.175  58.691 -58.281  1.00  0.00     0.153 C 
HETATM   16  N   UNL     1     -44.285  57.538 -58.483  1.00  0.00    -0.355 N 
HETATM   17  C   UNL     1     -43.563  57.161 -57.257  1.00  0.00     0.153 C 
HETATM   18  C   UNL     1     -42.730  58.323 -56.697  1.00  0.00     0.254 C 
HETATM   19  H   UNL     1     -44.267  59.441 -55.789  1.00  0.00     0.280 HD
BRANCH  16  20
HETATM   20  C   UNL     1     -43.739  57.330 -59.763  1.00  0.00     0.169 C 
HETATM   21  S   UNL     1     -42.119  57.518 -60.137  1.00  0.00    -0.041 SA
BRANCH  20  22
HETATM   22  N   UNL     1     -44.716  56.980 -60.675  1.00  0.00    -0.367 N 
HETATM   23  H   UNL     1     -45.196  57.781 -61.065  1.00  0.00     0.161 HD
BRANCH  22  24
HETATM   24  C   UNL     1     -45.513  55.755 -60.628  1.00  0.00     0.117 C 
HETATM   25  C   UNL     1     -44.697  54.585 -60.109  1.00  0.00     0.026 C 
ENDBRANCH  22  24
ENDBRANCH  20  22
ENDBRANCH  16  20
ENDBRANCH  12  13
ENDBRANCH  11  12
ENDBRANCH   9  11
ENDBRANCH   1   8
BRANCH   6  26
HETATM   26  C   UNL     1     -41.168  59.443 -50.352  1.00  0.00     0.430 C 
HETATM   27  F   UNL     1     -42.294  60.202 -50.284  1.00  0.00    -0.165 F 
HETATM   28  F   UNL     1     -40.794  59.226 -49.055  1.00  0.00    -0.165 F 
HETATM   29  F   UNL     1     -40.203  60.219 -50.907  1.00  0.00    -0.165 F 
ENDBRANCH   6  26
BRANCH   4  30
HETATM   30  C   UNL     1     -40.933  54.651 -51.466  1.00  0.00     0.192 A 
HETATM   31  S   UNL     1     -41.203  53.889 -49.965  1.00  0.00    -0.048 SA
HETATM   32  C   UNL     1     -40.553  52.423 -50.582  1.00  0.00     0.037 A 
HETATM   33  C   UNL     1     -40.197  52.616 -51.918  1.00  0.00     0.076 A 
HETATM   34  C   UNL     1     -40.366  51.193 -49.929  1.00  0.00     0.021 A 
HETATM   35  N   UNL     1     -40.443  53.889 -52.418  1.00  0.00    -0.222 NA
HETATM   36  C   UNL     1     -39.628  51.538 -52.627  1.00  0.00     0.033 A 
HETATM   37  C   UNL     1     -39.430  50.311 -51.985  1.00  0.00     0.002 A 
HETATM   38  C   UNL     1     -39.795  50.143 -50.653  1.00  0.00     0.002 A 
ENDBRANCH   4  30
TORSDOF 9
ENDMDL
MODEL 5
REMARK VINA RESULT:      -7.6      1.506      2.091
REMARK  9 active torsions:
REMARK  status: ('A' for Active; 'I' for Inactive)
REMARK    1  A    between atoms: C_2  and  N_3 
REMARK    2  A    between atoms: N_3  and  C_4 
REMARK    3  A    between atoms: C_4  and  N_5 
REMARK    4  A    between atoms: N_8  and  C_10 
REMARK    5  A    between atoms: C_10  and  C_11 
REMARK    6  A    between atoms: C_11  and  N_12 
REMARK    7  A    between atoms: C_13  and  C_14 
REMARK    8  A    between atoms: N_17  and  C_18 
REMARK    9  A    between atoms: C_28  and  C_29 
ROOT
HETATM    1  C   UNL     1     -41.969  57.527 -53.299  1.00  0.00     0.085 C 
HETATM    2  C   UNL     1     -41.669  56.156 -53.830  1.00  0.00     0.278 C 
HETATM    3  O   UNL     1     -41.865  55.840 -54.991  1.00  0.00    -0.265 OA
HETATM    4  N   UNL     1     -41.122  55.440 -52.774  1.00  0.00    -0.212 N 
HETATM    5  N   UNL     1     -41.102  56.251 -51.642  1.00  0.00    -0.189 NA
HETATM    6  C   UNL     1     -41.529  57.522 -52.024  1.00  0.00     0.130 C 
HETATM    7  H   UNL     1     -40.271  56.175 -51.048  1.00  0.00     0.153 HD
ENDROOT
BRANCH   1   8
HETATM    8  C   UNL     1     -42.640  58.630 -54.037  1.00  0.00     0.042 C 
HETATM    9  N   UNL     1     -43.937  58.650 -54.105  1.00  0.00    -0.292 NA
HETATM   10  C   UNL     1     -41.737  59.677 -54.667  1.00  0.00     0.071 C 
BRANCH   9  11
HETATM   11  C   UNL     1     -44.585  59.718 -54.878  1.00  0.00     0.176 C 
BRANCH  11  12
HETATM   12  C   UNL     1     -45.708  59.112 -55.730  1.00  0.00     0.256 C 
BRANCH  12  13
HETATM   13  N   UNL     1     -45.557  59.500 -57.188  1.00  0.00    -0.066 N 
HETATM   14  C   UNL     1     -44.128  59.885 -57.565  1.00  0.00     0.254 C 
HETATM   15  C   UNL     1     -44.032  60.219 -59.068  1.00  0.00     0.153 C 
HETATM   16  N   UNL     1     -44.515  59.086 -59.871  1.00  0.00    -0.355 N 
HETATM   17  C   UNL     1     -45.913  58.738 -59.572  1.00  0.00     0.153 C 
HETATM   18  C   UNL     1     -46.120  58.402 -58.087  1.00  0.00     0.254 C 
HETATM   19  H   UNL     1     -46.137  60.353 -57.293  1.00  0.00     0.280 HD
BRANCH  16  20
HETATM   20  C   UNL     1     -43.583  58.123 -60.298  1.00  0.00     0.169 C 
HETATM   21  S   UNL     1     -41.937  58.398 -60.425  1.00  0.00    -0.041 SA
BRANCH  20  22
HETATM   22  N   UNL     1     -44.205  56.934 -60.629  1.00  0.00    -0.367 N 
HETATM   23  H   UNL     1     -45.188  57.049 -60.840  1.00  0.00     0.161 HD
BRANCH  22  24
HETATM   24  C   UNL     1     -43.844  55.619 -60.101  1.00  0.00     0.117 C 
HETATM   25  C   UNL     1     -43.607  55.672 -58.602  1.00  0.00     0.026 C 
ENDBRANCH  22  24
ENDBRANCH  20  22
ENDBRANCH  16  20
ENDBRANCH  12  13
ENDBRANCH  11  12
ENDBRANCH   9  11
ENDBRANCH   1   8
BRANCH   6  26
HETATM   26  C   UNL     1     -41.500  58.687 -51.077  1.00  0.00     0.430 C 
HETATM   27  F   UNL     1     -41.013  58.327 -49.859  1.00  0.00    -0.165 F 
HETATM   28  F   UNL     1     -40.696  59.707 -51.505  1.00  0.00    -0.165 F 
HETATM   29  F   UNL     1     -42.727  59.226 -50.866  1.00  0.00    -0.165 F 
ENDBRANCH   6  26
BRANCH   4  30
HETATM   30  C   UNL     1     -40.777  54.103 -52.728  1.00  0.00     0.192 A 
HETATM   31  S   UNL     1     -40.311  53.379 -51.256  1.00  0.00    -0.048 SA
HETATM   32  C   UNL     1     -40.013  51.896 -52.070  1.00  0.00     0.037 A 
HETATM   33  C   UNL     1     -40.323  52.055 -53.422  1.00  0.00     0.076 A 
HETATM   34  C   UNL     1     -39.534  50.681 -51.551  1.00  0.00     0.021 A 
HETATM   35  N   UNL     1     -40.782  53.316 -53.780  1.00  0.00    -0.222 NA
HETATM   36  C   UNL     1     -40.142  50.957 -54.289  1.00  0.00     0.033 A 
HETATM   37  C   UNL     1     -39.658  49.745 -53.785  1.00  0.00     0.002 A 
HETATM   38  C   UNL     1     -39.360  49.611 -52.433  1.00  0.00     0.002 A 
ENDBRANCH   4  30
TORSDOF 9
ENDMDL
MODEL 6
REMARK VINA RESULT:      -7.3      4.042      6.544
REMARK  9 active torsions:
REMARK  status: ('A' for Active; 'I' for Inactive)
REMARK    1  A    between atoms: C_2  and  N_3 
REMARK    2  A    between atoms: N_3  and  C_4 
REMARK    3  A    between atoms: C_4  and  N_5 
REMARK    4  A    between atoms: N_8  and  C_10 
REMARK    5  A    between atoms: C_10  and  C_11 
REMARK    6  A    between atoms: C_11  and  N_12 
REMARK    7  A    between atoms: C_13  and  C_14 
REMARK    8  A    between atoms: N_17  and  C_18 
REMARK    9  A    between atoms: C_28  and  C_29 
ROOT
HETATM    1  C   UNL     1     -43.870  57.225 -56.337  1.00  0.00     0.085 C 
HETATM    2  C   UNL     1     -43.564  56.453 -55.086  1.00  0.00     0.278 C 
HETATM    3  O   UNL     1     -44.115  56.675 -54.022  1.00  0.00    -0.265 OA
HETATM    4  N   UNL     1     -42.628  55.492 -55.441  1.00  0.00    -0.212 N 
HETATM    5  N   UNL     1     -42.314  55.643 -56.790  1.00  0.00    -0.189 NA
HETATM    6  C   UNL     1     -43.151  56.629 -57.310  1.00  0.00     0.130 C 
HETATM    7  H   UNL     1     -42.192  54.778 -57.323  1.00  0.00     0.153 HD
ENDROOT
BRANCH   1   8
HETATM    8  C   UNL     1     -44.758  58.413 -56.443  1.00  0.00     0.042 C 
HETATM    9  N   UNL     1     -44.299  59.580 -56.108  1.00  0.00    -0.292 NA
HETATM   10  C   UNL     1     -46.168  58.166 -56.953  1.00  0.00     0.071 C 
BRANCH   9  11
HETATM   11  C   UNL     1     -45.202  60.737 -56.172  1.00  0.00     0.176 C 
BRANCH  11  12
HETATM   12  C   UNL     1     -45.658  61.100 -54.752  1.00  0.00     0.256 C 
BRANCH  12  13
HETATM   13  N   UNL     1     -44.677  60.586 -53.716  1.00  0.00    -0.066 N 
HETATM   14  C   UNL     1     -43.713  61.658 -53.214  1.00  0.00     0.254 C 
HETATM   15  C   UNL     1     -42.778  61.085 -52.129  1.00  0.00     0.153 C 
HETATM   16  N   UNL     1     -43.569  60.513 -51.030  1.00  0.00    -0.355 N 
HETATM   17  C   UNL     1     -44.459  59.431 -51.479  1.00  0.00     0.153 C 
HETATM   18  C   UNL     1     -45.426  59.897 -52.578  1.00  0.00     0.254 C 
HETATM   19  H   UNL     1     -44.109  59.881 -54.222  1.00  0.00     0.280 HD
BRANCH  16  20
HETATM   20  C   UNL     1     -43.892  61.338 -49.937  1.00  0.00     0.169 C 
HETATM   21  S   UNL     1     -43.656  62.995 -49.906  1.00  0.00    -0.041 SA
BRANCH  20  22
HETATM   22  N   UNL     1     -44.400  60.601 -48.884  1.00  0.00    -0.367 N 
HETATM   23  H   UNL     1     -44.339  59.602 -49.036  1.00  0.00     0.161 HD
BRANCH  22  24
HETATM   24  C   UNL     1     -45.499  61.019 -48.015  1.00  0.00     0.117 C 
HETATM   25  C   UNL     1     -45.072  61.051 -46.559  1.00  0.00     0.026 C 
ENDBRANCH  22  24
ENDBRANCH  20  22
ENDBRANCH  16  20
ENDBRANCH  12  13
ENDBRANCH  11  12
ENDBRANCH   9  11
ENDBRANCH   1   8
BRANCH   6  26
HETATM   26  C   UNL     1     -43.177  56.954 -58.776  1.00  0.00     0.430 C 
HETATM   27  F   UNL     1     -44.420  56.787 -59.302  1.00  0.00    -0.165 F 
HETATM   28  F   UNL     1     -42.839  58.252 -59.044  1.00  0.00    -0.165 F 
HETATM   29  F   UNL     1     -42.334  56.179 -59.503  1.00  0.00    -0.165 F 
ENDBRANCH   6  26
BRANCH   4  30
HETATM   30  C   UNL     1     -41.956  54.603 -54.625  1.00  0.00     0.192 A 
HETATM   31  S   UNL     1     -41.505  55.050 -53.043  1.00  0.00    -0.048 SA
HETATM   32  C   UNL     1     -40.732  53.532 -52.823  1.00  0.00     0.037 A 
HETATM   33  C   UNL     1     -40.901  52.770 -53.981  1.00  0.00     0.076 A 
HETATM   34  C   UNL     1     -40.022  53.051 -51.711  1.00  0.00     0.021 A 
HETATM   35  N   UNL     1     -41.624  53.386 -54.995  1.00  0.00    -0.222 NA
HETATM   36  C   UNL     1     -40.334  51.480 -54.029  1.00  0.00     0.033 A 
HETATM   37  C   UNL     1     -39.618  50.994 -52.929  1.00  0.00     0.002 A 
HETATM   38  C   UNL     1     -39.466  51.771 -51.786  1.00  0.00     0.002 A 
ENDBRANCH   4  30
TORSDOF 9
ENDMDL
MODEL 7
REMARK VINA RESULT:      -7.3      3.655      6.459
REMARK  9 active torsions:
REMARK  status: ('A' for Active; 'I' for Inactive)
REMARK    1  A    between atoms: C_2  and  N_3 
REMARK    2  A    between atoms: N_3  and  C_4 
REMARK    3  A    between atoms: C_4  and  N_5 
REMARK    4  A    between atoms: N_8  and  C_10 
REMARK    5  A    between atoms: C_10  and  C_11 
REMARK    6  A    between atoms: C_11  and  N_12 
REMARK    7  A    between atoms: C_13  and  C_14 
REMARK    8  A    between atoms: N_17  and  C_18 
REMARK    9  A    between atoms: C_28  and  C_29 
ROOT
HETATM    1  C   UNL     1     -41.952  57.443 -53.455  1.00  0.00     0.085 C 
HETATM    2  C   UNL     1     -41.620  56.099 -54.033  1.00  0.00     0.278 C 
HETATM    3  O   UNL     1     -41.836  55.809 -55.197  1.00  0.00    -0.265 OA
HETATM    4  N   UNL     1     -41.019  55.374 -53.013  1.00  0.00    -0.212 N 
HETATM    5  N   UNL     1     -40.997  56.153 -51.858  1.00  0.00    -0.189 NA
HETATM    6  C   UNL     1     -41.478  57.418 -52.192  1.00  0.00     0.130 C 
HETATM    7  H   UNL     1     -40.148  56.090 -51.289  1.00  0.00     0.153 HD
ENDROOT
BRANCH   1   8
HETATM    8  C   UNL     1     -42.682  58.542 -54.142  1.00  0.00     0.042 C 
HETATM    9  N   UNL     1     -43.964  58.655 -53.972  1.00  0.00    -0.292 NA
HETATM   10  C   UNL     1     -41.851  59.474 -55.009  1.00  0.00     0.071 C 
BRANCH   9  11
HETATM   11  C   UNL     1     -44.680  59.715 -54.696  1.00  0.00     0.176 C 
BRANCH  11  12
HETATM   12  C   UNL     1     -45.558  60.494 -53.708  1.00  0.00     0.256 C 
BRANCH  12  13
HETATM   13  N   UNL     1     -44.960  60.477 -52.315  1.00  0.00    -0.066 N 
HETATM   14  C   UNL     1     -44.291  61.795 -51.929  1.00  0.00     0.254 C 
HETATM   15  C   UNL     1     -43.749  61.728 -50.487  1.00  0.00     0.153 C 
HETATM   16  N   UNL     1     -44.830  61.380 -49.554  1.00  0.00    -0.355 N 
HETATM   17  C   UNL     1     -45.447  60.081 -49.867  1.00  0.00     0.153 C 
HETATM   18  C   UNL     1     -46.008  60.037 -51.296  1.00  0.00     0.254 C 
HETATM   19  H   UNL     1     -44.212  59.761 -52.361  1.00  0.00     0.280 HD
BRANCH  16  20
HETATM   20  C   UNL     1     -45.555  62.423 -48.949  1.00  0.00     0.169 C 
HETATM   21  S   UNL     1     -46.854  63.202 -49.661  1.00  0.00    -0.041 SA
BRANCH  20  22
HETATM   22  N   UNL     1     -45.038  62.739 -47.707  1.00  0.00    -0.367 N 
HETATM   23  H   UNL     1     -44.027  62.783 -47.701  1.00  0.00     0.161 HD
BRANCH  22  24
HETATM   24  C   UNL     1     -45.641  62.376 -46.426  1.00  0.00     0.117 C 
HETATM   25  C   UNL     1     -44.866  61.262 -45.746  1.00  0.00     0.026 C 
ENDBRANCH  22  24
ENDBRANCH  20  22
ENDBRANCH  16  20
ENDBRANCH  12  13
ENDBRANCH  11  12
ENDBRANCH   9  11
ENDBRANCH   1   8
BRANCH   6  26
HETATM   26  C   UNL     1     -41.464  58.556 -51.212  1.00  0.00     0.430 C 
HETATM   27  F   UNL     1     -40.642  58.298 -50.160  1.00  0.00    -0.165 F 
HETATM   28  F   UNL     1     -41.007  59.725 -51.755  1.00  0.00    -0.165 F 
HETATM   29  F   UNL     1     -42.690  58.823 -50.698  1.00  0.00    -0.165 F 
ENDBRANCH   6  26
BRANCH   4  30
HETATM   30  C   UNL     1     -40.627  54.050 -53.015  1.00  0.00     0.192 A 
HETATM   31  S   UNL     1     -40.493  53.187 -54.479  1.00  0.00    -0.048 SA
HETATM   32  C   UNL     1     -40.081  51.762 -53.613  1.00  0.00     0.037 A 
HETATM   33  C   UNL     1     -40.047  52.059 -52.249  1.00  0.00     0.076 A 
HETATM   34  C   UNL     1     -39.813  50.473 -54.104  1.00  0.00     0.021 A 
HETATM   35  N   UNL     1     -40.338  53.377 -51.922  1.00  0.00    -0.222 NA
HETATM   36  C   UNL     1     -39.737  51.025 -51.341  1.00  0.00     0.033 A 
HETATM   37  C   UNL     1     -39.476  49.736 -51.818  1.00  0.00     0.002 A 
HETATM   38  C   UNL     1     -39.513  49.466 -53.182  1.00  0.00     0.002 A 
ENDBRANCH   4  30
TORSDOF 9
ENDMDL
MODEL 8
REMARK VINA RESULT:      -7.2      3.100      3.723
REMARK  9 active torsions:
REMARK  status: ('A' for Active; 'I' for Inactive)
REMARK    1  A    between atoms: C_2  and  N_3 
REMARK    2  A    between atoms: N_3  and  C_4 
REMARK    3  A    between atoms: C_4  and  N_5 
REMARK    4  A    between atoms: N_8  and  C_10 
REMARK    5  A    between atoms: C_10  and  C_11 
REMARK    6  A    between atoms: C_11  and  N_12 
REMARK    7  A    between atoms: C_13  and  C_14 
REMARK    8  A    between atoms: N_17  and  C_18 
REMARK    9  A    between atoms: C_28  and  C_29 
ROOT
HETATM    1  C   UNL     1     -42.500  57.714 -56.644  1.00  0.00     0.085 C 
HETATM    2  C   UNL     1     -41.998  57.168 -55.339  1.00  0.00     0.278 C 
HETATM    3  O   UNL     1     -41.703  57.880 -54.395  1.00  0.00    -0.265 OA
HETATM    4  N   UNL     1     -42.007  55.786 -55.466  1.00  0.00    -0.212 N 
HETATM    5  N   UNL     1     -42.436  55.453 -56.749  1.00  0.00    -0.189 NA
HETATM    6  C   UNL     1     -42.812  56.633 -57.389  1.00  0.00     0.130 C 
HETATM    7  H   UNL     1     -43.057  54.642 -56.820  1.00  0.00     0.153 HD
ENDROOT
BRANCH   1   8
HETATM    8  C   UNL     1     -42.593  59.149 -57.020  1.00  0.00     0.042 C 
HETATM    9  N   UNL     1     -41.595  59.711 -57.631  1.00  0.00    -0.292 NA
HETATM   10  C   UNL     1     -43.883  59.867 -56.657  1.00  0.00     0.071 C 
BRANCH   9  11
HETATM   11  C   UNL     1     -41.680  61.142 -57.954  1.00  0.00     0.176 C 
BRANCH  11  12
HETATM   12  C   UNL     1     -41.300  61.349 -59.426  1.00  0.00     0.256 C 
BRANCH  12  13
HETATM   13  N   UNL     1     -42.536  61.466 -60.297  1.00  0.00    -0.066 N 
HETATM   14  C   UNL     1     -42.930  60.150 -60.964  1.00  0.00     0.254 C 
HETATM   15  C   UNL     1     -44.219  60.324 -61.793  1.00  0.00     0.153 C 
HETATM   16  N   UNL     1     -45.301  60.844 -60.944  1.00  0.00    -0.355 N 
HETATM   17  C   UNL     1     -44.970  62.145 -60.342  1.00  0.00     0.153 C 
HETATM   18  C   UNL     1     -43.684  62.083 -59.503  1.00  0.00     0.254 C 
HETATM   19  H   UNL     1     -42.260  62.118 -61.055  1.00  0.00     0.280 HD
BRANCH  16  20
HETATM   20  C   UNL     1     -46.153  59.924 -60.308  1.00  0.00     0.169 C 
HETATM   21  S   UNL     1     -46.897  60.195 -58.833  1.00  0.00    -0.041 SA
BRANCH  20  22
HETATM   22  N   UNL     1     -46.272  58.758 -61.041  1.00  0.00    -0.367 N 
HETATM   23  H   UNL     1     -45.861  58.829 -61.963  1.00  0.00     0.161 HD
BRANCH  22  24
HETATM   24  C   UNL     1     -47.376  57.805 -60.936  1.00  0.00     0.117 C 
HETATM   25  C   UNL     1     -46.868  56.377 -60.859  1.00  0.00     0.026 C 
ENDBRANCH  22  24
ENDBRANCH  20  22
ENDBRANCH  16  20
ENDBRANCH  12  13
ENDBRANCH  11  12
ENDBRANCH   9  11
ENDBRANCH   1   8
BRANCH   6  26
HETATM   26  C   UNL     1     -43.454  56.630 -58.746  1.00  0.00     0.430 C 
HETATM   27  F   UNL     1     -44.618  57.333 -58.749  1.00  0.00    -0.165 F 
HETATM   28  F   UNL     1     -42.675  57.208 -59.709  1.00  0.00    -0.165 F 
HETATM   29  F   UNL     1     -43.748  55.381 -59.187  1.00  0.00    -0.165 F 
ENDBRANCH   6  26
BRANCH   4  30
HETATM   30  C   UNL     1     -41.539  54.837 -54.578  1.00  0.00     0.192 A 
HETATM   31  S   UNL     1     -41.938  54.928 -52.923  1.00  0.00    -0.048 SA
HETATM   32  C   UNL     1     -40.964  53.549 -52.602  1.00  0.00     0.037 A 
HETATM   33  C   UNL     1     -40.419  53.095 -53.805  1.00  0.00     0.076 A 
HETATM   34  C   UNL     1     -40.697  52.919 -51.376  1.00  0.00     0.021 A 
HETATM   35  N   UNL     1     -40.776  53.826 -54.931  1.00  0.00    -0.222 NA
HETATM   36  C   UNL     1     -39.570  51.969 -53.778  1.00  0.00     0.033 A 
HETATM   37  C   UNL     1     -39.291  51.338 -52.561  1.00  0.00     0.002 A 
HETATM   38  C   UNL     1     -39.849  51.808 -51.376  1.00  0.00     0.002 A 
ENDBRANCH   4  30
TORSDOF 9
ENDMDL
MODEL 9
REMARK VINA RESULT:      -7.1      3.542      5.748
REMARK  9 active torsions:
REMARK  status: ('A' for Active; 'I' for Inactive)
REMARK    1  A    between atoms: C_2  and  N_3 
REMARK    2  A    between atoms: N_3  and  C_4 
REMARK    3  A    between atoms: C_4  and  N_5 
REMARK    4  A    between atoms: N_8  and  C_10 
REMARK    5  A    between atoms: C_10  and  C_11 
REMARK    6  A    between atoms: C_11  and  N_12 
REMARK    7  A    between atoms: C_13  and  C_14 
REMARK    8  A    between atoms: N_17  and  C_18 
REMARK    9  A    between atoms: C_28  and  C_29 
ROOT
HETATM    1  C   UNL     1     -43.775  57.146 -56.467  1.00  0.00     0.085 C 
HETATM    2  C   UNL     1     -43.438  56.471 -55.169  1.00  0.00     0.278 C 
HETATM    3  O   UNL     1     -43.904  56.826 -54.101  1.00  0.00    -0.265 OA
HETATM    4  N   UNL     1     -42.589  55.420 -55.486  1.00  0.00    -0.212 N 
HETATM    5  N   UNL     1     -42.355  55.427 -56.859  1.00  0.00    -0.189 NA
HETATM    6  C   UNL     1     -43.160  56.417 -57.421  1.00  0.00     0.130 C 
HETATM    7  H   UNL     1     -42.322  54.511 -57.315  1.00  0.00     0.153 HD
ENDROOT
BRANCH   1   8
HETATM    8  C   UNL     1     -44.592  58.378 -56.633  1.00  0.00     0.042 C 
HETATM    9  N   UNL     1     -44.022  59.538 -56.512  1.00  0.00    -0.292 NA
HETATM   10  C   UNL     1     -46.066  58.181 -56.944  1.00  0.00     0.071 C 
BRANCH   9  11
HETATM   11  C   UNL     1     -44.850  60.746 -56.630  1.00  0.00     0.176 C 
BRANCH  11  12
HETATM   12  C   UNL     1     -44.089  61.938 -56.034  1.00  0.00     0.256 C 
BRANCH  12  13
HETATM   13  N   UNL     1     -44.336  62.053 -54.543  1.00  0.00    -0.066 N 
HETATM   14  C   UNL     1     -45.427  61.113 -54.037  1.00  0.00     0.254 C 
HETATM   15  C   UNL     1     -45.593  61.243 -52.509  1.00  0.00     0.153 C 
HETATM   16  N   UNL     1     -44.311  60.992 -51.837  1.00  0.00    -0.355 N 
HETATM   17  C   UNL     1     -43.259  61.930 -52.260  1.00  0.00     0.153 C 
HETATM   18  C   UNL     1     -43.025  61.889 -53.777  1.00  0.00     0.254 C 
HETATM   19  H   UNL     1     -44.685  63.021 -54.410  1.00  0.00     0.280 HD
BRANCH  16  20
HETATM   20  C   UNL     1     -44.017  59.679 -51.424  1.00  0.00     0.169 C 
HETATM   21  S   UNL     1     -45.170  58.497 -51.154  1.00  0.00    -0.041 SA
BRANCH  20  22
HETATM   22  N   UNL     1     -42.658  59.502 -51.242  1.00  0.00    -0.367 N 
HETATM   23  H   UNL     1     -42.101  60.188 -51.737  1.00  0.00     0.161 HD
BRANCH  22  24
HETATM   24  C   UNL     1     -41.996  58.216 -51.032  1.00  0.00     0.117 C 
HETATM   25  C   UNL     1     -40.526  58.397 -50.702  1.00  0.00     0.026 C 
ENDBRANCH  22  24
ENDBRANCH  20  22
ENDBRANCH  16  20
ENDBRANCH  12  13
ENDBRANCH  11  12
ENDBRANCH   9  11
ENDBRANCH   1   8
BRANCH   6  26
HETATM   26  C   UNL     1     -43.261  56.610 -58.907  1.00  0.00     0.430 C 
HETATM   27  F   UNL     1     -44.536  56.441 -59.345  1.00  0.00    -0.165 F 
HETATM   28  F   UNL     1     -42.898  57.865 -59.311  1.00  0.00    -0.165 F 
HETATM   29  F   UNL     1     -42.486  55.741 -59.605  1.00  0.00    -0.165 F 
ENDBRANCH   6  26
BRANCH   4  30
HETATM   30  C   UNL     1     -41.922  54.565 -54.631  1.00  0.00     0.192 A 
HETATM   31  S   UNL     1     -41.557  55.045 -53.036  1.00  0.00    -0.048 SA
HETATM   32  C   UNL     1     -40.741  53.557 -52.765  1.00  0.00     0.037 A 
HETATM   33  C   UNL     1     -40.833  52.778 -53.920  1.00  0.00     0.076 A 
HETATM   34  C   UNL     1     -40.064  53.114 -51.617  1.00  0.00     0.021 A 
HETATM   35  N   UNL     1     -41.532  53.356 -54.971  1.00  0.00    -0.222 NA
HETATM   36  C   UNL     1     -40.220  51.508 -53.927  1.00  0.00     0.033 A 
HETATM   37  C   UNL     1     -39.536  51.059 -52.791  1.00  0.00     0.002 A 
HETATM   38  C   UNL     1     -39.461  51.854 -51.652  1.00  0.00     0.002 A 
ENDBRANCH   4  30
TORSDOF 9
ENDMDL
MODEL 10
REMARK VINA RESULT:      -7.0      1.908      3.118
REMARK  9 active torsions:
REMARK  status: ('A' for Active; 'I' for Inactive)
REMARK    1  A    between atoms: C_2  and  N_3 
REMARK    2  A    between atoms: N_3  and  C_4 
REMARK    3  A    between atoms: C_4  and  N_5 
REMARK    4  A    between atoms: N_8  and  C_10 
REMARK    5  A    between atoms: C_10  and  C_11 
REMARK    6  A    between atoms: C_11  and  N_12 
REMARK    7  A    between atoms: C_13  and  C_14 
REMARK    8  A    between atoms: N_17  and  C_18 
REMARK    9  A    between atoms: C_28  and  C_29 
ROOT
HETATM    1  C   UNL     1     -41.919  57.384 -53.624  1.00  0.00     0.085 C 
HETATM    2  C   UNL     1     -41.513  56.039 -54.150  1.00  0.00     0.278 C 
HETATM    3  O   UNL     1     -41.596  55.738 -55.328  1.00  0.00    -0.265 OA
HETATM    4  N   UNL     1     -41.023  55.327 -53.064  1.00  0.00    -0.212 N 
HETATM    5  N   UNL     1     -41.135  56.115 -51.921  1.00  0.00    -0.189 NA
HETATM    6  C   UNL     1     -41.587  57.373 -52.316  1.00  0.00     0.130 C 
HETATM    7  H   UNL     1     -40.355  56.064 -51.260  1.00  0.00     0.153 HD
ENDROOT
BRANCH   1   8
HETATM    8  C   UNL     1     -42.576  58.471 -54.398  1.00  0.00     0.042 C 
HETATM    9  N   UNL     1     -43.820  58.338 -54.746  1.00  0.00    -0.292 NA
HETATM   10  C   UNL     1     -41.725  59.686 -54.725  1.00  0.00     0.071 C 
BRANCH   9  11
HETATM   11  C   UNL     1     -44.444  59.396 -55.552  1.00  0.00     0.176 C 
BRANCH  11  12
HETATM   12  C   UNL     1     -44.996  58.785 -56.846  1.00  0.00     0.256 C 
BRANCH  12  13
HETATM   13  N   UNL     1     -43.895  58.582 -57.868  1.00  0.00    -0.066 N 
HETATM   14  C   UNL     1     -44.410  58.114 -59.226  1.00  0.00     0.254 C 
HETATM   15  C   UNL     1     -43.249  57.975 -60.232  1.00  0.00     0.153 C 
HETATM   16  N   UNL     1     -42.520  59.247 -60.341  1.00  0.00    -0.355 N 
HETATM   17  C   UNL     1     -41.956  59.686 -59.055  1.00  0.00     0.153 C 
HETATM   18  C   UNL     1     -43.036  59.840 -57.973  1.00  0.00     0.254 C 
HETATM   19  H   UNL     1     -43.319  57.811 -57.481  1.00  0.00     0.280 HD
BRANCH  16  20
HETATM   20  C   UNL     1     -42.915  60.163 -61.333  1.00  0.00     0.169 C 
HETATM   21  S   UNL     1     -44.506  60.568 -61.659  1.00  0.00    -0.041 SA
BRANCH  20  22
HETATM   22  N   UNL     1     -41.825  60.660 -62.021  1.00  0.00    -0.367 N 
HETATM   23  H   UNL     1     -41.016  60.054 -61.969  1.00  0.00     0.161 HD
BRANCH  22  24
HETATM   24  C   UNL     1     -41.514  62.078 -62.197  1.00  0.00     0.117 C 
HETATM   25  C   UNL     1     -40.551  62.568 -61.131  1.00  0.00     0.026 C 
ENDBRANCH  22  24
ENDBRANCH  20  22
ENDBRANCH  16  20
ENDBRANCH  12  13
ENDBRANCH  11  12
ENDBRANCH   9  11
ENDBRANCH   1   8
BRANCH   6  26
HETATM   26  C   UNL     1     -41.691  58.518 -51.351  1.00  0.00     0.430 C 
HETATM   27  F   UNL     1     -42.974  58.952 -51.229  1.00  0.00    -0.165 F 
HETATM   28  F   UNL     1     -41.295  58.189 -50.084  1.00  0.00    -0.165 F 
HETATM   29  F   UNL     1     -40.947  59.590 -51.722  1.00  0.00    -0.165 F 
ENDBRANCH   6  26
BRANCH   4  30
HETATM   30  C   UNL     1     -40.622  54.006 -53.011  1.00  0.00     0.192 A 
HETATM   31  S   UNL     1     -40.439  53.098 -54.442  1.00  0.00    -0.048 SA
HETATM   32  C   UNL     1     -40.043  51.704 -53.518  1.00  0.00     0.037 A 
HETATM   33  C   UNL     1     -40.052  52.046 -52.164  1.00  0.00     0.076 A 
HETATM   34  C   UNL     1     -39.752  50.403 -53.958  1.00  0.00     0.021 A 
HETATM   35  N   UNL     1     -40.361  53.372 -51.889  1.00  0.00    -0.222 NA
HETATM   36  C   UNL     1     -39.762  51.044 -51.214  1.00  0.00     0.033 A 
HETATM   37  C   UNL     1     -39.478  49.742 -51.641  1.00  0.00     0.002 A 
HETATM   38  C   UNL     1     -39.473  49.428 -52.996  1.00  0.00     0.002 A 
ENDBRANCH   4  30
TORSDOF 9
ENDMDL
