MODEL 1
REMARK VINA RESULT:      -8.2      0.000      0.000
REMARK  9 active torsions:
REMARK  status: ('A' for Active; 'I' for Inactive)
REMARK    1  A    between atoms: C_4  and  C_5 
REMARK    2  A    between atoms: N_10  and  C_11 
REMARK    3  A    between atoms: C_11  and  C_12 
REMARK    4  A    between atoms: C_12  and  C_13 
REMARK    5  A    between atoms: C_13  and  C_14 
REMARK    6  A    between atoms: C_14  and  C_15 
REMARK    7  A    between atoms: C_15  and  C_16 
REMARK       I    between atoms: C_16  and  N_17 
REMARK    8  A    between atoms: N_17  and  C_18 
REMARK    9  A    between atoms: C_26  and  C_27 
REMARK       I    between atoms: C_27  and  N_28 
ROOT
HETATM    1  C   UNL     1     -42.877  58.189 -51.407  1.00  0.00     0.103 C 
ENDROOT
BRANCH   1   2
HETATM    2  C   UNL     1     -42.980  59.639 -50.923  1.00  0.00     0.009 C 
BRANCH   2   3
HETATM    3  C   UNL     1     -42.340  60.637 -51.895  1.00  0.00     0.002 C 
BRANCH   3   4
HETATM    4  C   UNL     1     -42.029  59.993 -53.247  1.00  0.00     0.020 C 
BRANCH   4   5
HETATM    5  C   UNL     1     -42.470  60.848 -54.442  1.00  0.00     0.134 C 
BRANCH   5   6
HETATM    6  N   UNL     1     -43.246  60.047 -55.390  1.00  0.00    -0.298 N 
HETATM    7  C   UNL     1     -44.527  59.585 -55.168  1.00  0.00     0.148 C 
HETATM    8  S   UNL     1     -45.027  58.555 -56.504  1.00  0.00    -0.055 SA
HETATM    9  S   UNL     1     -45.526  59.886 -53.866  1.00  0.00    -0.052 SA
HETATM   10  C   UNL     1     -43.488  58.628 -57.256  1.00  0.00     0.076 C 
HETATM   11  C   UNL     1     -43.013  57.916 -58.288  1.00  0.00     0.036 C 
HETATM   12  C   UNL     1     -42.624  59.610 -56.547  1.00  0.00     0.266 C 
HETATM   13  O   UNL     1     -41.510  59.936 -56.932  1.00  0.00    -0.266 OA
BRANCH  11  14
HETATM   14  C   UNL     1     -43.677  56.845 -59.045  1.00  0.00    -0.035 A 
HETATM   15  C   UNL     1     -43.452  55.515 -58.664  1.00  0.00     0.011 A 
HETATM   16  C   UNL     1     -44.119  54.468 -59.305  1.00  0.00     0.001 A 
HETATM   17  C   UNL     1     -45.022  54.740 -60.330  1.00  0.00     0.000 A 
HETATM   18  C   UNL     1     -45.267  56.059 -60.707  1.00  0.00     0.001 A 
HETATM   19  C   UNL     1     -44.607  57.106 -60.060  1.00  0.00     0.011 A 
ENDBRANCH  11  14
ENDBRANCH   5   6
ENDBRANCH   4   5
ENDBRANCH   3   4
ENDBRANCH   2   3
ENDBRANCH   1   2
BRANCH   1  20
HETATM   20  C   UNL     1     -44.116  57.358 -51.132  1.00  0.00     0.222 C 
HETATM   21  N   UNL     1     -44.114  55.996 -51.205  1.00  0.00    -0.320 N 
HETATM   22  H   UNL     1     -45.038  55.616 -50.992  1.00  0.00     0.169 HD
HETATM   23  O   UNL     1     -45.180  57.898 -50.808  1.00  0.00    -0.273 OA
BRANCH  21  24
HETATM   24  C   UNL     1     -43.156  55.042 -51.508  1.00  0.00     0.093 A 
HETATM   25  S   UNL     1     -42.312  54.187 -50.317  1.00  0.00    -0.075 SA
HETATM   26  C   UNL     1     -41.364  53.370 -51.451  1.00  0.00    -0.008 A 
HETATM   27  C   UNL     1     -41.699  53.686 -52.755  1.00  0.00    -0.026 A 
HETATM   28  C   UNL     1     -40.291  52.416 -51.026  1.00  0.00     0.047 C 
HETATM   29  C   UNL     1     -40.916  53.114 -53.908  1.00  0.00     0.041 C 
HETATM   30  C   UNL     1     -42.771  54.666 -52.796  1.00  0.00     0.072 A 
HETATM   31  C   UNL     1     -40.038  51.922 -53.492  1.00  0.00     0.005 C 
HETATM   32  C   UNL     1     -39.303  52.183 -52.174  1.00  0.00     0.005 C 
BRANCH  30  33
HETATM   33  C   UNL     1     -43.398  55.270 -53.973  1.00  0.00     0.252 C 
HETATM   34  N   UNL     1     -44.444  54.593 -54.527  1.00  0.00    -0.366 N 
HETATM   35  H   UNL     1     -44.958  53.922 -53.975  1.00  0.00     0.159 HD
HETATM   36  H   UNL     1     -44.964  55.105 -55.228  1.00  0.00     0.159 HD
HETATM   37  O   UNL     1     -43.079  56.371 -54.412  1.00  0.00    -0.268 OA
ENDBRANCH  30  33
ENDBRANCH  21  24
ENDBRANCH   1  20
TORSDOF 9
ENDMDL
MODEL 2
REMARK VINA RESULT:      -8.2      1.703      2.586
REMARK  9 active torsions:
REMARK  status: ('A' for Active; 'I' for Inactive)
REMARK    1  A    between atoms: C_4  and  C_5 
REMARK    2  A    between atoms: N_10  and  C_11 
REMARK    3  A    between atoms: C_11  and  C_12 
REMARK    4  A    between atoms: C_12  and  C_13 
REMARK    5  A    between atoms: C_13  and  C_14 
REMARK    6  A    between atoms: C_14  and  C_15 
REMARK    7  A    between atoms: C_15  and  C_16 
REMARK       I    between atoms: C_16  and  N_17 
REMARK    8  A    between atoms: N_17  and  C_18 
REMARK    9  A    between atoms: C_26  and  C_27 
REMARK       I    between atoms: C_27  and  N_28 
ROOT
HETATM    1  C   UNL     1     -43.313  57.941 -52.046  1.00  0.00     0.103 C 
ENDROOT
BRANCH   1   2
HETATM    2  C   UNL     1     -42.182  58.611 -51.260  1.00  0.00     0.009 C 
BRANCH   2   3
HETATM    3  C   UNL     1     -42.499  60.062 -50.883  1.00  0.00     0.002 C 
BRANCH   3   4
HETATM    4  C   UNL     1     -43.591  60.655 -51.774  1.00  0.00     0.020 C 
BRANCH   4   5
HETATM    5  C   UNL     1     -43.045  61.579 -52.870  1.00  0.00     0.134 C 
BRANCH   5   6
HETATM    6  N   UNL     1     -43.256  60.989 -54.194  1.00  0.00    -0.298 N 
HETATM    7  C   UNL     1     -44.416  61.104 -54.932  1.00  0.00     0.148 C 
HETATM    8  S   UNL     1     -44.288  60.133 -56.393  1.00  0.00    -0.055 SA
HETATM    9  S   UNL     1     -45.786  61.987 -54.578  1.00  0.00    -0.052 SA
HETATM   10  C   UNL     1     -42.773  59.474 -55.933  1.00  0.00     0.076 C 
HETATM   11  C   UNL     1     -42.083  58.467 -56.487  1.00  0.00     0.036 C 
HETATM   12  C   UNL     1     -42.278  60.153 -54.706  1.00  0.00     0.266 C 
HETATM   13  O   UNL     1     -41.176  59.951 -54.216  1.00  0.00    -0.266 OA
BRANCH  11  14
HETATM   14  C   UNL     1     -42.452  57.623 -57.631  1.00  0.00    -0.035 A 
HETATM   15  C   UNL     1     -42.021  58.000 -58.910  1.00  0.00     0.011 A 
HETATM   16  C   UNL     1     -42.282  57.190 -60.018  1.00  0.00     0.001 A 
HETATM   17  C   UNL     1     -42.972  55.991 -59.858  1.00  0.00     0.000 A 
HETATM   18  C   UNL     1     -43.392  55.596 -58.590  1.00  0.00     0.001 A 
HETATM   19  C   UNL     1     -43.122  56.402 -57.481  1.00  0.00     0.011 A 
ENDBRANCH  11  14
ENDBRANCH   5   6
ENDBRANCH   4   5
ENDBRANCH   3   4
ENDBRANCH   2   3
ENDBRANCH   1   2
BRANCH   1  20
HETATM   20  C   UNL     1     -44.148  56.976 -51.226  1.00  0.00     0.222 C 
HETATM   21  N   UNL     1     -43.888  55.638 -51.182  1.00  0.00    -0.320 N 
HETATM   22  H   UNL     1     -44.559  55.154 -50.582  1.00  0.00     0.169 HD
HETATM   23  O   UNL     1     -45.095  57.384 -50.543  1.00  0.00    -0.273 OA
BRANCH  21  24
HETATM   24  C   UNL     1     -42.942  54.813 -51.769  1.00  0.00     0.093 A 
HETATM   25  S   UNL     1     -43.059  54.287 -53.373  1.00  0.00    -0.075 SA
HETATM   26  C   UNL     1     -41.668  53.337 -53.255  1.00  0.00    -0.008 A 
HETATM   27  C   UNL     1     -41.056  53.436 -52.019  1.00  0.00    -0.026 A 
HETATM   28  C   UNL     1     -41.198  52.499 -54.404  1.00  0.00     0.047 C 
HETATM   29  C   UNL     1     -39.841  52.604 -51.696  1.00  0.00     0.041 C 
HETATM   30  C   UNL     1     -41.798  54.321 -51.138  1.00  0.00     0.072 A 
HETATM   31  C   UNL     1     -39.193  51.994 -52.950  1.00  0.00     0.005 C 
HETATM   32  C   UNL     1     -40.236  51.413 -53.911  1.00  0.00     0.005 C 
BRANCH  30  33
HETATM   33  C   UNL     1     -41.495  54.675 -49.749  1.00  0.00     0.252 C 
HETATM   34  N   UNL     1     -41.192  53.647 -48.906  1.00  0.00    -0.366 N 
HETATM   35  H   UNL     1     -40.867  52.768 -49.281  1.00  0.00     0.159 HD
HETATM   36  H   UNL     1     -40.825  53.925 -48.005  1.00  0.00     0.159 HD
HETATM   37  O   UNL     1     -41.424  55.834 -49.353  1.00  0.00    -0.268 OA
ENDBRANCH  30  33
ENDBRANCH  21  24
ENDBRANCH   1  20
TORSDOF 9
ENDMDL
MODEL 3
REMARK VINA RESULT:      -7.9      2.526      4.643
REMARK  9 active torsions:
REMARK  status: ('A' for Active; 'I' for Inactive)
REMARK    1  A    between atoms: C_4  and  C_5 
REMARK    2  A    between atoms: N_10  and  C_11 
REMARK    3  A    between atoms: C_11  and  C_12 
REMARK    4  A    between atoms: C_12  and  C_13 
REMARK    5  A    between atoms: C_13  and  C_14 
REMARK    6  A    between atoms: C_14  and  C_15 
REMARK    7  A    between atoms: C_15  and  C_16 
REMARK       I    between atoms: C_16  and  N_17 
REMARK    8  A    between atoms: N_17  and  C_18 
REMARK    9  A    between atoms: C_26  and  C_27 
REMARK       I    between atoms: C_27  and  N_28 
ROOT
HETATM    1  C   UNL     1     -44.783  59.846 -54.239  1.00  0.00     0.103 C 
ENDROOT
BRANCH   1   2
HETATM    2  C   UNL     1     -45.748  60.711 -55.055  1.00  0.00     0.009 C 
BRANCH   2   3
HETATM    3  C   UNL     1     -45.118  61.250 -56.345  1.00  0.00     0.002 C 
BRANCH   3   4
HETATM    4  C   UNL     1     -45.294  60.277 -57.511  1.00  0.00     0.020 C 
BRANCH   4   5
HETATM    5  C   UNL     1     -43.994  60.012 -58.282  1.00  0.00     0.134 C 
BRANCH   5   6
HETATM    6  N   UNL     1     -43.481  58.674 -57.983  1.00  0.00    -0.298 N 
HETATM    7  C   UNL     1     -43.891  57.515 -58.609  1.00  0.00     0.148 C 
HETATM    8  S   UNL     1     -43.119  56.127 -57.852  1.00  0.00    -0.055 SA
HETATM    9  S   UNL     1     -44.955  57.345 -59.883  1.00  0.00    -0.052 SA
HETATM   10  C   UNL     1     -42.392  57.083 -56.629  1.00  0.00     0.076 C 
HETATM   11  C   UNL     1     -41.752  56.694 -55.516  1.00  0.00     0.036 C 
HETATM   12  C   UNL     1     -42.610  58.525 -56.917  1.00  0.00     0.266 C 
HETATM   13  O   UNL     1     -42.112  59.432 -56.263  1.00  0.00    -0.266 OA
BRANCH  11  14
HETATM   14  C   UNL     1     -41.525  55.330 -55.018  1.00  0.00    -0.035 A 
HETATM   15  C   UNL     1     -42.634  54.556 -54.652  1.00  0.00     0.011 A 
HETATM   16  C   UNL     1     -42.473  53.229 -54.246  1.00  0.00     0.001 A 
HETATM   17  C   UNL     1     -41.202  52.661 -54.206  1.00  0.00     0.000 A 
HETATM   18  C   UNL     1     -40.093  53.415 -54.583  1.00  0.00     0.001 A 
HETATM   19  C   UNL     1     -40.255  54.738 -54.999  1.00  0.00     0.011 A 
ENDBRANCH  11  14
ENDBRANCH   5   6
ENDBRANCH   4   5
ENDBRANCH   3   4
ENDBRANCH   2   3
ENDBRANCH   1   2
BRANCH   1  20
HETATM   20  C   UNL     1     -44.067  60.597 -53.132  1.00  0.00     0.222 C 
HETATM   21  N   UNL     1     -43.349  59.961 -52.162  1.00  0.00    -0.320 N 
HETATM   22  H   UNL     1     -42.946  60.631 -51.505  1.00  0.00     0.169 HD
HETATM   23  O   UNL     1     -44.095  61.833 -53.086  1.00  0.00    -0.273 OA
BRANCH  21  24
HETATM   24  C   UNL     1     -43.066  58.635 -51.877  1.00  0.00     0.093 A 
HETATM   25  S   UNL     1     -44.265  57.516 -51.461  1.00  0.00    -0.075 SA
HETATM   26  C   UNL     1     -43.144  56.277 -51.210  1.00  0.00    -0.008 A 
HETATM   27  C   UNL     1     -41.846  56.667 -51.484  1.00  0.00    -0.026 A 
HETATM   28  C   UNL     1     -43.574  54.921 -50.742  1.00  0.00     0.047 C 
HETATM   29  C   UNL     1     -40.695  55.722 -51.249  1.00  0.00     0.041 C 
HETATM   30  C   UNL     1     -41.794  58.060 -51.893  1.00  0.00     0.072 A 
HETATM   31  C   UNL     1     -41.155  54.266 -51.070  1.00  0.00     0.005 C 
HETATM   32  C   UNL     1     -42.381  54.159 -50.157  1.00  0.00     0.005 C 
BRANCH  30  33
HETATM   33  C   UNL     1     -40.616  58.853 -52.251  1.00  0.00     0.252 C 
HETATM   34  N   UNL     1     -39.757  59.165 -51.239  1.00  0.00    -0.366 N 
HETATM   35  H   UNL     1     -39.750  58.611 -50.396  1.00  0.00     0.159 HD
HETATM   36  H   UNL     1     -38.874  59.563 -51.534  1.00  0.00     0.159 HD
HETATM   37  O   UNL     1     -40.342  59.164 -53.406  1.00  0.00    -0.268 OA
ENDBRANCH  30  33
ENDBRANCH  21  24
ENDBRANCH   1  20
TORSDOF 9
ENDMDL
MODEL 4
REMARK VINA RESULT:      -7.8      1.440      2.052
REMARK  9 active torsions:
REMARK  status: ('A' for Active; 'I' for Inactive)
REMARK    1  A    between atoms: C_4  and  C_5 
REMARK    2  A    between atoms: N_10  and  C_11 
REMARK    3  A    between atoms: C_11  and  C_12 
REMARK    4  A    between atoms: C_12  and  C_13 
REMARK    5  A    between atoms: C_13  and  C_14 
REMARK    6  A    between atoms: C_14  and  C_15 
REMARK    7  A    between atoms: C_15  and  C_16 
REMARK       I    between atoms: C_16  and  N_17 
REMARK    8  A    between atoms: N_17  and  C_18 
REMARK    9  A    between atoms: C_26  and  C_27 
REMARK       I    between atoms: C_27  and  N_28 
ROOT
HETATM    1  C   UNL     1     -43.146  57.998 -53.664  1.00  0.00     0.103 C 
ENDROOT
BRANCH   1   2
HETATM    2  C   UNL     1     -43.420  58.856 -52.425  1.00  0.00     0.009 C 
BRANCH   2   3
HETATM    3  C   UNL     1     -43.601  60.341 -52.759  1.00  0.00     0.002 C 
BRANCH   3   4
HETATM    4  C   UNL     1     -42.497  60.853 -53.684  1.00  0.00     0.020 C 
BRANCH   4   5
HETATM    5  C   UNL     1     -43.027  61.687 -54.858  1.00  0.00     0.134 C 
BRANCH   5   6
HETATM    6  N   UNL     1     -43.579  60.818 -55.900  1.00  0.00    -0.298 N 
HETATM    7  C   UNL     1     -44.925  60.632 -56.140  1.00  0.00     0.148 C 
HETATM    8  S   UNL     1     -45.142  59.408 -57.385  1.00  0.00    -0.055 SA
HETATM    9  S   UNL     1     -46.222  61.387 -55.411  1.00  0.00    -0.052 SA
HETATM   10  C   UNL     1     -43.465  59.055 -57.458  1.00  0.00     0.076 C 
HETATM   11  C   UNL     1     -42.837  58.052 -58.088  1.00  0.00     0.036 C 
HETATM   12  C   UNL     1     -42.706  60.026 -56.627  1.00  0.00     0.266 C 
HETATM   13  O   UNL     1     -41.485  60.071 -56.579  1.00  0.00    -0.266 OA
BRANCH  11  14
HETATM   14  C   UNL     1     -43.419  56.952 -58.870  1.00  0.00    -0.035 A 
HETATM   15  C   UNL     1     -43.350  55.652 -58.352  1.00  0.00     0.011 A 
HETATM   16  C   UNL     1     -43.956  54.586 -59.022  1.00  0.00     0.001 A 
HETATM   17  C   UNL     1     -44.641  54.809 -60.214  1.00  0.00     0.000 A 
HETATM   18  C   UNL     1     -44.730  56.100 -60.731  1.00  0.00     0.001 A 
HETATM   19  C   UNL     1     -44.133  57.167 -60.056  1.00  0.00     0.011 A 
ENDBRANCH  11  14
ENDBRANCH   5   6
ENDBRANCH   4   5
ENDBRANCH   3   4
ENDBRANCH   2   3
ENDBRANCH   1   2
BRANCH   1  20
HETATM   20  C   UNL     1     -44.261  57.026 -54.000  1.00  0.00     0.222 C 
HETATM   21  N   UNL     1     -44.089  55.674 -53.966  1.00  0.00    -0.320 N 
HETATM   22  H   UNL     1     -44.948  55.187 -54.227  1.00  0.00     0.169 HD
HETATM   23  O   UNL     1     -45.388  57.437 -54.302  1.00  0.00    -0.273 OA
BRANCH  21  24
HETATM   24  C   UNL     1     -43.022  54.838 -53.671  1.00  0.00     0.093 A 
HETATM   25  S   UNL     1     -42.073  54.114 -54.870  1.00  0.00    -0.075 SA
HETATM   26  C   UNL     1     -41.143  53.267 -53.744  1.00  0.00    -0.008 A 
HETATM   27  C   UNL     1     -41.494  53.551 -52.437  1.00  0.00    -0.026 A 
HETATM   28  C   UNL     1     -40.064  52.322 -54.178  1.00  0.00     0.047 C 
HETATM   29  C   UNL     1     -40.828  52.836 -51.291  1.00  0.00     0.041 C 
HETATM   30  C   UNL     1     -42.599  54.493 -52.387  1.00  0.00     0.072 A 
HETATM   31  C   UNL     1     -39.537  52.114 -51.715  1.00  0.00     0.005 C 
HETATM   32  C   UNL     1     -39.709  51.362 -53.038  1.00  0.00     0.005 C 
BRANCH  30  33
HETATM   33  C   UNL     1     -43.274  55.032 -51.204  1.00  0.00     0.252 C 
HETATM   34  N   UNL     1     -44.363  54.346 -50.754  1.00  0.00    -0.366 N 
HETATM   35  H   UNL     1     -44.484  53.375 -51.000  1.00  0.00     0.159 HD
HETATM   36  H   UNL     1     -44.708  54.636 -49.848  1.00  0.00     0.159 HD
HETATM   37  O   UNL     1     -42.855  55.999 -50.575  1.00  0.00    -0.268 OA
ENDBRANCH  30  33
ENDBRANCH  21  24
ENDBRANCH   1  20
TORSDOF 9
ENDMDL
MODEL 5
REMARK VINA RESULT:      -7.8      2.373      7.058
REMARK  9 active torsions:
REMARK  status: ('A' for Active; 'I' for Inactive)
REMARK    1  A    between atoms: C_4  and  C_5 
REMARK    2  A    between atoms: N_10  and  C_11 
REMARK    3  A    between atoms: C_11  and  C_12 
REMARK    4  A    between atoms: C_12  and  C_13 
REMARK    5  A    between atoms: C_13  and  C_14 
REMARK    6  A    between atoms: C_14  and  C_15 
REMARK    7  A    between atoms: C_15  and  C_16 
REMARK       I    between atoms: C_16  and  N_17 
REMARK    8  A    between atoms: N_17  and  C_18 
REMARK    9  A    between atoms: C_26  and  C_27 
REMARK       I    between atoms: C_27  and  N_28 
ROOT
HETATM    1  C   UNL     1     -44.027  61.321 -54.804  1.00  0.00     0.103 C 
ENDROOT
BRANCH   1   2
HETATM    2  C   UNL     1     -44.576  60.616 -53.560  1.00  0.00     0.009 C 
BRANCH   2   3
HETATM    3  C   UNL     1     -44.843  59.124 -53.792  1.00  0.00     0.002 C 
BRANCH   3   4
HETATM    4  C   UNL     1     -43.627  58.416 -54.389  1.00  0.00     0.020 C 
BRANCH   4   5
HETATM    5  C   UNL     1     -42.558  58.063 -53.347  1.00  0.00     0.134 C 
BRANCH   5   6
HETATM    6  N   UNL     1     -42.463  56.612 -53.177  1.00  0.00    -0.298 N 
HETATM    7  C   UNL     1     -43.094  55.891 -52.184  1.00  0.00     0.148 C 
HETATM    8  S   UNL     1     -42.599  54.205 -52.268  1.00  0.00    -0.055 SA
HETATM    9  S   UNL     1     -44.164  56.439 -51.027  1.00  0.00    -0.052 SA
HETATM   10  C   UNL     1     -41.456  54.507 -53.510  1.00  0.00     0.076 C 
HETATM   11  C   UNL     1     -40.512  53.697 -54.008  1.00  0.00     0.036 C 
HETATM   12  C   UNL     1     -41.586  55.910 -53.987  1.00  0.00     0.266 C 
HETATM   13  O   UNL     1     -40.964  56.365 -54.937  1.00  0.00    -0.266 OA
BRANCH  11  14
HETATM   14  C   UNL     1     -40.172  52.326 -53.603  1.00  0.00    -0.035 A 
HETATM   15  C   UNL     1     -39.762  52.099 -52.282  1.00  0.00     0.011 A 
HETATM   16  C   UNL     1     -39.502  50.804 -51.829  1.00  0.00     0.001 A 
HETATM   17  C   UNL     1     -39.653  49.720 -52.691  1.00  0.00     0.000 A 
HETATM   18  C   UNL     1     -40.076  49.931 -54.002  1.00  0.00     0.001 A 
HETATM   19  C   UNL     1     -40.345  51.225 -54.451  1.00  0.00     0.011 A 
ENDBRANCH  11  14
ENDBRANCH   5   6
ENDBRANCH   4   5
ENDBRANCH   3   4
ENDBRANCH   2   3
ENDBRANCH   1   2
BRANCH   1  20
HETATM   20  C   UNL     1     -45.087  61.685 -55.825  1.00  0.00     0.222 C 
HETATM   21  N   UNL     1     -45.240  61.004 -56.997  1.00  0.00    -0.320 N 
HETATM   22  H   UNL     1     -45.999  61.398 -57.554  1.00  0.00     0.169 HD
HETATM   23  O   UNL     1     -45.874  62.616 -55.615  1.00  0.00    -0.273 OA
BRANCH  21  24
HETATM   24  C   UNL     1     -44.595  59.927 -57.584  1.00  0.00     0.093 A 
HETATM   25  S   UNL     1     -42.975  59.989 -58.071  1.00  0.00    -0.075 SA
HETATM   26  C   UNL     1     -43.017  58.426 -58.709  1.00  0.00    -0.008 A 
HETATM   27  C   UNL     1     -44.238  57.804 -58.524  1.00  0.00    -0.026 A 
HETATM   28  C   UNL     1     -41.823  57.832 -59.392  1.00  0.00     0.047 C 
HETATM   29  C   UNL     1     -44.494  56.432 -59.091  1.00  0.00     0.041 C 
HETATM   30  C   UNL     1     -45.173  58.684 -57.844  1.00  0.00     0.072 A 
HETATM   31  C   UNL     1     -43.199  55.715 -59.509  1.00  0.00     0.005 C 
HETATM   32  C   UNL     1     -42.246  56.646 -60.266  1.00  0.00     0.005 C 
BRANCH  30  33
HETATM   33  C   UNL     1     -46.566  58.413 -57.479  1.00  0.00     0.252 C 
HETATM   34  N   UNL     1     -46.770  57.558 -56.436  1.00  0.00    -0.366 N 
HETATM   35  H   UNL     1     -46.036  57.402 -55.761  1.00  0.00     0.159 HD
HETATM   36  H   UNL     1     -47.722  57.518 -56.096  1.00  0.00     0.159 HD
HETATM   37  O   UNL     1     -47.520  58.976 -58.007  1.00  0.00    -0.268 OA
ENDBRANCH  30  33
ENDBRANCH  21  24
ENDBRANCH   1  20
TORSDOF 9
ENDMDL
MODEL 6
REMARK VINA RESULT:      -7.7      2.050      7.295
REMARK  9 active torsions:
REMARK  status: ('A' for Active; 'I' for Inactive)
REMARK    1  A    between atoms: C_4  and  C_5 
REMARK    2  A    between atoms: N_10  and  C_11 
REMARK    3  A    between atoms: C_11  and  C_12 
REMARK    4  A    between atoms: C_12  and  C_13 
REMARK    5  A    between atoms: C_13  and  C_14 
REMARK    6  A    between atoms: C_14  and  C_15 
REMARK    7  A    between atoms: C_15  and  C_16 
REMARK       I    between atoms: C_16  and  N_17 
REMARK    8  A    between atoms: N_17  and  C_18 
REMARK    9  A    between atoms: C_26  and  C_27 
REMARK       I    between atoms: C_27  and  N_28 
ROOT
HETATM    1  C   UNL     1     -43.093  57.818 -54.573  1.00  0.00     0.103 C 
ENDROOT
BRANCH   1   2
HETATM    2  C   UNL     1     -44.549  58.191 -54.277  1.00  0.00     0.009 C 
BRANCH   2   3
HETATM    3  C   UNL     1     -44.675  59.436 -53.392  1.00  0.00     0.002 C 
BRANCH   3   4
HETATM    4  C   UNL     1     -45.441  59.141 -52.102  1.00  0.00     0.020 C 
BRANCH   4   5
HETATM    5  C   UNL     1     -44.553  59.155 -50.852  1.00  0.00     0.134 C 
BRANCH   5   6
HETATM    6  N   UNL     1     -43.485  58.161 -50.966  1.00  0.00    -0.298 N 
HETATM    7  C   UNL     1     -42.163  58.450 -51.235  1.00  0.00     0.148 C 
HETATM    8  S   UNL     1     -41.253  56.956 -51.419  1.00  0.00    -0.055 SA
HETATM    9  S   UNL     1     -41.442  59.946 -51.394  1.00  0.00    -0.052 SA
HETATM   10  C   UNL     1     -42.656  55.979 -51.291  1.00  0.00     0.076 C 
HETATM   11  C   UNL     1     -42.799  54.665 -51.518  1.00  0.00     0.036 C 
HETATM   12  C   UNL     1     -43.827  56.819 -50.924  1.00  0.00     0.266 C 
HETATM   13  O   UNL     1     -44.934  56.367 -50.667  1.00  0.00    -0.266 OA
BRANCH  11  14
HETATM   14  C   UNL     1     -41.790  53.699 -51.976  1.00  0.00    -0.035 A 
HETATM   15  C   UNL     1     -41.668  53.457 -53.351  1.00  0.00     0.011 A 
HETATM   16  C   UNL     1     -40.674  52.606 -53.838  1.00  0.00     0.001 A 
HETATM   17  C   UNL     1     -39.788  51.990 -52.957  1.00  0.00     0.000 A 
HETATM   18  C   UNL     1     -39.889  52.235 -51.589  1.00  0.00     0.001 A 
HETATM   19  C   UNL     1     -40.877  53.094 -51.102  1.00  0.00     0.011 A 
ENDBRANCH  11  14
ENDBRANCH   5   6
ENDBRANCH   4   5
ENDBRANCH   3   4
ENDBRANCH   2   3
ENDBRANCH   1   2
BRANCH   1  20
HETATM   20  C   UNL     1     -42.396  58.766 -55.530  1.00  0.00     0.222 C 
HETATM   21  N   UNL     1     -42.629  58.753 -56.873  1.00  0.00    -0.320 N 
HETATM   22  H   UNL     1     -42.065  59.458 -57.351  1.00  0.00     0.169 HD
HETATM   23  O   UNL     1     -41.594  59.610 -55.111  1.00  0.00    -0.273 OA
BRANCH  21  24
HETATM   24  C   UNL     1     -43.438  58.001 -57.710  1.00  0.00     0.093 A 
HETATM   25  S   UNL     1     -42.972  56.490 -58.312  1.00  0.00    -0.075 SA
HETATM   26  C   UNL     1     -44.377  56.327 -59.235  1.00  0.00    -0.008 A 
HETATM   27  C   UNL     1     -45.252  57.385 -59.069  1.00  0.00    -0.026 A 
HETATM   28  C   UNL     1     -44.595  55.137 -60.119  1.00  0.00     0.047 C 
HETATM   29  C   UNL     1     -46.529  57.457 -59.866  1.00  0.00     0.041 C 
HETATM   30  C   UNL     1     -44.707  58.374 -58.155  1.00  0.00     0.072 A 
HETATM   31  C   UNL     1     -46.890  56.115 -60.525  1.00  0.00     0.005 C 
HETATM   32  C   UNL     1     -45.671  55.443 -61.166  1.00  0.00     0.005 C 
BRANCH  30  33
HETATM   33  C   UNL     1     -45.309  59.641 -57.732  1.00  0.00     0.252 C 
HETATM   34  N   UNL     1     -46.413  59.558 -56.935  1.00  0.00    -0.366 N 
HETATM   35  H   UNL     1     -46.590  58.717 -56.405  1.00  0.00     0.159 HD
HETATM   36  H   UNL     1     -46.708  60.433 -56.520  1.00  0.00     0.159 HD
HETATM   37  O   UNL     1     -44.820  60.736 -57.990  1.00  0.00    -0.268 OA
ENDBRANCH  30  33
ENDBRANCH  21  24
ENDBRANCH   1  20
TORSDOF 9
ENDMDL
MODEL 7
REMARK VINA RESULT:      -7.7      2.394      8.102
REMARK  9 active torsions:
REMARK  status: ('A' for Active; 'I' for Inactive)
REMARK    1  A    between atoms: C_4  and  C_5 
REMARK    2  A    between atoms: N_10  and  C_11 
REMARK    3  A    between atoms: C_11  and  C_12 
REMARK    4  A    between atoms: C_12  and  C_13 
REMARK    5  A    between atoms: C_13  and  C_14 
REMARK    6  A    between atoms: C_14  and  C_15 
REMARK    7  A    between atoms: C_15  and  C_16 
REMARK       I    between atoms: C_16  and  N_17 
REMARK    8  A    between atoms: N_17  and  C_18 
REMARK    9  A    between atoms: C_26  and  C_27 
REMARK       I    between atoms: C_27  and  N_28 
ROOT
HETATM    1  C   UNL     1     -42.651  60.937 -56.724  1.00  0.00     0.103 C 
ENDROOT
BRANCH   1   2
HETATM    2  C   UNL     1     -42.248  60.057 -55.537  1.00  0.00     0.009 C 
BRANCH   2   3
HETATM    3  C   UNL     1     -43.420  59.752 -54.597  1.00  0.00     0.002 C 
BRANCH   3   4
HETATM    4  C   UNL     1     -43.474  58.272 -54.219  1.00  0.00     0.020 C 
BRANCH   4   5
HETATM    5  C   UNL     1     -42.496  57.895 -53.099  1.00  0.00     0.134 C 
BRANCH   5   6
HETATM    6  N   UNL     1     -42.400  56.441 -52.965  1.00  0.00    -0.298 N 
HETATM    7  C   UNL     1     -43.033  55.695 -51.992  1.00  0.00     0.148 C 
HETATM    8  S   UNL     1     -42.537  54.012 -52.118  1.00  0.00    -0.055 SA
HETATM    9  S   UNL     1     -44.108  56.212 -50.825  1.00  0.00    -0.052 SA
HETATM   10  C   UNL     1     -41.390  54.346 -53.348  1.00  0.00     0.076 C 
HETATM   11  C   UNL     1     -40.444  53.549 -53.864  1.00  0.00     0.036 C 
HETATM   12  C   UNL     1     -41.520  55.760 -53.790  1.00  0.00     0.266 C 
HETATM   13  O   UNL     1     -40.895  56.239 -54.726  1.00  0.00    -0.266 OA
BRANCH  11  14
HETATM   14  C   UNL     1     -40.104  52.169 -53.492  1.00  0.00    -0.035 A 
HETATM   15  C   UNL     1     -39.701  51.909 -52.175  1.00  0.00     0.011 A 
HETATM   16  C   UNL     1     -39.442  50.602 -51.754  1.00  0.00     0.001 A 
HETATM   17  C   UNL     1     -39.587  49.541 -52.645  1.00  0.00     0.000 A 
HETATM   18  C   UNL     1     -40.002  49.785 -53.952  1.00  0.00     0.001 A 
HETATM   19  C   UNL     1     -40.271  51.090 -54.369  1.00  0.00     0.011 A 
ENDBRANCH  11  14
ENDBRANCH   5   6
ENDBRANCH   4   5
ENDBRANCH   3   4
ENDBRANCH   2   3
ENDBRANCH   1   2
BRANCH   1  20
HETATM   20  C   UNL     1     -41.717  60.833 -57.914  1.00  0.00     0.222 C 
HETATM   21  N   UNL     1     -42.086  60.242 -59.086  1.00  0.00    -0.320 N 
HETATM   22  H   UNL     1     -41.324  60.264 -59.765  1.00  0.00     0.169 HD
HETATM   23  O   UNL     1     -40.576  61.309 -57.864  1.00  0.00    -0.273 OA
BRANCH  21  24
HETATM   24  C   UNL     1     -43.241  59.624 -59.538  1.00  0.00     0.093 A 
HETATM   25  S   UNL     1     -44.507  60.478 -60.267  1.00  0.00    -0.075 SA
HETATM   26  C   UNL     1     -45.468  59.097 -60.418  1.00  0.00    -0.008 A 
HETATM   27  C   UNL     1     -44.835  57.953 -59.968  1.00  0.00    -0.026 A 
HETATM   28  C   UNL     1     -46.851  59.169 -60.988  1.00  0.00     0.047 C 
HETATM   29  C   UNL     1     -45.559  56.631 -59.952  1.00  0.00     0.041 C 
HETATM   30  C   UNL     1     -43.508  58.256 -59.459  1.00  0.00     0.072 A 
HETATM   31  C   UNL     1     -46.838  56.648 -60.806  1.00  0.00     0.005 C 
HETATM   32  C   UNL     1     -47.655  57.927 -60.590  1.00  0.00     0.005 C 
BRANCH  30  33
HETATM   33  C   UNL     1     -42.530  57.332 -58.880  1.00  0.00     0.252 C 
HETATM   34  N   UNL     1     -41.904  56.483 -59.744  1.00  0.00    -0.366 N 
HETATM   35  H   UNL     1     -41.862  56.706 -60.728  1.00  0.00     0.159 HD
HETATM   36  H   UNL     1     -41.119  55.977 -59.354  1.00  0.00     0.159 HD
HETATM   37  O   UNL     1     -42.203  57.355 -57.698  1.00  0.00    -0.268 OA
ENDBRANCH  30  33
ENDBRANCH  21  24
ENDBRANCH   1  20
TORSDOF 9
ENDMDL
MODEL 8
REMARK VINA RESULT:      -7.4      3.881      9.150
REMARK  9 active torsions:
REMARK  status: ('A' for Active; 'I' for Inactive)
REMARK    1  A    between atoms: C_4  and  C_5 
REMARK    2  A    between atoms: N_10  and  C_11 
REMARK    3  A    between atoms: C_11  and  C_12 
REMARK    4  A    between atoms: C_12  and  C_13 
REMARK    5  A    between atoms: C_13  and  C_14 
REMARK    6  A    between atoms: C_14  and  C_15 
REMARK    7  A    between atoms: C_15  and  C_16 
REMARK       I    between atoms: C_16  and  N_17 
REMARK    8  A    between atoms: N_17  and  C_18 
REMARK    9  A    between atoms: C_26  and  C_27 
REMARK       I    between atoms: C_27  and  N_28 
ROOT
HETATM    1  C   UNL     1     -44.022  56.233 -60.709  1.00  0.00     0.103 C 
ENDROOT
BRANCH   1   2
HETATM    2  C   UNL     1     -42.802  56.505 -59.824  1.00  0.00     0.009 C 
BRANCH   2   3
HETATM    3  C   UNL     1     -42.734  57.957 -59.335  1.00  0.00     0.002 C 
BRANCH   3   4
HETATM    4  C   UNL     1     -42.049  58.065 -57.973  1.00  0.00     0.020 C 
BRANCH   4   5
HETATM    5  C   UNL     1     -43.036  58.133 -56.800  1.00  0.00     0.134 C 
BRANCH   5   6
HETATM    6  N   UNL     1     -42.580  57.293 -55.692  1.00  0.00    -0.298 N 
HETATM    7  C   UNL     1     -41.940  57.758 -54.562  1.00  0.00     0.148 C 
HETATM    8  S   UNL     1     -41.448  56.401 -53.557  1.00  0.00    -0.055 SA
HETATM    9  S   UNL     1     -41.620  59.337 -54.127  1.00  0.00    -0.052 SA
HETATM   10  C   UNL     1     -41.957  55.242 -54.714  1.00  0.00     0.076 C 
HETATM   11  C   UNL     1     -41.742  53.919 -54.740  1.00  0.00     0.036 C 
HETATM   12  C   UNL     1     -42.680  55.918 -55.823  1.00  0.00     0.266 C 
HETATM   13  O   UNL     1     -43.240  55.322 -56.733  1.00  0.00    -0.266 OA
BRANCH  11  14
HETATM   14  C   UNL     1     -40.977  53.095 -53.794  1.00  0.00    -0.035 A 
HETATM   15  C   UNL     1     -40.228  52.020 -54.293  1.00  0.00     0.011 A 
HETATM   16  C   UNL     1     -39.425  51.256 -53.443  1.00  0.00     0.001 A 
HETATM   17  C   UNL     1     -39.358  51.561 -52.086  1.00  0.00     0.000 A 
HETATM   18  C   UNL     1     -40.084  52.637 -51.580  1.00  0.00     0.001 A 
HETATM   19  C   UNL     1     -40.879  53.407 -52.432  1.00  0.00     0.011 A 
ENDBRANCH  11  14
ENDBRANCH   5   6
ENDBRANCH   4   5
ENDBRANCH   3   4
ENDBRANCH   2   3
ENDBRANCH   1   2
BRANCH   1  20
HETATM   20  C   UNL     1     -45.147  55.502 -60.000  1.00  0.00     0.222 C 
HETATM   21  N   UNL     1     -46.331  56.104 -59.692  1.00  0.00    -0.320 N 
HETATM   22  H   UNL     1     -46.959  55.456 -59.214  1.00  0.00     0.169 HD
HETATM   23  O   UNL     1     -45.030  54.310 -59.692  1.00  0.00    -0.273 OA
BRANCH  21  24
HETATM   24  C   UNL     1     -46.848  57.377 -59.873  1.00  0.00     0.093 A 
HETATM   25  S   UNL     1     -46.507  58.658 -58.822  1.00  0.00    -0.075 SA
HETATM   26  C   UNL     1     -47.521  59.724 -59.652  1.00  0.00    -0.008 A 
HETATM   27  C   UNL     1     -48.100  59.151 -60.769  1.00  0.00    -0.026 A 
HETATM   28  C   UNL     1     -47.729  61.129 -59.177  1.00  0.00     0.047 C 
HETATM   29  C   UNL     1     -49.095  59.922 -61.598  1.00  0.00     0.041 C 
HETATM   30  C   UNL     1     -47.694  57.764 -60.914  1.00  0.00     0.072 A 
HETATM   31  C   UNL     1     -49.071  61.430 -61.297  1.00  0.00     0.005 C 
HETATM   32  C   UNL     1     -49.003  61.715 -59.793  1.00  0.00     0.005 C 
BRANCH  30  33
HETATM   33  C   UNL     1     -48.096  56.808 -61.949  1.00  0.00     0.252 C 
HETATM   34  N   UNL     1     -49.411  56.814 -62.310  1.00  0.00    -0.366 N 
HETATM   35  H   UNL     1     -49.978  57.631 -62.135  1.00  0.00     0.159 HD
HETATM   36  H   UNL     1     -49.631  56.271 -63.136  1.00  0.00     0.159 HD
HETATM   37  O   UNL     1     -47.300  56.086 -62.541  1.00  0.00    -0.268 OA
ENDBRANCH  30  33
ENDBRANCH  21  24
ENDBRANCH   1  20
TORSDOF 9
ENDMDL
MODEL 9
REMARK VINA RESULT:      -7.4      5.369      9.075
REMARK  9 active torsions:
REMARK  status: ('A' for Active; 'I' for Inactive)
REMARK    1  A    between atoms: C_4  and  C_5 
REMARK    2  A    between atoms: N_10  and  C_11 
REMARK    3  A    between atoms: C_11  and  C_12 
REMARK    4  A    between atoms: C_12  and  C_13 
REMARK    5  A    between atoms: C_13  and  C_14 
REMARK    6  A    between atoms: C_14  and  C_15 
REMARK    7  A    between atoms: C_15  and  C_16 
REMARK       I    between atoms: C_16  and  N_17 
REMARK    8  A    between atoms: N_17  and  C_18 
REMARK    9  A    between atoms: C_26  and  C_27 
REMARK       I    between atoms: C_27  and  N_28 
ROOT
HETATM    1  C   UNL     1     -45.872  62.926 -49.223  1.00  0.00     0.103 C 
ENDROOT
BRANCH   1   2
HETATM    2  C   UNL     1     -45.949  62.296 -50.617  1.00  0.00     0.009 C 
BRANCH   2   3
HETATM    3  C   UNL     1     -45.518  60.824 -50.628  1.00  0.00     0.002 C 
BRANCH   3   4
HETATM    4  C   UNL     1     -44.383  60.573 -51.621  1.00  0.00     0.020 C 
BRANCH   4   5
HETATM    5  C   UNL     1     -44.681  59.437 -52.609  1.00  0.00     0.134 C 
BRANCH   5   6
HETATM    6  N   UNL     1     -43.558  58.499 -52.668  1.00  0.00    -0.298 N 
HETATM    7  C   UNL     1     -42.414  58.685 -53.416  1.00  0.00     0.148 C 
HETATM    8  S   UNL     1     -41.393  57.257 -53.303  1.00  0.00    -0.055 SA
HETATM    9  S   UNL     1     -41.976  60.012 -54.328  1.00  0.00    -0.052 SA
HETATM   10  C   UNL     1     -42.558  56.382 -52.400  1.00  0.00     0.076 C 
HETATM   11  C   UNL     1     -42.576  55.083 -52.071  1.00  0.00     0.036 C 
HETATM   12  C   UNL     1     -43.688  57.276 -52.031  1.00  0.00     0.266 C 
HETATM   13  O   UNL     1     -44.609  56.940 -51.300  1.00  0.00    -0.266 OA
BRANCH  11  14
HETATM   14  C   UNL     1     -41.608  54.034 -52.424  1.00  0.00    -0.035 A 
HETATM   15  C   UNL     1     -40.643  53.665 -51.477  1.00  0.00     0.011 A 
HETATM   16  C   UNL     1     -39.752  52.622 -51.737  1.00  0.00     0.001 A 
HETATM   17  C   UNL     1     -39.818  51.933 -52.946  1.00  0.00     0.000 A 
HETATM   18  C   UNL     1     -40.783  52.280 -53.889  1.00  0.00     0.001 A 
HETATM   19  C   UNL     1     -41.680  53.316 -53.625  1.00  0.00     0.011 A 
ENDBRANCH  11  14
ENDBRANCH   5   6
ENDBRANCH   4   5
ENDBRANCH   3   4
ENDBRANCH   2   3
ENDBRANCH   1   2
BRANCH   1  20
HETATM   20  C   UNL     1     -47.225  63.169 -48.581  1.00  0.00     0.222 C 
HETATM   21  N   UNL     1     -47.374  63.357 -47.238  1.00  0.00    -0.320 N 
HETATM   22  H   UNL     1     -48.356  63.500 -46.995  1.00  0.00     0.169 HD
HETATM   23  O   UNL     1     -48.250  63.226 -49.270  1.00  0.00    -0.273 OA
BRANCH  21  24
HETATM   24  C   UNL     1     -46.505  63.384 -46.159  1.00  0.00     0.093 A 
HETATM   25  S   UNL     1     -46.225  64.782 -45.249  1.00  0.00    -0.075 SA
HETATM   26  C   UNL     1     -45.070  64.023 -44.277  1.00  0.00    -0.008 A 
HETATM   27  C   UNL     1     -44.908  62.685 -44.585  1.00  0.00    -0.026 A 
HETATM   28  C   UNL     1     -44.336  64.775 -43.210  1.00  0.00     0.047 C 
HETATM   29  C   UNL     1     -43.868  61.856 -43.877  1.00  0.00     0.041 C 
HETATM   30  C   UNL     1     -45.766  62.296 -45.691  1.00  0.00     0.072 A 
HETATM   31  C   UNL     1     -43.344  62.532 -42.599  1.00  0.00     0.005 C 
HETATM   32  C   UNL     1     -43.061  64.023 -42.813  1.00  0.00     0.005 C 
BRANCH  30  33
HETATM   33  C   UNL     1     -45.879  60.982 -46.327  1.00  0.00     0.252 C 
HETATM   34  N   UNL     1     -44.719  60.402 -46.748  1.00  0.00    -0.366 N 
HETATM   35  H   UNL     1     -43.838  60.691 -46.349  1.00  0.00     0.159 HD
HETATM   36  H   UNL     1     -44.800  59.433 -47.028  1.00  0.00     0.159 HD
HETATM   37  O   UNL     1     -46.938  60.368 -46.414  1.00  0.00    -0.268 OA
ENDBRANCH  30  33
ENDBRANCH  21  24
ENDBRANCH   1  20
TORSDOF 9
ENDMDL
MODEL 10
REMARK VINA RESULT:      -7.4      3.425      5.050
REMARK  9 active torsions:
REMARK  status: ('A' for Active; 'I' for Inactive)
REMARK    1  A    between atoms: C_4  and  C_5 
REMARK    2  A    between atoms: N_10  and  C_11 
REMARK    3  A    between atoms: C_11  and  C_12 
REMARK    4  A    between atoms: C_12  and  C_13 
REMARK    5  A    between atoms: C_13  and  C_14 
REMARK    6  A    between atoms: C_14  and  C_15 
REMARK    7  A    between atoms: C_15  and  C_16 
REMARK       I    between atoms: C_16  and  N_17 
REMARK    8  A    between atoms: N_17  and  C_18 
REMARK    9  A    between atoms: C_26  and  C_27 
REMARK       I    between atoms: C_27  and  N_28 
ROOT
HETATM    1  C   UNL     1     -43.715  56.025 -52.373  1.00  0.00     0.103 C 
ENDROOT
BRANCH   1   2
HETATM    2  C   UNL     1     -44.120  55.787 -53.831  1.00  0.00     0.009 C 
BRANCH   2   3
HETATM    3  C   UNL     1     -44.486  57.082 -54.565  1.00  0.00     0.002 C 
BRANCH   3   4
HETATM    4  C   UNL     1     -43.653  57.271 -55.833  1.00  0.00     0.020 C 
BRANCH   4   5
HETATM    5  C   UNL     1     -44.501  57.559 -57.079  1.00  0.00     0.134 C 
BRANCH   5   6
HETATM    6  N   UNL     1     -43.707  58.255 -58.094  1.00  0.00    -0.298 N 
HETATM    7  C   UNL     1     -42.971  57.634 -59.081  1.00  0.00     0.148 C 
HETATM    8  S   UNL     1     -42.067  58.837 -59.993  1.00  0.00    -0.055 SA
HETATM    9  S   UNL     1     -42.873  56.006 -59.433  1.00  0.00    -0.052 SA
HETATM   10  C   UNL     1     -42.554  60.117 -58.962  1.00  0.00     0.076 C 
HETATM   11  C   UNL     1     -42.108  61.381 -58.910  1.00  0.00     0.036 C 
HETATM   12  C   UNL     1     -43.575  59.630 -57.997  1.00  0.00     0.266 C 
HETATM   13  O   UNL     1     -44.170  60.356 -57.213  1.00  0.00    -0.266 OA
BRANCH  11  14
HETATM   14  C   UNL     1     -41.048  62.013 -59.708  1.00  0.00    -0.035 A 
HETATM   15  C   UNL     1     -41.206  62.083 -61.099  1.00  0.00     0.011 A 
HETATM   16  C   UNL     1     -40.263  62.741 -61.890  1.00  0.00     0.001 A 
HETATM   17  C   UNL     1     -39.153  63.341 -61.300  1.00  0.00     0.000 A 
HETATM   18  C   UNL     1     -38.993  63.293 -59.917  1.00  0.00     0.001 A 
HETATM   19  C   UNL     1     -39.941  62.643 -59.124  1.00  0.00     0.011 A 
ENDBRANCH  11  14
ENDBRANCH   5   6
ENDBRANCH   4   5
ENDBRANCH   3   4
ENDBRANCH   2   3
ENDBRANCH   1   2
BRANCH   1  20
HETATM   20  C   UNL     1     -42.391  56.748 -52.212  1.00  0.00     0.222 C 
HETATM   21  N   UNL     1     -41.191  56.103 -52.284  1.00  0.00    -0.320 N 
HETATM   22  H   UNL     1     -40.416  56.754 -52.145  1.00  0.00     0.169 HD
HETATM   23  O   UNL     1     -42.357  57.970 -52.026  1.00  0.00    -0.273 OA
BRANCH  21  24
HETATM   24  C   UNL     1     -40.808  54.787 -52.488  1.00  0.00     0.093 A 
HETATM   25  S   UNL     1     -40.634  54.117 -54.032  1.00  0.00    -0.075 SA
HETATM   26  C   UNL     1     -40.264  52.587 -53.421  1.00  0.00    -0.008 A 
HETATM   27  C   UNL     1     -40.213  52.560 -52.039  1.00  0.00    -0.026 A 
HETATM   28  C   UNL     1     -40.025  51.422 -54.332  1.00  0.00     0.047 C 
HETATM   29  C   UNL     1     -39.970  51.266 -51.306  1.00  0.00     0.041 C 
HETATM   30  C   UNL     1     -40.521  53.865 -51.480  1.00  0.00     0.072 A 
HETATM   31  C   UNL     1     -39.429  50.159 -52.225  1.00  0.00     0.005 C 
HETATM   32  C   UNL     1     -40.176  50.106 -53.562  1.00  0.00     0.005 C 
BRANCH  30  33
HETATM   33  C   UNL     1     -40.589  54.249 -50.069  1.00  0.00     0.252 C 
HETATM   34  N   UNL     1     -39.414  54.250 -49.376  1.00  0.00    -0.366 N 
HETATM   35  H   UNL     1     -38.538  54.318 -49.871  1.00  0.00     0.159 HD
HETATM   36  H   UNL     1     -39.458  54.677 -48.459  1.00  0.00     0.159 HD
HETATM   37  O   UNL     1     -41.619  54.640 -49.529  1.00  0.00    -0.268 OA
ENDBRANCH  30  33
ENDBRANCH  21  24
ENDBRANCH   1  20
TORSDOF 9
ENDMDL
