MODEL 1
REMARK VINA RESULT:      -8.5      0.000      0.000
REMARK  3 active torsions:
REMARK  status: ('A' for Active; 'I' for Inactive)
REMARK    1  A    between atoms: C_4  and  N_5 
REMARK       I    between atoms: N_5  and  C_6 
REMARK    2  A    between atoms: C_6  and  C_7 
REMARK    3  A    between atoms: C_7  and  C_8 
ROOT
HETATM    1  C   UNL     1     -43.977  56.953 -52.962  1.00  0.00     0.286 C 
HETATM    2  N   UNL     1     -42.894  57.887 -53.549  1.00  0.00    -0.056 N 
HETATM    3  H   UNL     1     -42.671  57.610 -54.514  1.00  0.00     0.278 HD
HETATM    4  H   UNL     1     -43.301  58.831 -53.604  1.00  0.00     0.278 HD
HETATM    5  C   UNL     1     -41.654  57.926 -52.689  1.00  0.00     0.209 C 
HETATM    6  C   UNL     1     -42.047  58.392 -51.271  1.00  0.00     0.115 C 
HETATM    7  N   UNL     1     -43.119  57.586 -50.706  1.00  0.00    -0.353 N 
HETATM    8  C   UNL     1     -44.218  57.237 -51.460  1.00  0.00     0.249 C 
HETATM    9  O   UNL     1     -45.332  57.163 -50.954  1.00  0.00    -0.271 OA
HETATM   10  C   UNL     1     -40.621  58.861 -53.308  1.00  0.00     0.035 C 
HETATM   11  C   UNL     1     -39.379  58.935 -52.418  1.00  0.00     0.002 C 
HETATM   12  C   UNL     1     -39.720  59.315 -50.975  1.00  0.00     0.002 C 
HETATM   13  C   UNL     1     -40.809  58.422 -50.374  1.00  0.00     0.027 C 
HETATM   14  H   UNL     1     -43.378  57.760 -49.735  1.00  0.00     0.163 HD
ENDROOT
BRANCH   1  15
HETATM   15  C   UNL     1     -43.645  55.511 -53.358  1.00  0.00     0.146 C 
BRANCH  15  16
HETATM   16  C   UNL     1     -42.859  55.427 -54.645  1.00  0.00     0.224 C 
HETATM   17  N   UNL     1     -41.606  54.896 -54.669  1.00  0.00    -0.327 N 
HETATM   18  H   UNL     1     -41.094  55.145 -55.512  1.00  0.00     0.169 HD
HETATM   19  O   UNL     1     -43.338  55.900 -55.675  1.00  0.00    -0.273 OA
BRANCH  17  20
HETATM   20  C   UNL     1     -40.978  53.944 -53.845  1.00  0.00     0.035 A 
HETATM   21  C   UNL     1     -40.737  54.138 -52.481  1.00  0.00     0.036 A 
HETATM   22  C   UNL     1     -40.128  53.136 -51.712  1.00  0.00    -0.059 A 
HETATM   23  C   UNL     1     -39.890  53.328 -50.241  1.00  0.00     0.048 C 
HETATM   24  C   UNL     1     -39.800  51.917 -52.312  1.00  0.00     0.013 A 
HETATM   25  C   UNL     1     -40.078  51.687 -53.663  1.00  0.00    -0.059 A 
HETATM   26  C   UNL     1     -40.675  52.705 -54.420  1.00  0.00     0.036 A 
HETATM   27  C   UNL     1     -39.758  50.354 -54.275  1.00  0.00     0.048 C 
ENDBRANCH  17  20
ENDBRANCH  15  16
ENDBRANCH   1  15
TORSDOF 3
ENDMDL
MODEL 2
REMARK VINA RESULT:      -8.5     14.992     17.328
REMARK  3 active torsions:
REMARK  status: ('A' for Active; 'I' for Inactive)
REMARK    1  A    between atoms: C_4  and  N_5 
REMARK       I    between atoms: N_5  and  C_6 
REMARK    2  A    between atoms: C_6  and  C_7 
REMARK    3  A    between atoms: C_7  and  C_8 
ROOT
HETATM    1  C   UNL     1     -34.316  40.648 -54.977  1.00  0.00     0.286 C 
HETATM    2  N   UNL     1     -34.866  39.998 -53.687  1.00  0.00    -0.056 N 
HETATM    3  H   UNL     1     -35.860  40.233 -53.566  1.00  0.00     0.278 HD
HETATM    4  H   UNL     1     -34.822  38.977 -53.815  1.00  0.00     0.278 HD
HETATM    5  C   UNL     1     -34.060  40.383 -52.470  1.00  0.00     0.209 C 
HETATM    6  C   UNL     1     -32.591  39.963 -52.694  1.00  0.00     0.115 C 
HETATM    7  N   UNL     1     -32.053  40.492 -53.938  1.00  0.00    -0.353 N 
HETATM    8  C   UNL     1     -32.787  40.452 -55.104  1.00  0.00     0.249 C 
HETATM    9  O   UNL     1     -32.242  40.263 -56.186  1.00  0.00    -0.271 OA
HETATM   10  C   UNL     1     -34.639  39.714 -51.228  1.00  0.00     0.035 C 
HETATM   11  C   UNL     1     -33.799  40.070 -50.001  1.00  0.00     0.002 C 
HETATM   12  C   UNL     1     -32.316  39.748 -50.198  1.00  0.00     0.002 C 
HETATM   13  C   UNL     1     -31.748  40.360 -51.482  1.00  0.00     0.027 C 
HETATM   14  H   UNL     1     -31.060  40.345 -54.122  1.00  0.00     0.163 HD
ENDROOT
BRANCH   1  15
HETATM   15  C   UNL     1     -34.849  42.082 -55.066  1.00  0.00     0.146 C 
BRANCH  15  16
HETATM   16  C   UNL     1     -36.280  42.201 -54.598  1.00  0.00     0.224 C 
HETATM   17  N   UNL     1     -37.315  42.129 -55.478  1.00  0.00    -0.327 N 
HETATM   18  H   UNL     1     -38.183  42.491 -55.090  1.00  0.00     0.169 HD
HETATM   19  O   UNL     1     -36.508  42.426 -53.409  1.00  0.00    -0.273 OA
BRANCH  17  20
HETATM   20  C   UNL     1     -37.437  41.494 -56.728  1.00  0.00     0.035 A 
HETATM   21  C   UNL     1     -37.763  40.143 -56.883  1.00  0.00     0.036 A 
HETATM   22  C   UNL     1     -37.891  39.579 -58.160  1.00  0.00    -0.059 A 
HETATM   23  C   UNL     1     -38.267  38.136 -58.334  1.00  0.00     0.048 C 
HETATM   24  C   UNL     1     -37.732  40.393 -59.287  1.00  0.00     0.013 A 
HETATM   25  C   UNL     1     -37.453  41.756 -59.150  1.00  0.00    -0.059 A 
HETATM   26  C   UNL     1     -37.315  42.300 -57.866  1.00  0.00     0.036 A 
HETATM   27  C   UNL     1     -37.330  42.619 -60.373  1.00  0.00     0.048 C 
ENDBRANCH  17  20
ENDBRANCH  15  16
ENDBRANCH   1  15
TORSDOF 3
ENDMDL
MODEL 3
REMARK VINA RESULT:      -8.3      2.361      4.119
REMARK  3 active torsions:
REMARK  status: ('A' for Active; 'I' for Inactive)
REMARK    1  A    between atoms: C_4  and  N_5 
REMARK       I    between atoms: N_5  and  C_6 
REMARK    2  A    between atoms: C_6  and  C_7 
REMARK    3  A    between atoms: C_7  and  C_8 
ROOT
HETATM    1  C   UNL     1     -41.058  57.863 -50.499  1.00  0.00     0.286 C 
HETATM    2  N   UNL     1     -42.567  57.672 -50.774  1.00  0.00    -0.056 N 
HETATM    3  H   UNL     1     -42.915  56.837 -50.284  1.00  0.00     0.278 HD
HETATM    4  H   UNL     1     -43.058  58.478 -50.360  1.00  0.00     0.278 HD
HETATM    5  C   UNL     1     -42.871  57.607 -52.251  1.00  0.00     0.209 C 
HETATM    6  C   UNL     1     -42.368  58.905 -52.919  1.00  0.00     0.115 C 
HETATM    7  N   UNL     1     -40.966  59.166 -52.626  1.00  0.00    -0.353 N 
HETATM    8  C   UNL     1     -40.467  59.012 -51.350  1.00  0.00     0.249 C 
HETATM    9  O   UNL     1     -39.599  59.763 -50.919  1.00  0.00    -0.271 OA
HETATM   10  C   UNL     1     -44.368  57.423 -52.467  1.00  0.00     0.035 C 
HETATM   11  C   UNL     1     -44.683  57.398 -53.964  1.00  0.00     0.002 C 
HETATM   12  C   UNL     1     -44.136  58.626 -54.694  1.00  0.00     0.002 C 
HETATM   13  C   UNL     1     -42.646  58.856 -54.422  1.00  0.00     0.027 C 
HETATM   14  H   UNL     1     -40.523  59.951 -53.103  1.00  0.00     0.163 HD
ENDROOT
BRANCH   1  15
HETATM   15  C   UNL     1     -40.369  56.498 -50.590  1.00  0.00     0.146 C 
BRANCH  15  16
HETATM   16  C   UNL     1     -41.139  55.409 -49.881  1.00  0.00     0.224 C 
HETATM   17  N   UNL     1     -41.766  54.424 -50.580  1.00  0.00    -0.327 N 
HETATM   18  H   UNL     1     -42.457  53.929 -50.021  1.00  0.00     0.169 HD
HETATM   19  O   UNL     1     -41.247  55.448 -48.656  1.00  0.00    -0.273 OA
BRANCH  17  20
HETATM   20  C   UNL     1     -41.507  53.865 -51.845  1.00  0.00     0.035 A 
HETATM   21  C   UNL     1     -40.544  52.877 -52.074  1.00  0.00     0.036 A 
HETATM   22  C   UNL     1     -40.353  52.346 -53.357  1.00  0.00    -0.059 A 
HETATM   23  C   UNL     1     -39.339  51.266 -53.604  1.00  0.00     0.048 C 
HETATM   24  C   UNL     1     -41.169  52.782 -54.406  1.00  0.00     0.013 A 
HETATM   25  C   UNL     1     -42.169  53.734 -54.186  1.00  0.00    -0.059 A 
HETATM   26  C   UNL     1     -42.336  54.263 -52.899  1.00  0.00     0.036 A 
HETATM   27  C   UNL     1     -43.062  54.154 -55.318  1.00  0.00     0.048 C 
ENDBRANCH  17  20
ENDBRANCH  15  16
ENDBRANCH   1  15
TORSDOF 3
ENDMDL
MODEL 4
REMARK VINA RESULT:      -8.3      2.189      6.572
REMARK  3 active torsions:
REMARK  status: ('A' for Active; 'I' for Inactive)
REMARK    1  A    between atoms: C_4  and  N_5 
REMARK       I    between atoms: N_5  and  C_6 
REMARK    2  A    between atoms: C_6  and  C_7 
REMARK    3  A    between atoms: C_7  and  C_8 
ROOT
HETATM    1  C   UNL     1     -41.040  54.102 -51.652  1.00  0.00     0.286 C 
HETATM    2  N   UNL     1     -40.429  53.580 -52.973  1.00  0.00    -0.056 N 
HETATM    3  H   UNL     1     -40.903  54.011 -53.778  1.00  0.00     0.278 HD
HETATM    4  H   UNL     1     -39.451  53.900 -53.006  1.00  0.00     0.278 HD
HETATM    5  C   UNL     1     -40.466  52.073 -53.058  1.00  0.00     0.209 C 
HETATM    6  C   UNL     1     -39.701  51.489 -51.850  1.00  0.00     0.115 C 
HETATM    7  N   UNL     1     -40.194  52.012 -50.584  1.00  0.00    -0.353 N 
HETATM    8  C   UNL     1     -40.465  53.354 -50.426  1.00  0.00     0.249 C 
HETATM    9  O   UNL     1     -40.250  53.919 -49.360  1.00  0.00    -0.271 OA
HETATM   10  C   UNL     1     -39.850  51.611 -54.373  1.00  0.00     0.035 C 
HETATM   11  C   UNL     1     -39.849  50.083 -54.443  1.00  0.00     0.002 C 
HETATM   12  C   UNL     1     -39.172  49.446 -53.228  1.00  0.00     0.002 C 
HETATM   13  C   UNL     1     -39.740  49.962 -51.902  1.00  0.00     0.027 C 
HETATM   14  H   UNL     1     -39.812  51.610 -49.728  1.00  0.00     0.163 HD
ENDROOT
BRANCH   1  15
HETATM   15  C   UNL     1     -42.564  54.138 -51.800  1.00  0.00     0.146 C 
BRANCH  15  16
HETATM   16  C   UNL     1     -43.228  55.027 -50.775  1.00  0.00     0.224 C 
HETATM   17  N   UNL     1     -42.739  56.266 -50.499  1.00  0.00    -0.327 N 
HETATM   18  H   UNL     1     -43.097  56.639 -49.623  1.00  0.00     0.169 HD
HETATM   19  O   UNL     1     -44.192  54.599 -50.141  1.00  0.00    -0.273 OA
BRANCH  17  20
HETATM   20  C   UNL     1     -41.992  57.171 -51.275  1.00  0.00     0.035 A 
HETATM   21  C   UNL     1     -42.327  57.531 -52.584  1.00  0.00     0.036 A 
HETATM   22  C   UNL     1     -41.552  58.458 -53.294  1.00  0.00    -0.059 A 
HETATM   23  C   UNL     1     -41.922  58.868 -54.691  1.00  0.00     0.048 C 
HETATM   24  C   UNL     1     -40.457  59.058 -52.664  1.00  0.00     0.013 A 
HETATM   25  C   UNL     1     -40.135  58.747 -51.340  1.00  0.00    -0.059 A 
HETATM   26  C   UNL     1     -40.914  57.808 -50.650  1.00  0.00     0.036 A 
HETATM   27  C   UNL     1     -38.981  59.437 -50.670  1.00  0.00     0.048 C 
ENDBRANCH  17  20
ENDBRANCH  15  16
ENDBRANCH   1  15
TORSDOF 3
ENDMDL
MODEL 5
REMARK VINA RESULT:      -8.1      2.245      6.622
REMARK  3 active torsions:
REMARK  status: ('A' for Active; 'I' for Inactive)
REMARK    1  A    between atoms: C_4  and  N_5 
REMARK       I    between atoms: N_5  and  C_6 
REMARK    2  A    between atoms: C_6  and  C_7 
REMARK    3  A    between atoms: C_7  and  C_8 
ROOT
HETATM    1  C   UNL     1     -40.755  54.575 -51.546  1.00  0.00     0.286 C 
HETATM    2  N   UNL     1     -40.378  53.974 -52.920  1.00  0.00    -0.056 N 
HETATM    3  H   UNL     1     -40.920  54.427 -53.667  1.00  0.00     0.278 HD
HETATM    4  H   UNL     1     -39.390  54.206 -53.095  1.00  0.00     0.278 HD
HETATM    5  C   UNL     1     -40.552  52.475 -52.949  1.00  0.00     0.209 C 
HETATM    6  C   UNL     1     -39.680  51.851 -51.837  1.00  0.00     0.115 C 
HETATM    7  N   UNL     1     -39.948  52.442 -50.534  1.00  0.00    -0.353 N 
HETATM    8  C   UNL     1     -40.081  53.805 -50.386  1.00  0.00     0.249 C 
HETATM    9  O   UNL     1     -39.675  54.372 -49.377  1.00  0.00    -0.271 OA
HETATM   10  C   UNL     1     -40.165  51.932 -54.320  1.00  0.00     0.035 C 
HETATM   11  C   UNL     1     -40.301  50.409 -54.339  1.00  0.00     0.002 C 
HETATM   12  C   UNL     1     -39.519  49.741 -53.206  1.00  0.00     0.002 C 
HETATM   13  C   UNL     1     -39.854  50.332 -51.833  1.00  0.00     0.027 C 
HETATM   14  H   UNL     1     -39.487  52.026 -49.725  1.00  0.00     0.163 HD
ENDROOT
BRANCH   1  15
HETATM   15  C   UNL     1     -42.276  54.741 -51.488  1.00  0.00     0.146 C 
BRANCH  15  16
HETATM   16  C   UNL     1     -42.832  55.449 -52.701  1.00  0.00     0.224 C 
HETATM   17  N   UNL     1     -43.075  56.787 -52.684  1.00  0.00    -0.327 N 
HETATM   18  H   UNL     1     -43.688  57.082 -53.440  1.00  0.00     0.169 HD
HETATM   19  O   UNL     1     -43.124  54.791 -53.700  1.00  0.00    -0.273 OA
BRANCH  17  20
HETATM   20  C   UNL     1     -42.499  57.832 -51.937  1.00  0.00     0.035 A 
HETATM   21  C   UNL     1     -41.121  58.007 -51.783  1.00  0.00     0.036 A 
HETATM   22  C   UNL     1     -40.613  59.085 -51.044  1.00  0.00    -0.059 A 
HETATM   23  C   UNL     1     -39.133  59.293 -50.898  1.00  0.00     0.048 C 
HETATM   24  C   UNL     1     -41.500  60.015 -50.494  1.00  0.00     0.013 A 
HETATM   25  C   UNL     1     -42.880  59.883 -50.678  1.00  0.00    -0.059 A 
HETATM   26  C   UNL     1     -43.370  58.792 -51.409  1.00  0.00     0.036 A 
HETATM   27  C   UNL     1     -43.810  60.919 -50.116  1.00  0.00     0.048 C 
ENDBRANCH  17  20
ENDBRANCH  15  16
ENDBRANCH   1  15
TORSDOF 3
ENDMDL
MODEL 6
REMARK VINA RESULT:      -8.0      1.928      2.733
REMARK  3 active torsions:
REMARK  status: ('A' for Active; 'I' for Inactive)
REMARK    1  A    between atoms: C_4  and  N_5 
REMARK       I    between atoms: N_5  and  C_6 
REMARK    2  A    between atoms: C_6  and  C_7 
REMARK    3  A    between atoms: C_7  and  C_8 
ROOT
HETATM    1  C   UNL     1     -43.407  56.016 -52.729  1.00  0.00     0.286 C 
HETATM    2  N   UNL     1     -44.320  56.997 -53.500  1.00  0.00    -0.056 N 
HETATM    3  H   UNL     1     -43.960  57.143 -54.452  1.00  0.00     0.278 HD
HETATM    4  H   UNL     1     -45.239  56.545 -53.602  1.00  0.00     0.278 HD
HETATM    5  C   UNL     1     -44.486  58.308 -52.770  1.00  0.00     0.209 C 
HETATM    6  C   UNL     1     -45.071  58.027 -51.369  1.00  0.00     0.115 C 
HETATM    7  N   UNL     1     -44.284  57.048 -50.633  1.00  0.00    -0.353 N 
HETATM    8  C   UNL     1     -43.824  55.901 -51.243  1.00  0.00     0.249 C 
HETATM    9  O   UNL     1     -43.760  54.843 -50.628  1.00  0.00    -0.271 OA
HETATM   10  C   UNL     1     -45.394  59.237 -53.568  1.00  0.00     0.035 C 
HETATM   11  C   UNL     1     -45.597  60.550 -52.811  1.00  0.00     0.002 C 
HETATM   12  C   UNL     1     -46.101  60.327 -51.384  1.00  0.00     0.002 C 
HETATM   13  C   UNL     1     -45.230  59.339 -50.601  1.00  0.00     0.027 C 
HETATM   14  H   UNL     1     -44.541  56.872 -49.662  1.00  0.00     0.163 HD
ENDROOT
BRANCH   1  15
HETATM   15  C   UNL     1     -41.947  56.374 -53.021  1.00  0.00     0.146 C 
BRANCH  15  16
HETATM   16  C   UNL     1     -41.505  55.940 -54.399  1.00  0.00     0.224 C 
HETATM   17  N   UNL     1     -40.649  54.896 -54.565  1.00  0.00    -0.327 N 
HETATM   18  H   UNL     1     -40.226  54.883 -55.490  1.00  0.00     0.169 HD
HETATM   19  O   UNL     1     -41.882  56.580 -55.381  1.00  0.00    -0.273 OA
BRANCH  17  20
HETATM   20  C   UNL     1     -40.393  53.762 -53.772  1.00  0.00     0.035 A 
HETATM   21  C   UNL     1     -40.442  53.766 -52.375  1.00  0.00     0.036 A 
HETATM   22  C   UNL     1     -40.199  52.594 -51.645  1.00  0.00    -0.059 A 
HETATM   23  C   UNL     1     -40.277  52.585 -50.146  1.00  0.00     0.048 C 
HETATM   24  C   UNL     1     -39.946  51.401 -52.331  1.00  0.00     0.013 A 
HETATM   25  C   UNL     1     -39.940  51.369 -53.729  1.00  0.00    -0.059 A 
HETATM   26  C   UNL     1     -40.172  52.553 -54.441  1.00  0.00     0.036 A 
HETATM   27  C   UNL     1     -39.710  50.068 -54.444  1.00  0.00     0.048 C 
ENDBRANCH  17  20
ENDBRANCH  15  16
ENDBRANCH   1  15
TORSDOF 3
ENDMDL
MODEL 7
REMARK VINA RESULT:      -8.0      1.746      5.431
REMARK  3 active torsions:
REMARK  status: ('A' for Active; 'I' for Inactive)
REMARK    1  A    between atoms: C_4  and  N_5 
REMARK       I    between atoms: N_5  and  C_6 
REMARK    2  A    between atoms: C_6  and  C_7 
REMARK    3  A    between atoms: C_7  and  C_8 
ROOT
HETATM    1  C   UNL     1     -43.712  56.594 -55.331  1.00  0.00     0.286 C 
HETATM    2  N   UNL     1     -43.646  55.448 -54.294  1.00  0.00    -0.056 N 
HETATM    3  H   UNL     1     -44.058  55.752 -53.403  1.00  0.00     0.278 HD
HETATM    4  H   UNL     1     -44.240  54.683 -54.644  1.00  0.00     0.278 HD
HETATM    5  C   UNL     1     -42.238  54.939 -54.102  1.00  0.00     0.209 C 
HETATM    6  C   UNL     1     -41.694  54.456 -55.465  1.00  0.00     0.115 C 
HETATM    7  N   UNL     1     -41.806  55.480 -56.494  1.00  0.00    -0.353 N 
HETATM    8  C   UNL     1     -42.955  56.228 -56.630  1.00  0.00     0.249 C 
HETATM    9  O   UNL     1     -43.352  56.577 -57.736  1.00  0.00    -0.271 OA
HETATM   10  C   UNL     1     -42.228  53.811 -53.076  1.00  0.00     0.035 C 
HETATM   11  C   UNL     1     -40.809  53.266 -52.910  1.00  0.00     0.002 C 
HETATM   12  C   UNL     1     -40.188  52.846 -54.244  1.00  0.00     0.002 C 
HETATM   13  C   UNL     1     -40.260  53.952 -55.300  1.00  0.00     0.027 C 
HETATM   14  H   UNL     1     -41.384  55.283 -57.401  1.00  0.00     0.163 HD
ENDROOT
BRANCH   1  15
HETATM   15  C   UNL     1     -43.323  57.902 -54.637  1.00  0.00     0.146 C 
BRANCH  15  16
HETATM   16  C   UNL     1     -44.343  58.345 -53.614  1.00  0.00     0.224 C 
HETATM   17  N   UNL     1     -44.223  57.992 -52.306  1.00  0.00    -0.327 N 
HETATM   18  H   UNL     1     -45.090  58.113 -51.789  1.00  0.00     0.169 HD
HETATM   19  O   UNL     1     -45.326  58.986 -53.983  1.00  0.00    -0.273 OA
BRANCH  17  20
HETATM   20  C   UNL     1     -43.098  57.673 -51.523  1.00  0.00     0.035 A 
HETATM   21  C   UNL     1     -42.913  56.435 -50.900  1.00  0.00     0.036 A 
HETATM   22  C   UNL     1     -41.756  56.174 -50.153  1.00  0.00    -0.059 A 
HETATM   23  C   UNL     1     -41.540  54.837 -49.504  1.00  0.00     0.048 C 
HETATM   24  C   UNL     1     -40.760  57.152 -50.069  1.00  0.00     0.013 A 
HETATM   25  C   UNL     1     -40.907  58.378 -50.725  1.00  0.00    -0.059 A 
HETATM   26  C   UNL     1     -42.076  58.626 -51.457  1.00  0.00     0.036 A 
HETATM   27  C   UNL     1     -39.805  59.397 -50.658  1.00  0.00     0.048 C 
ENDBRANCH  17  20
ENDBRANCH  15  16
ENDBRANCH   1  15
TORSDOF 3
ENDMDL
MODEL 8
REMARK VINA RESULT:      -7.9      2.149      6.543
REMARK  3 active torsions:
REMARK  status: ('A' for Active; 'I' for Inactive)
REMARK    1  A    between atoms: C_4  and  N_5 
REMARK       I    between atoms: N_5  and  C_6 
REMARK    2  A    between atoms: C_6  and  C_7 
REMARK    3  A    between atoms: C_7  and  C_8 
ROOT
HETATM    1  C   UNL     1     -41.088  54.266 -51.968  1.00  0.00     0.286 C 
HETATM    2  N   UNL     1     -40.562  53.573 -53.246  1.00  0.00    -0.056 N 
HETATM    3  H   UNL     1     -41.106  53.877 -54.064  1.00  0.00     0.278 HD
HETATM    4  H   UNL     1     -39.598  53.903 -53.398  1.00  0.00     0.278 HD
HETATM    5  C   UNL     1     -40.561  52.069 -53.116  1.00  0.00     0.209 C 
HETATM    6  C   UNL     1     -39.693  51.676 -51.901  1.00  0.00     0.115 C 
HETATM    7  N   UNL     1     -40.105  52.364 -50.686  1.00  0.00    -0.353 N 
HETATM    8  C   UNL     1     -40.403  53.709 -50.697  1.00  0.00     0.249 C 
HETATM    9  O   UNL     1     -40.126  54.424 -49.740  1.00  0.00    -0.271 OA
HETATM   10  C   UNL     1     -40.031  51.436 -54.397  1.00  0.00     0.035 C 
HETATM   11  C   UNL     1     -39.991  49.914 -54.253  1.00  0.00     0.002 C 
HETATM   12  C   UNL     1     -39.208  49.468 -53.015  1.00  0.00     0.002 C 
HETATM   13  C   UNL     1     -39.691  50.156 -51.735  1.00  0.00     0.027 C 
HETATM   14  H   UNL     1     -39.650  52.094 -49.814  1.00  0.00     0.163 HD
ENDROOT
BRANCH   1  15
HETATM   15  C   UNL     1     -42.620  54.253 -52.001  1.00  0.00     0.146 C 
BRANCH  15  16
HETATM   16  C   UNL     1     -43.178  54.756 -53.312  1.00  0.00     0.224 C 
HETATM   17  N   UNL     1     -43.809  55.959 -53.390  1.00  0.00    -0.327 N 
HETATM   18  H   UNL     1     -44.365  56.052 -54.237  1.00  0.00     0.169 HD
HETATM   19  O   UNL     1     -43.112  54.038 -54.309  1.00  0.00    -0.273 OA
BRANCH  17  20
HETATM   20  C   UNL     1     -43.686  57.131 -52.621  1.00  0.00     0.035 A 
HETATM   21  C   UNL     1     -44.742  57.703 -51.907  1.00  0.00     0.036 A 
HETATM   22  C   UNL     1     -44.545  58.860 -51.139  1.00  0.00    -0.059 A 
HETATM   23  C   UNL     1     -45.669  59.465 -50.349  1.00  0.00     0.048 C 
HETATM   24  C   UNL     1     -43.265  59.417 -51.059  1.00  0.00     0.013 A 
HETATM   25  C   UNL     1     -42.186  58.831 -51.728  1.00  0.00    -0.059 A 
HETATM   26  C   UNL     1     -42.405  57.682 -52.500  1.00  0.00     0.036 A 
HETATM   27  C   UNL     1     -40.812  59.421 -51.591  1.00  0.00     0.048 C 
ENDBRANCH  17  20
ENDBRANCH  15  16
ENDBRANCH   1  15
TORSDOF 3
ENDMDL
MODEL 9
REMARK VINA RESULT:      -7.9      2.302      4.606
REMARK  3 active torsions:
REMARK  status: ('A' for Active; 'I' for Inactive)
REMARK    1  A    between atoms: C_4  and  N_5 
REMARK       I    between atoms: N_5  and  C_6 
REMARK    2  A    between atoms: C_6  and  C_7 
REMARK    3  A    between atoms: C_7  and  C_8 
ROOT
HETATM    1  C   UNL     1     -42.920  58.454 -54.061  1.00  0.00     0.286 C 
HETATM    2  N   UNL     1     -43.359  57.201 -54.854  1.00  0.00    -0.056 N 
HETATM    3  H   UNL     1     -44.384  57.127 -54.862  1.00  0.00     0.278 HD
HETATM    4  H   UNL     1     -43.069  57.340 -55.832  1.00  0.00     0.278 HD
HETATM    5  C   UNL     1     -42.723  55.941 -54.318  1.00  0.00     0.209 C 
HETATM    6  C   UNL     1     -41.187  56.096 -54.375  1.00  0.00     0.115 C 
HETATM    7  N   UNL     1     -40.733  57.306 -53.704  1.00  0.00    -0.353 N 
HETATM    8  C   UNL     1     -41.383  58.507 -53.888  1.00  0.00     0.249 C 
HETATM    9  O   UNL     1     -40.760  59.563 -53.918  1.00  0.00    -0.271 OA
HETATM   10  C   UNL     1     -43.183  54.738 -55.133  1.00  0.00     0.035 C 
HETATM   11  C   UNL     1     -42.509  53.466 -54.619  1.00  0.00     0.002 C 
HETATM   12  C   UNL     1     -40.984  53.592 -54.577  1.00  0.00     0.002 C 
HETATM   13  C   UNL     1     -40.519  54.839 -53.819  1.00  0.00     0.027 C 
HETATM   14  H   UNL     1     -39.727  57.442 -53.609  1.00  0.00     0.163 HD
ENDROOT
BRANCH   1  15
HETATM   15  C   UNL     1     -43.772  58.552 -52.792  1.00  0.00     0.146 C 
BRANCH  15  16
HETATM   16  C   UNL     1     -42.998  59.088 -51.611  1.00  0.00     0.224 C 
HETATM   17  N   UNL     1     -42.594  58.266 -50.605  1.00  0.00    -0.327 N 
HETATM   18  H   UNL     1     -42.336  58.777 -49.764  1.00  0.00     0.169 HD
HETATM   19  O   UNL     1     -42.783  60.297 -51.531  1.00  0.00    -0.273 OA
BRANCH  17  20
HETATM   20  C   UNL     1     -42.304  56.889 -50.583  1.00  0.00     0.035 A 
HETATM   21  C   UNL     1     -41.061  56.364 -50.218  1.00  0.00     0.036 A 
HETATM   22  C   UNL     1     -40.846  54.979 -50.195  1.00  0.00    -0.059 A 
HETATM   23  C   UNL     1     -39.521  54.408 -49.778  1.00  0.00     0.048 C 
HETATM   24  C   UNL     1     -41.905  54.117 -50.499  1.00  0.00     0.013 A 
HETATM   25  C   UNL     1     -43.169  54.623 -50.819  1.00  0.00    -0.059 A 
HETATM   26  C   UNL     1     -43.361  56.011 -50.850  1.00  0.00     0.036 A 
HETATM   27  C   UNL     1     -44.302  53.678 -51.098  1.00  0.00     0.048 C 
ENDBRANCH  17  20
ENDBRANCH  15  16
ENDBRANCH   1  15
TORSDOF 3
ENDMDL
MODEL 10
REMARK VINA RESULT:      -7.8      2.427      3.623
REMARK  3 active torsions:
REMARK  status: ('A' for Active; 'I' for Inactive)
REMARK    1  A    between atoms: C_4  and  N_5 
REMARK       I    between atoms: N_5  and  C_6 
REMARK    2  A    between atoms: C_6  and  C_7 
REMARK    3  A    between atoms: C_7  and  C_8 
ROOT
HETATM    1  C   UNL     1     -43.702  56.059 -53.856  1.00  0.00     0.286 C 
HETATM    2  N   UNL     1     -44.966  56.712 -54.461  1.00  0.00    -0.056 N 
HETATM    3  H   UNL     1     -45.674  55.994 -54.663  1.00  0.00     0.278 HD
HETATM    4  H   UNL     1     -45.370  57.325 -53.739  1.00  0.00     0.278 HD
HETATM    5  C   UNL     1     -44.649  57.530 -55.689  1.00  0.00     0.209 C 
HETATM    6  C   UNL     1     -43.618  58.616 -55.311  1.00  0.00     0.115 C 
HETATM    7  N   UNL     1     -42.440  58.053 -54.668  1.00  0.00    -0.353 N 
HETATM    8  C   UNL     1     -42.556  57.086 -53.693  1.00  0.00     0.249 C 
HETATM    9  O   UNL     1     -41.784  57.054 -52.741  1.00  0.00    -0.271 OA
HETATM   10  C   UNL     1     -45.924  58.154 -56.244  1.00  0.00     0.035 C 
HETATM   11  C   UNL     1     -45.600  59.016 -57.464  1.00  0.00     0.002 C 
HETATM   12  C   UNL     1     -44.522  60.061 -57.168  1.00  0.00     0.002 C 
HETATM   13  C   UNL     1     -43.265  59.447 -56.544  1.00  0.00     0.027 C 
HETATM   14  H   UNL     1     -41.664  58.685 -54.470  1.00  0.00     0.163 HD
ENDROOT
BRANCH   1  15
HETATM   15  C   UNL     1     -43.391  54.780 -54.639  1.00  0.00     0.146 C 
BRANCH  15  16
HETATM   16  C   UNL     1     -42.170  54.917 -55.518  1.00  0.00     0.224 C 
HETATM   17  N   UNL     1     -40.939  54.549 -55.071  1.00  0.00    -0.327 N 
HETATM   18  H   UNL     1     -40.188  54.938 -55.636  1.00  0.00     0.169 HD
HETATM   19  O   UNL     1     -42.286  55.424 -56.634  1.00  0.00    -0.273 OA
BRANCH  17  20
HETATM   20  C   UNL     1     -40.538  53.607 -54.106  1.00  0.00     0.035 A 
HETATM   21  C   UNL     1     -40.508  53.868 -52.733  1.00  0.00     0.036 A 
HETATM   22  C   UNL     1     -40.120  52.874 -51.823  1.00  0.00    -0.059 A 
HETATM   23  C   UNL     1     -40.112  53.140 -50.345  1.00  0.00     0.048 C 
HETATM   24  C   UNL     1     -39.802  51.598 -52.298  1.00  0.00     0.013 A 
HETATM   25  C   UNL     1     -39.872  51.305 -53.663  1.00  0.00    -0.059 A 
HETATM   26  C   UNL     1     -40.249  52.314 -54.560  1.00  0.00     0.036 A 
HETATM   27  C   UNL     1     -39.569  49.915 -54.145  1.00  0.00     0.048 C 
ENDBRANCH  17  20
ENDBRANCH  15  16
ENDBRANCH   1  15
TORSDOF 3
ENDMDL
