MODEL 1
REMARK VINA RESULT:      -8.3      0.000      0.000
REMARK  8 active torsions:
REMARK  status: ('A' for Active; 'I' for Inactive)
REMARK    1  A    between atoms: O_2  and  C_3 
REMARK    2  A    between atoms: C_5  and  N_6 
REMARK       I    between atoms: N_6  and  C_7 
REMARK    3  A    between atoms: C_7  and  C_8 
REMARK       I    between atoms: C_8  and  N_9 
REMARK    4  A    between atoms: N_9  and  C_10 
REMARK    5  A    between atoms: C_10  and  C_11 
REMARK    6  A    between atoms: C_11  and  S_12 
REMARK    7  A    between atoms: S_12  and  C_13 
REMARK    8  A    between atoms: C_26  and  O_27 
ROOT
HETATM    1  C   UNL     1     -43.423  57.249 -53.819  1.00  0.00     0.309 C 
HETATM    2  N   UNL     1     -42.135  56.796 -53.627  1.00  0.00    -0.351 N 
HETATM    3  O   UNL     1     -44.231  57.521 -52.943  1.00  0.00    -0.262 OA
HETATM    4  H   UNL     1     -41.653  56.506 -54.474  1.00  0.00     0.162 HD
ENDROOT
BRANCH   1   5
HETATM    5  C   UNL     1     -43.820  57.376 -55.307  1.00  0.00     0.314 C 
HETATM    6  N   UNL     1     -42.728  57.317 -56.139  1.00  0.00    -0.316 N 
HETATM    7  H   UNL     1     -41.829  57.164 -55.681  1.00  0.00     0.169 HD
HETATM    8  O   UNL     1     -45.004  57.508 -55.588  1.00  0.00    -0.262 OA
BRANCH   6   9
HETATM    9  C   UNL     1     -42.676  57.432 -57.542  1.00  0.00     0.071 A 
HETATM   10  C   UNL     1     -43.188  56.462 -58.411  1.00  0.00     0.069 A 
HETATM   11  C   UNL     1     -43.119  56.653 -59.793  1.00  0.00     0.070 A 
HETATM   12  C   UNL     1     -42.511  57.802 -60.300  1.00  0.00     0.039 A 
HETATM   13  C   UNL     1     -41.998  58.778 -59.443  1.00  0.00     0.042 A 
HETATM   14  C   UNL     1     -42.085  58.604 -58.062  1.00  0.00     0.095 A 
BRANCH  11  15
HETATM   15  O   UNL     1     -43.596  55.794 -60.745  1.00  0.00    -0.356 OA
HETATM   16  C   UNL     1     -44.653  54.927 -60.347  1.00  0.00     0.210 C 
ENDBRANCH  11  15
BRANCH  14  17
HETATM   17  O   UNL     1     -41.626  59.499 -57.124  1.00  0.00    -0.354 OA
HETATM   18  C   UNL     1     -42.190  60.805 -57.143  1.00  0.00     0.210 C 
ENDBRANCH  14  17
ENDBRANCH   6   9
ENDBRANCH   1   5
BRANCH   2  19
HETATM   19  C   UNL     1     -41.657  56.387 -52.319  1.00  0.00     0.144 C 
BRANCH  19  20
HETATM   20  C   UNL     1     -41.455  54.849 -52.122  1.00  0.00     0.033 C 
HETATM   21  C   UNL     1     -40.612  54.620 -50.849  1.00  0.00     0.049 C 
HETATM   22  C   UNL     1     -41.406  54.938 -49.583  1.00  0.00     0.169 C 
HETATM   23  O   UNL     1     -42.625  54.200 -49.547  1.00  0.00    -0.391 OA
HETATM   24  C   UNL     1     -43.482  54.476 -50.652  1.00  0.00     0.169 C 
HETATM   25  C   UNL     1     -42.799  54.110 -51.966  1.00  0.00     0.049 C 
BRANCH  20  26
HETATM   26  S   UNL     1     -40.548  54.267 -53.658  1.00  0.00    -0.118 SA
BRANCH  26  27
HETATM   27  C   UNL     1     -40.263  52.535 -53.355  1.00  0.00     0.001 A 
HETATM   28  C   UNL     1     -40.449  51.598 -54.374  1.00  0.00     0.018 A 
HETATM   29  C   UNL     1     -40.195  50.244 -54.144  1.00  0.00     0.001 A 
HETATM   30  C   UNL     1     -39.734  49.823 -52.898  1.00  0.00     0.000 A 
HETATM   31  C   UNL     1     -39.517  50.755 -51.886  1.00  0.00     0.001 A 
HETATM   32  C   UNL     1     -39.770  52.110 -52.117  1.00  0.00     0.018 A 
ENDBRANCH  26  27
ENDBRANCH  20  26
ENDBRANCH  19  20
ENDBRANCH   2  19
TORSDOF 8
ENDMDL
MODEL 2
REMARK VINA RESULT:      -8.0      1.689      3.158
REMARK  8 active torsions:
REMARK  status: ('A' for Active; 'I' for Inactive)
REMARK    1  A    between atoms: O_2  and  C_3 
REMARK    2  A    between atoms: C_5  and  N_6 
REMARK       I    between atoms: N_6  and  C_7 
REMARK    3  A    between atoms: C_7  and  C_8 
REMARK       I    between atoms: C_8  and  N_9 
REMARK    4  A    between atoms: N_9  and  C_10 
REMARK    5  A    between atoms: C_10  and  C_11 
REMARK    6  A    between atoms: C_11  and  S_12 
REMARK    7  A    between atoms: S_12  and  C_13 
REMARK    8  A    between atoms: C_26  and  O_27 
ROOT
HETATM    1  C   UNL     1     -43.032  55.648 -55.880  1.00  0.00     0.309 C 
HETATM    2  N   UNL     1     -43.724  55.637 -54.688  1.00  0.00    -0.351 N 
HETATM    3  O   UNL     1     -42.257  54.788 -56.274  1.00  0.00    -0.262 OA
HETATM    4  H   UNL     1     -44.226  56.496 -54.477  1.00  0.00     0.162 HD
ENDROOT
BRANCH   1   5
HETATM    5  C   UNL     1     -43.290  56.909 -56.735  1.00  0.00     0.314 C 
HETATM    6  N   UNL     1     -42.280  57.134 -57.639  1.00  0.00    -0.316 N 
HETATM    7  H   UNL     1     -41.533  56.439 -57.652  1.00  0.00     0.169 HD
HETATM    8  O   UNL     1     -44.312  57.551 -56.538  1.00  0.00    -0.262 OA
BRANCH   6   9
HETATM    9  C   UNL     1     -42.133  58.191 -58.559  1.00  0.00     0.071 A 
HETATM   10  C   UNL     1     -41.872  59.511 -58.174  1.00  0.00     0.069 A 
HETATM   11  C   UNL     1     -41.718  60.506 -59.142  1.00  0.00     0.070 A 
HETATM   12  C   UNL     1     -41.857  60.181 -60.492  1.00  0.00     0.039 A 
HETATM   13  C   UNL     1     -42.116  58.867 -60.888  1.00  0.00     0.042 A 
HETATM   14  C   UNL     1     -42.247  57.864 -59.927  1.00  0.00     0.095 A 
BRANCH  11  15
HETATM   15  O   UNL     1     -41.444  61.825 -58.899  1.00  0.00    -0.356 OA
HETATM   16  C   UNL     1     -42.357  62.773 -59.439  1.00  0.00     0.210 C 
ENDBRANCH  11  15
BRANCH  14  17
HETATM   17  O   UNL     1     -42.491  56.539 -60.199  1.00  0.00    -0.354 OA
HETATM   18  C   UNL     1     -43.846  56.159 -60.411  1.00  0.00     0.210 C 
ENDBRANCH  14  17
ENDBRANCH   6   9
ENDBRANCH   1   5
BRANCH   2  19
HETATM   19  C   UNL     1     -43.439  54.666 -53.648  1.00  0.00     0.144 C 
BRANCH  19  20
HETATM   20  C   UNL     1     -42.575  55.187 -52.453  1.00  0.00     0.033 C 
HETATM   21  C   UNL     1     -43.001  56.636 -52.130  1.00  0.00     0.049 C 
HETATM   22  C   UNL     1     -44.386  56.686 -51.486  1.00  0.00     0.169 C 
HETATM   23  O   UNL     1     -44.442  55.852 -50.332  1.00  0.00    -0.391 OA
HETATM   24  C   UNL     1     -44.168  54.482 -50.616  1.00  0.00     0.169 C 
HETATM   25  C   UNL     1     -42.764  54.323 -51.190  1.00  0.00     0.049 C 
BRANCH  20  26
HETATM   26  S   UNL     1     -40.800  55.113 -53.053  1.00  0.00    -0.118 SA
BRANCH  26  27
HETATM   27  C   UNL     1     -40.423  53.372 -53.062  1.00  0.00     0.001 A 
HETATM   28  C   UNL     1     -40.602  52.615 -54.223  1.00  0.00     0.018 A 
HETATM   29  C   UNL     1     -40.277  51.257 -54.237  1.00  0.00     0.001 A 
HETATM   30  C   UNL     1     -39.753  50.653 -53.095  1.00  0.00     0.000 A 
HETATM   31  C   UNL     1     -39.543  51.408 -51.944  1.00  0.00     0.001 A 
HETATM   32  C   UNL     1     -39.867  52.767 -51.930  1.00  0.00     0.018 A 
ENDBRANCH  26  27
ENDBRANCH  20  26
ENDBRANCH  19  20
ENDBRANCH   2  19
TORSDOF 8
ENDMDL
MODEL 3
REMARK VINA RESULT:      -7.9      1.826      2.638
REMARK  8 active torsions:
REMARK  status: ('A' for Active; 'I' for Inactive)
REMARK    1  A    between atoms: O_2  and  C_3 
REMARK    2  A    between atoms: C_5  and  N_6 
REMARK       I    between atoms: N_6  and  C_7 
REMARK    3  A    between atoms: C_7  and  C_8 
REMARK       I    between atoms: C_8  and  N_9 
REMARK    4  A    between atoms: N_9  and  C_10 
REMARK    5  A    between atoms: C_10  and  C_11 
REMARK    6  A    between atoms: C_11  and  S_12 
REMARK    7  A    between atoms: S_12  and  C_13 
REMARK    8  A    between atoms: C_26  and  O_27 
ROOT
HETATM    1  C   UNL     1     -43.080  55.751 -56.076  1.00  0.00     0.309 C 
HETATM    2  N   UNL     1     -43.704  55.669 -54.849  1.00  0.00    -0.351 N 
HETATM    3  O   UNL     1     -42.362  54.899 -56.580  1.00  0.00    -0.262 OA
HETATM    4  H   UNL     1     -44.160  56.525 -54.543  1.00  0.00     0.162 HD
ENDROOT
BRANCH   1   5
HETATM    5  C   UNL     1     -43.335  57.085 -56.813  1.00  0.00     0.314 C 
HETATM    6  N   UNL     1     -42.221  57.523 -57.487  1.00  0.00    -0.316 N 
HETATM    7  H   UNL     1     -41.407  56.910 -57.444  1.00  0.00     0.169 HD
HETATM    8  O   UNL     1     -44.445  57.594 -56.734  1.00  0.00    -0.262 OA
BRANCH   6   9
HETATM    9  C   UNL     1     -42.046  58.703 -58.237  1.00  0.00     0.071 A 
HETATM   10  C   UNL     1     -42.163  58.751 -59.631  1.00  0.00     0.069 A 
HETATM   11  C   UNL     1     -41.997  59.961 -60.307  1.00  0.00     0.070 A 
HETATM   12  C   UNL     1     -41.683  61.115 -59.587  1.00  0.00     0.039 A 
HETATM   13  C   UNL     1     -41.566  61.080 -58.196  1.00  0.00     0.042 A 
HETATM   14  C   UNL     1     -41.754  59.879 -57.512  1.00  0.00     0.095 A 
BRANCH  11  15
HETATM   15  O   UNL     1     -42.102  60.145 -61.659  1.00  0.00    -0.356 OA
HETATM   16  C   UNL     1     -41.901  61.470 -62.137  1.00  0.00     0.210 C 
ENDBRANCH  11  15
BRANCH  14  17
HETATM   17  O   UNL     1     -41.674  59.727 -56.148  1.00  0.00    -0.354 OA
HETATM   18  C   UNL     1     -42.539  60.530 -55.354  1.00  0.00     0.210 C 
ENDBRANCH  14  17
ENDBRANCH   6   9
ENDBRANCH   1   5
BRANCH   2  19
HETATM   19  C   UNL     1     -43.398  54.608 -53.907  1.00  0.00     0.144 C 
BRANCH  19  20
HETATM   20  C   UNL     1     -42.435  54.997 -52.739  1.00  0.00     0.033 C 
HETATM   21  C   UNL     1     -42.721  56.458 -52.327  1.00  0.00     0.049 C 
HETATM   22  C   UNL     1     -44.062  56.587 -51.606  1.00  0.00     0.169 C 
HETATM   23  O   UNL     1     -44.129  55.704 -50.490  1.00  0.00    -0.391 OA
HETATM   24  C   UNL     1     -43.985  54.332 -50.851  1.00  0.00     0.169 C 
HETATM   25  C   UNL     1     -42.630  54.089 -51.508  1.00  0.00     0.049 C 
BRANCH  20  26
HETATM   26  S   UNL     1     -40.705  54.810 -53.438  1.00  0.00    -0.118 SA
BRANCH  26  27
HETATM   27  C   UNL     1     -40.375  53.064 -53.304  1.00  0.00     0.001 A 
HETATM   28  C   UNL     1     -40.610  52.214 -54.388  1.00  0.00     0.018 A 
HETATM   29  C   UNL     1     -40.321  50.852 -54.292  1.00  0.00     0.001 A 
HETATM   30  C   UNL     1     -39.779  50.334 -53.116  1.00  0.00     0.000 A 
HETATM   31  C   UNL     1     -39.514  51.181 -52.042  1.00  0.00     0.001 A 
HETATM   32  C   UNL     1     -39.801  52.545 -52.139  1.00  0.00     0.018 A 
ENDBRANCH  26  27
ENDBRANCH  20  26
ENDBRANCH  19  20
ENDBRANCH   2  19
TORSDOF 8
ENDMDL
MODEL 4
REMARK VINA RESULT:      -7.9      3.005      9.041
REMARK  8 active torsions:
REMARK  status: ('A' for Active; 'I' for Inactive)
REMARK    1  A    between atoms: O_2  and  C_3 
REMARK    2  A    between atoms: C_5  and  N_6 
REMARK       I    between atoms: N_6  and  C_7 
REMARK    3  A    between atoms: C_7  and  C_8 
REMARK       I    between atoms: C_8  and  N_9 
REMARK    4  A    between atoms: N_9  and  C_10 
REMARK    5  A    between atoms: C_10  and  C_11 
REMARK    6  A    between atoms: C_11  and  S_12 
REMARK    7  A    between atoms: S_12  and  C_13 
REMARK    8  A    between atoms: C_26  and  O_27 
ROOT
HETATM    1  C   UNL     1     -42.986  56.703 -55.171  1.00  0.00     0.309 C 
HETATM    2  N   UNL     1     -43.613  56.581 -56.393  1.00  0.00    -0.351 N 
HETATM    3  O   UNL     1     -42.590  57.741 -54.662  1.00  0.00    -0.262 OA
HETATM    4  H   UNL     1     -43.759  55.624 -56.706  1.00  0.00     0.162 HD
ENDROOT
BRANCH   1   5
HETATM    5  C   UNL     1     -42.776  55.355 -54.446  1.00  0.00     0.314 C 
HETATM    6  N   UNL     1     -41.541  55.279 -53.847  1.00  0.00    -0.316 N 
HETATM    7  H   UNL     1     -40.958  56.112 -53.926  1.00  0.00     0.169 HD
HETATM    8  O   UNL     1     -43.679  54.530 -54.470  1.00  0.00    -0.262 OA
BRANCH   6   9
HETATM    9  C   UNL     1     -40.968  54.209 -53.131  1.00  0.00     0.071 A 
HETATM   10  C   UNL     1     -40.505  53.038 -53.742  1.00  0.00     0.069 A 
HETATM   11  C   UNL     1     -39.929  52.026 -52.971  1.00  0.00     0.070 A 
HETATM   12  C   UNL     1     -39.847  52.177 -51.586  1.00  0.00     0.039 A 
HETATM   13  C   UNL     1     -40.304  53.341 -50.965  1.00  0.00     0.042 A 
HETATM   14  C   UNL     1     -40.859  54.366 -51.732  1.00  0.00     0.095 A 
BRANCH  11  15
HETATM   15  O   UNL     1     -39.423  50.846 -53.446  1.00  0.00    -0.356 OA
HETATM   16  C   UNL     1     -40.235  50.135 -54.374  1.00  0.00     0.210 C 
ENDBRANCH  11  15
BRANCH  14  17
HETATM   17  O   UNL     1     -41.332  55.557 -51.233  1.00  0.00    -0.354 OA
HETATM   18  C   UNL     1     -41.567  55.626 -49.832  1.00  0.00     0.210 C 
ENDBRANCH  14  17
ENDBRANCH   6   9
ENDBRANCH   1   5
BRANCH   2  19
HETATM   19  C   UNL     1     -43.687  57.690 -57.327  1.00  0.00     0.144 C 
BRANCH  19  20
HETATM   20  C   UNL     1     -44.443  57.400 -58.664  1.00  0.00     0.033 C 
HETATM   21  C   UNL     1     -43.948  58.395 -59.737  1.00  0.00     0.049 C 
HETATM   22  C   UNL     1     -42.519  58.084 -60.178  1.00  0.00     0.169 C 
HETATM   23  O   UNL     1     -42.405  56.734 -60.620  1.00  0.00    -0.391 OA
HETATM   24  C   UNL     1     -42.743  55.782 -59.614  1.00  0.00     0.169 C 
HETATM   25  C   UNL     1     -44.189  55.965 -59.166  1.00  0.00     0.049 C 
BRANCH  20  26
HETATM   26  S   UNL     1     -46.259  57.660 -58.274  1.00  0.00    -0.118 SA
BRANCH  26  27
HETATM   27  C   UNL     1     -47.039  57.695 -59.875  1.00  0.00     0.001 A 
HETATM   28  C   UNL     1     -47.306  56.505 -60.559  1.00  0.00     0.018 A 
HETATM   29  C   UNL     1     -47.946  56.532 -61.799  1.00  0.00     0.001 A 
HETATM   30  C   UNL     1     -48.340  57.749 -62.355  1.00  0.00     0.000 A 
HETATM   31  C   UNL     1     -48.105  58.936 -61.665  1.00  0.00     0.001 A 
HETATM   32  C   UNL     1     -47.466  58.909 -60.423  1.00  0.00     0.018 A 
ENDBRANCH  26  27
ENDBRANCH  20  26
ENDBRANCH  19  20
ENDBRANCH   2  19
TORSDOF 8
ENDMDL
MODEL 5
REMARK VINA RESULT:      -7.9      1.995      3.067
REMARK  8 active torsions:
REMARK  status: ('A' for Active; 'I' for Inactive)
REMARK    1  A    between atoms: O_2  and  C_3 
REMARK    2  A    between atoms: C_5  and  N_6 
REMARK       I    between atoms: N_6  and  C_7 
REMARK    3  A    between atoms: C_7  and  C_8 
REMARK       I    between atoms: C_8  and  N_9 
REMARK    4  A    between atoms: N_9  and  C_10 
REMARK    5  A    between atoms: C_10  and  C_11 
REMARK    6  A    between atoms: C_11  and  S_12 
REMARK    7  A    between atoms: S_12  and  C_13 
REMARK    8  A    between atoms: C_26  and  O_27 
ROOT
HETATM    1  C   UNL     1     -44.456  58.173 -53.865  1.00  0.00     0.309 C 
HETATM    2  N   UNL     1     -43.346  58.835 -53.383  1.00  0.00    -0.351 N 
HETATM    3  O   UNL     1     -45.326  57.639 -53.193  1.00  0.00    -0.262 OA
HETATM    4  H   UNL     1     -42.669  59.107 -54.092  1.00  0.00     0.162 HD
ENDROOT
BRANCH   1   5
HETATM    5  C   UNL     1     -44.525  58.120 -55.407  1.00  0.00     0.314 C 
HETATM    6  N   UNL     1     -43.352  57.664 -55.960  1.00  0.00    -0.316 N 
HETATM    7  H   UNL     1     -42.625  57.393 -55.298  1.00  0.00     0.169 HD
HETATM    8  O   UNL     1     -45.559  58.469 -55.959  1.00  0.00    -0.262 OA
BRANCH   6   9
HETATM    9  C   UNL     1     -43.014  57.512 -57.320  1.00  0.00     0.071 A 
HETATM   10  C   UNL     1     -43.497  56.470 -58.118  1.00  0.00     0.069 A 
HETATM   11  C   UNL     1     -43.135  56.393 -59.465  1.00  0.00     0.070 A 
HETATM   12  C   UNL     1     -42.266  57.345 -60.000  1.00  0.00     0.039 A 
HETATM   13  C   UNL     1     -41.780  58.392 -59.213  1.00  0.00     0.042 A 
HETATM   14  C   UNL     1     -42.156  58.487 -57.873  1.00  0.00     0.095 A 
BRANCH  11  15
HETATM   15  O   UNL     1     -43.551  55.439 -60.354  1.00  0.00    -0.356 OA
HETATM   16  C   UNL     1     -44.489  54.485 -59.868  1.00  0.00     0.210 C 
ENDBRANCH  11  15
BRANCH  14  17
HETATM   17  O   UNL     1     -41.749  59.476 -57.009  1.00  0.00    -0.354 OA
HETATM   18  C   UNL     1     -41.719  60.806 -57.512  1.00  0.00     0.210 C 
ENDBRANCH  14  17
ENDBRANCH   6   9
ENDBRANCH   1   5
BRANCH   2  19
HETATM   19  C   UNL     1     -42.978  58.787 -51.979  1.00  0.00     0.144 C 
BRANCH  19  20
HETATM   20  C   UNL     1     -41.843  57.778 -51.611  1.00  0.00     0.033 C 
HETATM   21  C   UNL     1     -40.902  57.625 -52.827  1.00  0.00     0.049 C 
HETATM   22  C   UNL     1     -40.064  58.883 -53.052  1.00  0.00     0.169 C 
HETATM   23  O   UNL     1     -39.346  59.234 -51.872  1.00  0.00    -0.391 OA
HETATM   24  C   UNL     1     -40.193  59.497 -50.756  1.00  0.00     0.169 C 
HETATM   25  C   UNL     1     -41.015  58.262 -50.403  1.00  0.00     0.049 C 
BRANCH  20  26
HETATM   26  S   UNL     1     -42.718  56.167 -51.216  1.00  0.00    -0.118 SA
BRANCH  26  27
HETATM   27  C   UNL     1     -42.116  55.038 -52.456  1.00  0.00     0.001 A 
HETATM   28  C   UNL     1     -41.003  54.234 -52.200  1.00  0.00     0.018 A 
HETATM   29  C   UNL     1     -40.551  53.327 -53.160  1.00  0.00     0.001 A 
HETATM   30  C   UNL     1     -41.222  53.206 -54.376  1.00  0.00     0.000 A 
HETATM   31  C   UNL     1     -42.352  53.982 -54.626  1.00  0.00     0.001 A 
HETATM   32  C   UNL     1     -42.804  54.888 -53.664  1.00  0.00     0.018 A 
ENDBRANCH  26  27
ENDBRANCH  20  26
ENDBRANCH  19  20
ENDBRANCH   2  19
TORSDOF 8
ENDMDL
MODEL 6
REMARK VINA RESULT:      -7.7      2.562      7.535
REMARK  8 active torsions:
REMARK  status: ('A' for Active; 'I' for Inactive)
REMARK    1  A    between atoms: O_2  and  C_3 
REMARK    2  A    between atoms: C_5  and  N_6 
REMARK       I    between atoms: N_6  and  C_7 
REMARK    3  A    between atoms: C_7  and  C_8 
REMARK       I    between atoms: C_8  and  N_9 
REMARK    4  A    between atoms: N_9  and  C_10 
REMARK    5  A    between atoms: C_10  and  C_11 
REMARK    6  A    between atoms: C_11  and  S_12 
REMARK    7  A    between atoms: S_12  and  C_13 
REMARK    8  A    between atoms: C_26  and  O_27 
ROOT
HETATM    1  C   UNL     1     -43.713  56.644 -52.063  1.00  0.00     0.309 C 
HETATM    2  N   UNL     1     -44.200  56.861 -53.334  1.00  0.00    -0.351 N 
HETATM    3  O   UNL     1     -43.665  57.466 -51.158  1.00  0.00    -0.262 OA
HETATM    4  H   UNL     1     -44.045  56.096 -53.987  1.00  0.00     0.162 HD
ENDROOT
BRANCH   1   5
HETATM    5  C   UNL     1     -43.171  55.215 -51.841  1.00  0.00     0.314 C 
HETATM    6  N   UNL     1     -41.941  55.033 -52.426  1.00  0.00    -0.316 N 
HETATM    7  H   UNL     1     -41.543  55.853 -52.885  1.00  0.00     0.169 HD
HETATM    8  O   UNL     1     -43.849  54.424 -51.200  1.00  0.00    -0.262 OA
BRANCH   6   9
HETATM    9  C   UNL     1     -41.147  53.871 -52.478  1.00  0.00     0.071 A 
HETATM   10  C   UNL     1     -41.073  53.042 -53.603  1.00  0.00     0.069 A 
HETATM   11  C   UNL     1     -40.249  51.915 -53.590  1.00  0.00     0.070 A 
HETATM   12  C   UNL     1     -39.524  51.604 -52.438  1.00  0.00     0.039 A 
HETATM   13  C   UNL     1     -39.588  52.425 -51.310  1.00  0.00     0.042 A 
HETATM   14  C   UNL     1     -40.391  53.565 -51.325  1.00  0.00     0.095 A 
BRANCH  11  15
HETATM   15  O   UNL     1     -40.074  51.037 -54.626  1.00  0.00    -0.356 OA
HETATM   16  C   UNL     1     -39.634  49.728 -54.281  1.00  0.00     0.210 C 
ENDBRANCH  11  15
BRANCH  14  17
HETATM   17  O   UNL     1     -40.525  54.450 -50.280  1.00  0.00    -0.354 OA
HETATM   18  C   UNL     1     -40.546  53.904 -48.967  1.00  0.00     0.210 C 
ENDBRANCH  14  17
ENDBRANCH   6   9
ENDBRANCH   1   5
BRANCH   2  19
HETATM   19  C   UNL     1     -44.530  58.192 -53.809  1.00  0.00     0.144 C 
BRANCH  19  20
HETATM   20  C   UNL     1     -43.802  58.645 -55.116  1.00  0.00     0.033 C 
HETATM   21  C   UNL     1     -43.598  60.175 -55.064  1.00  0.00     0.049 C 
HETATM   22  C   UNL     1     -42.540  60.567 -54.033  1.00  0.00     0.169 C 
HETATM   23  O   UNL     1     -41.315  59.880 -54.274  1.00  0.00    -0.391 OA
HETATM   24  C   UNL     1     -41.444  58.462 -54.214  1.00  0.00     0.169 C 
HETATM   25  C   UNL     1     -42.426  57.967 -55.271  1.00  0.00     0.049 C 
BRANCH  20  26
HETATM   26  S   UNL     1     -44.948  58.155 -56.518  1.00  0.00    -0.118 SA
BRANCH  26  27
HETATM   27  C   UNL     1     -43.844  57.812 -57.873  1.00  0.00     0.001 A 
HETATM   28  C   UNL     1     -43.156  58.851 -58.506  1.00  0.00     0.018 A 
HETATM   29  C   UNL     1     -42.267  58.577 -59.547  1.00  0.00     0.001 A 
HETATM   30  C   UNL     1     -42.047  57.261 -59.949  1.00  0.00     0.000 A 
HETATM   31  C   UNL     1     -42.706  56.217 -59.303  1.00  0.00     0.001 A 
HETATM   32  C   UNL     1     -43.595  56.491 -58.260  1.00  0.00     0.018 A 
ENDBRANCH  26  27
ENDBRANCH  20  26
ENDBRANCH  19  20
ENDBRANCH   2  19
TORSDOF 8
ENDMDL
MODEL 7
REMARK VINA RESULT:      -7.7      1.726      2.375
REMARK  8 active torsions:
REMARK  status: ('A' for Active; 'I' for Inactive)
REMARK    1  A    between atoms: O_2  and  C_3 
REMARK    2  A    between atoms: C_5  and  N_6 
REMARK       I    between atoms: N_6  and  C_7 
REMARK    3  A    between atoms: C_7  and  C_8 
REMARK       I    between atoms: C_8  and  N_9 
REMARK    4  A    between atoms: N_9  and  C_10 
REMARK    5  A    between atoms: C_10  and  C_11 
REMARK    6  A    between atoms: C_11  and  S_12 
REMARK    7  A    between atoms: S_12  and  C_13 
REMARK    8  A    between atoms: C_26  and  O_27 
ROOT
HETATM    1  C   UNL     1     -43.260  56.597 -54.730  1.00  0.00     0.309 C 
HETATM    2  N   UNL     1     -42.045  56.605 -54.078  1.00  0.00    -0.351 N 
HETATM    3  O   UNL     1     -44.362  56.530 -54.205  1.00  0.00    -0.262 OA
HETATM    4  H   UNL     1     -41.232  56.541 -54.687  1.00  0.00     0.162 HD
ENDROOT
BRANCH   1   5
HETATM    5  C   UNL     1     -43.138  56.654 -56.270  1.00  0.00     0.314 C 
HETATM    6  N   UNL     1     -43.594  57.846 -56.779  1.00  0.00    -0.316 N 
HETATM    7  H   UNL     1     -43.909  58.531 -56.091  1.00  0.00     0.169 HD
HETATM    8  O   UNL     1     -42.671  55.688 -56.856  1.00  0.00    -0.262 OA
BRANCH   6   9
HETATM    9  C   UNL     1     -43.682  58.259 -58.123  1.00  0.00     0.071 A 
HETATM   10  C   UNL     1     -42.577  58.679 -58.871  1.00  0.00     0.069 A 
HETATM   11  C   UNL     1     -42.736  59.056 -60.206  1.00  0.00     0.070 A 
HETATM   12  C   UNL     1     -44.008  59.040 -60.779  1.00  0.00     0.039 A 
HETATM   13  C   UNL     1     -45.119  58.622 -60.043  1.00  0.00     0.042 A 
HETATM   14  C   UNL     1     -44.963  58.222 -58.716  1.00  0.00     0.095 A 
BRANCH  11  15
HETATM   15  O   UNL     1     -41.738  59.467 -61.048  1.00  0.00    -0.356 OA
HETATM   16  C   UNL     1     -41.765  60.833 -61.445  1.00  0.00     0.210 C 
ENDBRANCH  11  15
BRANCH  14  17
HETATM   17  O   UNL     1     -45.979  57.782 -57.900  1.00  0.00    -0.354 OA
HETATM   18  C   UNL     1     -47.153  58.582 -57.839  1.00  0.00     0.210 C 
ENDBRANCH  14  17
ENDBRANCH   6   9
ENDBRANCH   1   5
BRANCH   2  19
HETATM   19  C   UNL     1     -41.938  56.319 -52.659  1.00  0.00     0.144 C 
BRANCH  19  20
HETATM   20  C   UNL     1     -41.547  54.851 -52.291  1.00  0.00     0.033 C 
HETATM   21  C   UNL     1     -40.739  54.869 -50.975  1.00  0.00     0.049 C 
HETATM   22  C   UNL     1     -41.623  55.207 -49.776  1.00  0.00     0.169 C 
HETATM   23  O   UNL     1     -42.736  54.320 -49.697  1.00  0.00    -0.391 OA
HETATM   24  C   UNL     1     -43.572  54.364 -50.851  1.00  0.00     0.169 C 
HETATM   25  C   UNL     1     -42.790  53.959 -52.096  1.00  0.00     0.049 C 
BRANCH  20  26
HETATM   26  S   UNL     1     -40.506  54.240 -53.726  1.00  0.00    -0.118 SA
BRANCH  26  27
HETATM   27  C   UNL     1     -40.230  52.520 -53.353  1.00  0.00     0.001 A 
HETATM   28  C   UNL     1     -40.438  51.541 -54.329  1.00  0.00     0.018 A 
HETATM   29  C   UNL     1     -40.191  50.197 -54.045  1.00  0.00     0.001 A 
HETATM   30  C   UNL     1     -39.718  49.825 -52.787  1.00  0.00     0.000 A 
HETATM   31  C   UNL     1     -39.479  50.798 -51.819  1.00  0.00     0.001 A 
HETATM   32  C   UNL     1     -39.724  52.144 -52.104  1.00  0.00     0.018 A 
ENDBRANCH  26  27
ENDBRANCH  20  26
ENDBRANCH  19  20
ENDBRANCH   2  19
TORSDOF 8
ENDMDL
MODEL 8
REMARK VINA RESULT:      -7.5      2.638      7.435
REMARK  8 active torsions:
REMARK  status: ('A' for Active; 'I' for Inactive)
REMARK    1  A    between atoms: O_2  and  C_3 
REMARK    2  A    between atoms: C_5  and  N_6 
REMARK       I    between atoms: N_6  and  C_7 
REMARK    3  A    between atoms: C_7  and  C_8 
REMARK       I    between atoms: C_8  and  N_9 
REMARK    4  A    between atoms: N_9  and  C_10 
REMARK    5  A    between atoms: C_10  and  C_11 
REMARK    6  A    between atoms: C_11  and  S_12 
REMARK    7  A    between atoms: S_12  and  C_13 
REMARK    8  A    between atoms: C_26  and  O_27 
ROOT
HETATM    1  C   UNL     1     -43.781  56.769 -52.019  1.00  0.00     0.309 C 
HETATM    2  N   UNL     1     -43.909  57.081 -53.356  1.00  0.00    -0.351 N 
HETATM    3  O   UNL     1     -44.057  57.499 -51.078  1.00  0.00    -0.262 OA
HETATM    4  H   UNL     1     -43.514  56.395 -53.995  1.00  0.00     0.162 HD
ENDROOT
BRANCH   1   5
HETATM    5  C   UNL     1     -43.205  55.358 -51.764  1.00  0.00     0.314 C 
HETATM    6  N   UNL     1     -42.010  55.164 -52.414  1.00  0.00    -0.316 N 
HETATM    7  H   UNL     1     -41.653  55.965 -52.934  1.00  0.00     0.169 HD
HETATM    8  O   UNL     1     -43.832  54.591 -51.046  1.00  0.00    -0.262 OA
BRANCH   6   9
HETATM    9  C   UNL     1     -41.204  54.009 -52.459  1.00  0.00     0.071 A 
HETATM   10  C   UNL     1     -41.158  53.148 -53.561  1.00  0.00     0.069 A 
HETATM   11  C   UNL     1     -40.319  52.032 -53.544  1.00  0.00     0.070 A 
HETATM   12  C   UNL     1     -39.552  51.764 -52.409  1.00  0.00     0.039 A 
HETATM   13  C   UNL     1     -39.588  52.617 -51.304  1.00  0.00     0.042 A 
HETATM   14  C   UNL     1     -40.406  53.747 -51.324  1.00  0.00     0.095 A 
BRANCH  11  15
HETATM   15  O   UNL     1     -40.168  51.127 -54.559  1.00  0.00    -0.356 OA
HETATM   16  C   UNL     1     -39.552  49.890 -54.220  1.00  0.00     0.210 C 
ENDBRANCH  11  15
BRANCH  14  17
HETATM   17  O   UNL     1     -40.516  54.660 -50.302  1.00  0.00    -0.354 OA
HETATM   18  C   UNL     1     -40.727  54.145 -48.992  1.00  0.00     0.210 C 
ENDBRANCH  14  17
ENDBRANCH   6   9
ENDBRANCH   1   5
BRANCH   2  19
HETATM   19  C   UNL     1     -44.203  58.431 -53.801  1.00  0.00     0.144 C 
BRANCH  19  20
HETATM   20  C   UNL     1     -43.375  58.936 -55.026  1.00  0.00     0.033 C 
HETATM   21  C   UNL     1     -42.425  57.806 -55.482  1.00  0.00     0.049 C 
HETATM   22  C   UNL     1     -43.190  56.661 -56.144  1.00  0.00     0.169 C 
HETATM   23  O   UNL     1     -43.993  57.140 -57.220  1.00  0.00    -0.391 OA
HETATM   24  C   UNL     1     -44.962  58.102 -56.813  1.00  0.00     0.169 C 
HETATM   25  C   UNL     1     -44.282  59.327 -56.210  1.00  0.00     0.049 C 
BRANCH  20  26
HETATM   26  S   UNL     1     -42.417  60.423 -54.400  1.00  0.00    -0.118 SA
BRANCH  26  27
HETATM   27  C   UNL     1     -41.851  59.920 -52.788  1.00  0.00     0.001 A 
HETATM   28  C   UNL     1     -40.824  58.981 -52.660  1.00  0.00     0.018 A 
HETATM   29  C   UNL     1     -40.359  58.611 -51.397  1.00  0.00     0.001 A 
HETATM   30  C   UNL     1     -40.908  59.192 -50.254  1.00  0.00     0.000 A 
HETATM   31  C   UNL     1     -41.911  60.150 -50.374  1.00  0.00     0.001 A 
HETATM   32  C   UNL     1     -42.374  60.522 -51.639  1.00  0.00     0.018 A 
ENDBRANCH  26  27
ENDBRANCH  20  26
ENDBRANCH  19  20
ENDBRANCH   2  19
TORSDOF 8
ENDMDL
MODEL 9
REMARK VINA RESULT:      -7.5      2.219      3.056
REMARK  8 active torsions:
REMARK  status: ('A' for Active; 'I' for Inactive)
REMARK    1  A    between atoms: O_2  and  C_3 
REMARK    2  A    between atoms: C_5  and  N_6 
REMARK       I    between atoms: N_6  and  C_7 
REMARK    3  A    between atoms: C_7  and  C_8 
REMARK       I    between atoms: C_8  and  N_9 
REMARK    4  A    between atoms: N_9  and  C_10 
REMARK    5  A    between atoms: C_10  and  C_11 
REMARK    6  A    between atoms: C_11  and  S_12 
REMARK    7  A    between atoms: S_12  and  C_13 
REMARK    8  A    between atoms: C_26  and  O_27 
ROOT
HETATM    1  C   UNL     1     -43.098  57.112 -54.914  1.00  0.00     0.309 C 
HETATM    2  N   UNL     1     -43.246  56.491 -53.692  1.00  0.00    -0.351 N 
HETATM    3  O   UNL     1     -42.048  57.506 -55.402  1.00  0.00    -0.262 OA
HETATM    4  H   UNL     1     -44.210  56.346 -53.400  1.00  0.00     0.162 HD
ENDROOT
BRANCH   1   5
HETATM    5  C   UNL     1     -44.429  57.320 -55.670  1.00  0.00     0.314 C 
HETATM    6  N   UNL     1     -44.243  57.406 -57.028  1.00  0.00    -0.316 N 
HETATM    7  H   UNL     1     -43.283  57.288 -57.353  1.00  0.00     0.169 HD
HETATM    8  O   UNL     1     -45.466  57.384 -55.023  1.00  0.00    -0.262 OA
BRANCH   6   9
HETATM    9  C   UNL     1     -45.197  57.631 -58.041  1.00  0.00     0.071 A 
HETATM   10  C   UNL     1     -46.120  58.682 -58.005  1.00  0.00     0.069 A 
HETATM   11  C   UNL     1     -47.025  58.856 -59.055  1.00  0.00     0.070 A 
HETATM   12  C   UNL     1     -47.022  57.958 -60.123  1.00  0.00     0.039 A 
HETATM   13  C   UNL     1     -46.104  56.906 -60.171  1.00  0.00     0.042 A 
HETATM   14  C   UNL     1     -45.182  56.741 -59.137  1.00  0.00     0.095 A 
BRANCH  11  15
HETATM   15  O   UNL     1     -47.961  59.850 -59.149  1.00  0.00    -0.356 OA
HETATM   16  C   UNL     1     -48.250  60.566 -57.954  1.00  0.00     0.210 C 
ENDBRANCH  11  15
BRANCH  14  17
HETATM   17  O   UNL     1     -44.229  55.752 -59.081  1.00  0.00    -0.354 OA
HETATM   18  C   UNL     1     -44.447  54.595 -59.880  1.00  0.00     0.210 C 
ENDBRANCH  14  17
ENDBRANCH   6   9
ENDBRANCH   1   5
BRANCH   2  19
HETATM   19  C   UNL     1     -42.158  56.419 -52.735  1.00  0.00     0.144 C 
BRANCH  19  20
HETATM   20  C   UNL     1     -41.677  54.980 -52.362  1.00  0.00     0.033 C 
HETATM   21  C   UNL     1     -40.859  55.055 -51.053  1.00  0.00     0.049 C 
HETATM   22  C   UNL     1     -41.750  55.347 -49.848  1.00  0.00     0.169 C 
HETATM   23  O   UNL     1     -42.808  54.396 -49.753  1.00  0.00    -0.391 OA
HETATM   24  C   UNL     1     -43.655  54.382 -50.900  1.00  0.00     0.169 C 
HETATM   25  C   UNL     1     -42.862  54.016 -52.150  1.00  0.00     0.049 C 
BRANCH  20  26
HETATM   26  S   UNL     1     -40.613  54.422 -53.803  1.00  0.00    -0.118 SA
BRANCH  26  27
HETATM   27  C   UNL     1     -40.313  52.698 -53.472  1.00  0.00     0.001 A 
HETATM   28  C   UNL     1     -40.591  51.732 -54.442  1.00  0.00     0.018 A 
HETATM   29  C   UNL     1     -40.326  50.384 -54.193  1.00  0.00     0.001 A 
HETATM   30  C   UNL     1     -39.764  49.997 -52.977  1.00  0.00     0.000 A 
HETATM   31  C   UNL     1     -39.456  50.957 -52.016  1.00  0.00     0.001 A 
HETATM   32  C   UNL     1     -39.720  52.306 -52.267  1.00  0.00     0.018 A 
ENDBRANCH  26  27
ENDBRANCH  20  26
ENDBRANCH  19  20
ENDBRANCH   2  19
TORSDOF 8
ENDMDL
MODEL 10
REMARK VINA RESULT:      -7.5      2.763      8.803
REMARK  8 active torsions:
REMARK  status: ('A' for Active; 'I' for Inactive)
REMARK    1  A    between atoms: O_2  and  C_3 
REMARK    2  A    between atoms: C_5  and  N_6 
REMARK       I    between atoms: N_6  and  C_7 
REMARK    3  A    between atoms: C_7  and  C_8 
REMARK       I    between atoms: C_8  and  N_9 
REMARK    4  A    between atoms: N_9  and  C_10 
REMARK    5  A    between atoms: C_10  and  C_11 
REMARK    6  A    between atoms: C_11  and  S_12 
REMARK    7  A    between atoms: S_12  and  C_13 
REMARK    8  A    between atoms: C_26  and  O_27 
ROOT
HETATM    1  C   UNL     1     -43.114  56.616 -56.273  1.00  0.00     0.309 C 
HETATM    2  N   UNL     1     -44.137  56.575 -57.197  1.00  0.00    -0.351 N 
HETATM    3  O   UNL     1     -42.504  57.613 -55.915  1.00  0.00    -0.262 OA
HETATM    4  H   UNL     1     -44.440  55.640 -57.459  1.00  0.00     0.162 HD
ENDROOT
BRANCH   1   5
HETATM    5  C   UNL     1     -42.742  55.231 -55.699  1.00  0.00     0.314 C 
HETATM    6  N   UNL     1     -41.801  55.322 -54.702  1.00  0.00    -0.316 N 
HETATM    7  H   UNL     1     -41.509  56.267 -54.453  1.00  0.00     0.169 HD
HETATM    8  O   UNL     1     -43.290  54.239 -56.161  1.00  0.00    -0.262 OA
BRANCH   6   9
HETATM    9  C   UNL     1     -41.186  54.289 -53.968  1.00  0.00     0.071 A 
HETATM   10  C   UNL     1     -40.676  53.127 -54.557  1.00  0.00     0.069 A 
HETATM   11  C   UNL     1     -40.060  52.152 -53.770  1.00  0.00     0.070 A 
HETATM   12  C   UNL     1     -39.984  52.331 -52.387  1.00  0.00     0.039 A 
HETATM   13  C   UNL     1     -40.487  53.488 -51.787  1.00  0.00     0.042 A 
HETATM   14  C   UNL     1     -41.083  54.475 -52.572  1.00  0.00     0.095 A 
BRANCH  11  15
HETATM   15  O   UNL     1     -39.508  50.985 -54.223  1.00  0.00    -0.356 OA
HETATM   16  C   UNL     1     -39.714  49.830 -53.418  1.00  0.00     0.210 C 
ENDBRANCH  11  15
BRANCH  14  17
HETATM   17  O   UNL     1     -41.602  55.655 -52.094  1.00  0.00    -0.354 OA
HETATM   18  C   UNL     1     -41.198  56.062 -50.792  1.00  0.00     0.210 C 
ENDBRANCH  14  17
ENDBRANCH   6   9
ENDBRANCH   1   5
BRANCH   2  19
HETATM   19  C   UNL     1     -44.470  57.725 -58.019  1.00  0.00     0.144 C 
BRANCH  19  20
HETATM   20  C   UNL     1     -44.309  57.524 -59.561  1.00  0.00     0.033 C 
HETATM   21  C   UNL     1     -44.979  56.190 -59.959  1.00  0.00     0.049 C 
HETATM   22  C   UNL     1     -46.502  56.276 -59.869  1.00  0.00     0.169 C 
HETATM   23  O   UNL     1     -46.997  57.365 -60.644  1.00  0.00    -0.391 OA
HETATM   24  C   UNL     1     -46.487  58.630 -60.226  1.00  0.00     0.169 C 
HETATM   25  C   UNL     1     -44.968  58.666 -60.359  1.00  0.00     0.049 C 
BRANCH  20  26
HETATM   26  S   UNL     1     -42.458  57.478 -59.866  1.00  0.00    -0.118 SA
BRANCH  26  27
HETATM   27  C   UNL     1     -41.993  59.196 -59.929  1.00  0.00     0.001 A 
HETATM   28  C   UNL     1     -41.894  59.858 -61.156  1.00  0.00     0.018 A 
HETATM   29  C   UNL     1     -41.560  61.213 -61.203  1.00  0.00     0.001 A 
HETATM   30  C   UNL     1     -41.340  61.918 -60.020  1.00  0.00     0.000 A 
HETATM   31  C   UNL     1     -41.467  61.273 -58.793  1.00  0.00     0.001 A 
HETATM   32  C   UNL     1     -41.803  59.918 -58.746  1.00  0.00     0.018 A 
ENDBRANCH  26  27
ENDBRANCH  20  26
ENDBRANCH  19  20
ENDBRANCH   2  19
TORSDOF 8
ENDMDL
