MODEL 1
REMARK VINA RESULT:      -8.8      0.000      0.000
REMARK  8 active torsions:
REMARK  status: ('A' for Active; 'I' for Inactive)
REMARK    1  A    between atoms: C_2  and  C_3 
REMARK    2  A    between atoms: C_3  and  O_4 
REMARK    3  A    between atoms: O_4  and  C_5 
REMARK    4  A    between atoms: C_8  and  C_9 
REMARK    5  A    between atoms: N_10  and  C_11 
REMARK    6  A    between atoms: C_11  and  C_12 
REMARK    7  A    between atoms: C_25  and  C_26 
REMARK    8  A    between atoms: C_27  and  O_28 
ROOT
HETATM    1  C   UNL     1     -42.096  56.748 -54.310  1.00  0.00     0.159 A 
HETATM    2  N   UNL     1     -43.013  57.342 -55.319  1.00  0.00    -0.329 N 
HETATM    3  C   UNL     1     -44.248  57.746 -54.792  1.00  0.00     0.273 A 
HETATM    4  O   UNL     1     -45.158  58.330 -55.353  1.00  0.00    -0.266 OA
HETATM    5  C   UNL     1     -44.186  57.332 -53.441  1.00  0.00     0.129 A 
HETATM    6  C   UNL     1     -42.992  56.755 -53.130  1.00  0.00     0.034 A 
HETATM    7  N   UNL     1     -44.960  57.287 -52.345  1.00  0.00    -0.272 N 
HETATM    8  H   UNL     1     -45.911  57.619 -52.215  1.00  0.00     0.189 HD
HETATM    9  N   UNL     1     -44.328  56.665 -51.314  1.00  0.00    -0.173 NA
HETATM   10  C   UNL     1     -43.115  56.315 -51.804  1.00  0.00     0.101 A 
ENDROOT
BRANCH   1  11
HETATM   11  C   UNL     1     -41.718  55.306 -54.550  1.00  0.00    -0.030 A 
HETATM   12  C   UNL     1     -40.356  54.953 -54.537  1.00  0.00     0.012 A 
HETATM   13  C   UNL     1     -39.966  53.615 -54.579  1.00  0.00     0.037 A 
HETATM   14  C   UNL     1     -40.933  52.616 -54.620  1.00  0.00     0.069 A 
HETATM   15  C   UNL     1     -42.283  52.942 -54.720  1.00  0.00     0.037 A 
HETATM   16  C   UNL     1     -42.674  54.283 -54.685  1.00  0.00     0.012 A 
BRANCH  14  17
HETATM   17  O   UNL     1     -40.502  51.319 -54.551  1.00  0.00    -0.348 OA
BRANCH  17  18
HETATM   18  C   UNL     1     -39.427  51.185 -53.610  1.00  0.00     0.202 C 
BRANCH  18  19
HETATM   19  C   UNL     1     -39.754  50.035 -52.705  1.00  0.00    -0.011 C 
HETATM   20  C   UNL     1     -39.525  50.009 -51.385  1.00  0.00     0.009 C 
ENDBRANCH  18  19
ENDBRANCH  17  18
ENDBRANCH  14  17
ENDBRANCH   1  11
BRANCH   2  21
HETATM   21  C   UNL     1     -42.544  57.765 -56.620  1.00  0.00     0.167 C 
BRANCH  21  22
HETATM   22  C   UNL     1     -43.281  57.077 -57.735  1.00  0.00    -0.023 A 
HETATM   23  C   UNL     1     -44.189  57.765 -58.533  1.00  0.00     0.125 A 
HETATM   24  N   UNL     1     -44.911  57.197 -59.525  1.00  0.00    -0.273 NA
HETATM   25  C   UNL     1     -44.719  55.879 -59.740  1.00  0.00     0.116 A 
HETATM   26  C   UNL     1     -43.837  55.102 -59.008  1.00  0.00     0.020 A 
HETATM   27  C   UNL     1     -43.111  55.713 -57.990  1.00  0.00     0.012 A 
ENDBRANCH  21  22
ENDBRANCH   2  21
BRANCH  10  28
HETATM   28  C   UNL     1     -42.160  55.532 -51.032  1.00  0.00     0.028 A 
HETATM   29  C   UNL     1     -41.259  56.124 -50.136  1.00  0.00     0.078 A 
HETATM   30  C   UNL     1     -40.262  55.368 -49.523  1.00  0.00     0.037 A 
HETATM   31  C   UNL     1     -40.172  54.000 -49.775  1.00  0.00     0.003 A 
HETATM   32  C   UNL     1     -41.081  53.388 -50.638  1.00  0.00     0.001 A 
HETATM   33  C   UNL     1     -42.071  54.152 -51.264  1.00  0.00     0.017 A 
BRANCH  29  34
HETATM   34  O   UNL     1     -41.304  57.453 -49.809  1.00  0.00    -0.360 OA
HETATM   35  H   UNL     1     -40.703  57.582 -49.053  1.00  0.00     0.217 HD
ENDBRANCH  29  34
ENDBRANCH  10  28
TORSDOF 8
ENDMDL
MODEL 2
REMARK VINA RESULT:      -8.5      1.683      2.180
REMARK  8 active torsions:
REMARK  status: ('A' for Active; 'I' for Inactive)
REMARK    1  A    between atoms: C_2  and  C_3 
REMARK    2  A    between atoms: C_3  and  O_4 
REMARK    3  A    between atoms: O_4  and  C_5 
REMARK    4  A    between atoms: C_8  and  C_9 
REMARK    5  A    between atoms: N_10  and  C_11 
REMARK    6  A    between atoms: C_11  and  C_12 
REMARK    7  A    between atoms: C_25  and  C_26 
REMARK    8  A    between atoms: C_27  and  O_28 
ROOT
HETATM    1  C   UNL     1     -42.409  57.520 -55.826  1.00  0.00     0.159 A 
HETATM    2  N   UNL     1     -43.225  57.654 -57.063  1.00  0.00    -0.329 N 
HETATM    3  C   UNL     1     -44.462  58.281 -56.859  1.00  0.00     0.273 A 
HETATM    4  O   UNL     1     -45.299  58.596 -57.686  1.00  0.00    -0.266 OA
HETATM    5  C   UNL     1     -44.508  58.481 -55.459  1.00  0.00     0.129 A 
HETATM    6  C   UNL     1     -43.373  58.056 -54.838  1.00  0.00     0.034 A 
HETATM    7  N   UNL     1     -45.348  58.931 -54.515  1.00  0.00    -0.272 N 
HETATM    8  H   UNL     1     -46.283  59.315 -54.615  1.00  0.00     0.189 HD
HETATM    9  N   UNL     1     -44.820  58.790 -53.270  1.00  0.00    -0.173 NA
HETATM   10  C   UNL     1     -43.603  58.228 -53.465  1.00  0.00     0.101 A 
ENDROOT
BRANCH   1  11
HETATM   11  C   UNL     1     -42.106  56.103 -55.402  1.00  0.00    -0.030 A 
HETATM   12  C   UNL     1     -40.850  55.819 -54.838  1.00  0.00     0.012 A 
HETATM   13  C   UNL     1     -40.586  54.572 -54.273  1.00  0.00     0.037 A 
HETATM   14  C   UNL     1     -41.581  53.600 -54.254  1.00  0.00     0.069 A 
HETATM   15  C   UNL     1     -42.803  53.827 -54.882  1.00  0.00     0.037 A 
HETATM   16  C   UNL     1     -43.065  55.074 -55.454  1.00  0.00     0.012 A 
BRANCH  14  17
HETATM   17  O   UNL     1     -41.309  52.433 -53.593  1.00  0.00    -0.348 OA
BRANCH  17  18
HETATM   18  C   UNL     1     -39.899  52.290 -53.365  1.00  0.00     0.202 C 
BRANCH  18  19
HETATM   19  C   UNL     1     -39.522  50.880 -53.707  1.00  0.00    -0.011 C 
HETATM   20  C   UNL     1     -40.281  50.034 -54.417  1.00  0.00     0.009 C 
ENDBRANCH  18  19
ENDBRANCH  17  18
ENDBRANCH  14  17
ENDBRANCH   1  11
BRANCH   2  21
HETATM   21  C   UNL     1     -42.652  57.467 -58.379  1.00  0.00     0.167 C 
BRANCH  21  22
HETATM   22  C   UNL     1     -43.414  56.452 -59.185  1.00  0.00    -0.023 A 
HETATM   23  C   UNL     1     -43.959  56.775 -60.423  1.00  0.00     0.125 A 
HETATM   24  N   UNL     1     -44.685  55.922 -61.179  1.00  0.00    -0.273 NA
HETATM   25  C   UNL     1     -44.877  54.681 -60.683  1.00  0.00     0.116 A 
HETATM   26  C   UNL     1     -44.376  54.255 -59.464  1.00  0.00     0.020 A 
HETATM   27  C   UNL     1     -43.636  55.157 -58.706  1.00  0.00     0.012 A 
ENDBRANCH  21  22
ENDBRANCH   2  21
BRANCH  10  28
HETATM   28  C   UNL     1     -42.746  57.821 -52.359  1.00  0.00     0.028 A 
HETATM   29  C   UNL     1     -41.597  58.537 -52.002  1.00  0.00     0.078 A 
HETATM   30  C   UNL     1     -40.719  58.045 -51.038  1.00  0.00     0.037 A 
HETATM   31  C   UNL     1     -40.999  56.840 -50.394  1.00  0.00     0.003 A 
HETATM   32  C   UNL     1     -42.157  56.131 -50.713  1.00  0.00     0.001 A 
HETATM   33  C   UNL     1     -43.027  56.620 -51.692  1.00  0.00     0.017 A 
BRANCH  29  34
HETATM   34  O   UNL     1     -41.271  59.744 -52.563  1.00  0.00    -0.360 OA
HETATM   35  H   UNL     1     -41.532  59.704 -53.501  1.00  0.00     0.217 HD
ENDBRANCH  29  34
ENDBRANCH  10  28
TORSDOF 8
ENDMDL
MODEL 3
REMARK VINA RESULT:      -8.2      1.731      6.108
REMARK  8 active torsions:
REMARK  status: ('A' for Active; 'I' for Inactive)
REMARK    1  A    between atoms: C_2  and  C_3 
REMARK    2  A    between atoms: C_3  and  O_4 
REMARK    3  A    between atoms: O_4  and  C_5 
REMARK    4  A    between atoms: C_8  and  C_9 
REMARK    5  A    between atoms: N_10  and  C_11 
REMARK    6  A    between atoms: C_11  and  C_12 
REMARK    7  A    between atoms: C_25  and  C_26 
REMARK    8  A    between atoms: C_27  and  O_28 
ROOT
HETATM    1  C   UNL     1     -44.298  57.050 -54.345  1.00  0.00     0.159 A 
HETATM    2  N   UNL     1     -44.103  57.792 -53.071  1.00  0.00    -0.329 N 
HETATM    3  C   UNL     1     -43.961  59.177 -53.239  1.00  0.00     0.273 A 
HETATM    4  O   UNL     1     -43.868  60.040 -52.385  1.00  0.00    -0.266 OA
HETATM    5  C   UNL     1     -43.969  59.344 -54.644  1.00  0.00     0.129 A 
HETATM    6  C   UNL     1     -44.147  58.167 -55.305  1.00  0.00     0.034 A 
HETATM    7  N   UNL     1     -43.814  60.311 -55.562  1.00  0.00    -0.272 N 
HETATM    8  H   UNL     1     -43.656  61.305 -55.429  1.00  0.00     0.189 HD
HETATM    9  N   UNL     1     -43.851  59.808 -56.825  1.00  0.00    -0.173 NA
HETATM   10  C   UNL     1     -44.036  58.476 -56.669  1.00  0.00     0.101 A 
ENDROOT
BRANCH   1  11
HETATM   11  C   UNL     1     -43.219  56.048 -54.681  1.00  0.00    -0.030 A 
HETATM   12  C   UNL     1     -41.873  56.443 -54.577  1.00  0.00     0.012 A 
HETATM   13  C   UNL     1     -40.845  55.512 -54.706  1.00  0.00     0.037 A 
HETATM   14  C   UNL     1     -41.151  54.173 -54.926  1.00  0.00     0.069 A 
HETATM   15  C   UNL     1     -42.471  53.772 -55.118  1.00  0.00     0.037 A 
HETATM   16  C   UNL     1     -43.502  54.706 -54.996  1.00  0.00     0.012 A 
BRANCH  14  17
HETATM   17  O   UNL     1     -40.112  53.282 -54.938  1.00  0.00    -0.348 OA
BRANCH  17  18
HETATM   18  C   UNL     1     -40.193  52.385 -53.821  1.00  0.00     0.202 C 
BRANCH  18  19
HETATM   19  C   UNL     1     -40.292  50.990 -54.364  1.00  0.00    -0.011 C 
HETATM   20  C   UNL     1     -39.538  49.957 -53.965  1.00  0.00     0.009 C 
ENDBRANCH  18  19
ENDBRANCH  17  18
ENDBRANCH  14  17
ENDBRANCH   1  11
BRANCH   2  21
HETATM   21  C   UNL     1     -44.376  57.186 -51.785  1.00  0.00     0.167 C 
BRANCH  21  22
HETATM   22  C   UNL     1     -43.230  56.339 -51.308  1.00  0.00    -0.023 A 
HETATM   23  C   UNL     1     -42.029  56.912 -50.903  1.00  0.00     0.125 A 
HETATM   24  N   UNL     1     -40.949  56.206 -50.500  1.00  0.00    -0.273 NA
HETATM   25  C   UNL     1     -41.068  54.861 -50.494  1.00  0.00     0.116 A 
HETATM   26  C   UNL     1     -42.218  54.190 -50.873  1.00  0.00     0.020 A 
HETATM   27  C   UNL     1     -43.312  54.943 -51.288  1.00  0.00     0.012 A 
ENDBRANCH  21  22
ENDBRANCH   2  21
BRANCH  10  28
HETATM   28  C   UNL     1     -44.036  57.552 -57.795  1.00  0.00     0.028 A 
HETATM   29  C   UNL     1     -45.158  57.370 -58.613  1.00  0.00     0.078 A 
HETATM   30  C   UNL     1     -45.176  56.375 -59.590  1.00  0.00     0.037 A 
HETATM   31  C   UNL     1     -44.056  55.569 -59.781  1.00  0.00     0.003 A 
HETATM   32  C   UNL     1     -42.917  55.759 -58.999  1.00  0.00     0.001 A 
HETATM   33  C   UNL     1     -42.908  56.746 -58.009  1.00  0.00     0.017 A 
BRANCH  29  34
HETATM   34  O   UNL     1     -46.284  58.144 -58.511  1.00  0.00    -0.360 OA
HETATM   35  H   UNL     1     -46.565  58.118 -57.578  1.00  0.00     0.217 HD
ENDBRANCH  29  34
ENDBRANCH  10  28
TORSDOF 8
ENDMDL
MODEL 4
REMARK VINA RESULT:      -7.9      2.178      2.952
REMARK  8 active torsions:
REMARK  status: ('A' for Active; 'I' for Inactive)
REMARK    1  A    between atoms: C_2  and  C_3 
REMARK    2  A    between atoms: C_3  and  O_4 
REMARK    3  A    between atoms: O_4  and  C_5 
REMARK    4  A    between atoms: C_8  and  C_9 
REMARK    5  A    between atoms: N_10  and  C_11 
REMARK    6  A    between atoms: C_11  and  C_12 
REMARK    7  A    between atoms: C_25  and  C_26 
REMARK    8  A    between atoms: C_27  and  O_28 
ROOT
HETATM    1  C   UNL     1     -42.371  57.681 -55.649  1.00  0.00     0.159 A 
HETATM    2  N   UNL     1     -43.119  57.961 -56.904  1.00  0.00    -0.329 N 
HETATM    3  C   UNL     1     -44.368  58.563 -56.696  1.00  0.00     0.273 A 
HETATM    4  O   UNL     1     -45.160  58.975 -57.524  1.00  0.00    -0.266 OA
HETATM    5  C   UNL     1     -44.490  58.599 -55.286  1.00  0.00     0.129 A 
HETATM    6  C   UNL     1     -43.388  58.102 -54.658  1.00  0.00     0.034 A 
HETATM    7  N   UNL     1     -45.381  58.940 -54.343  1.00  0.00    -0.272 N 
HETATM    8  H   UNL     1     -46.311  59.336 -54.448  1.00  0.00     0.189 HD
HETATM    9  N   UNL     1     -44.920  58.653 -53.096  1.00  0.00    -0.173 NA
HETATM   10  C   UNL     1     -43.694  58.114 -53.289  1.00  0.00     0.101 A 
ENDROOT
BRANCH   1  11
HETATM   11  C   UNL     1     -42.087  56.224 -55.377  1.00  0.00    -0.030 A 
HETATM   12  C   UNL     1     -40.869  55.874 -54.766  1.00  0.00     0.012 A 
HETATM   13  C   UNL     1     -40.635  54.569 -54.337  1.00  0.00     0.037 A 
HETATM   14  C   UNL     1     -41.622  53.602 -54.500  1.00  0.00     0.069 A 
HETATM   15  C   UNL     1     -42.801  53.903 -55.179  1.00  0.00     0.037 A 
HETATM   16  C   UNL     1     -43.033  55.209 -55.615  1.00  0.00     0.012 A 
BRANCH  14  17
HETATM   17  O   UNL     1     -41.386  52.364 -53.967  1.00  0.00    -0.348 OA
BRANCH  17  18
HETATM   18  C   UNL     1     -40.056  52.280 -53.435  1.00  0.00     0.202 C 
BRANCH  18  19
HETATM   19  C   UNL     1     -39.626  50.846 -53.507  1.00  0.00    -0.011 C 
HETATM   20  C   UNL     1     -39.930  50.003 -54.503  1.00  0.00     0.009 C 
ENDBRANCH  18  19
ENDBRANCH  17  18
ENDBRANCH  14  17
ENDBRANCH   1  11
BRANCH   2  21
HETATM   21  C   UNL     1     -42.476  57.926 -58.199  1.00  0.00     0.167 C 
BRANCH  21  22
HETATM   22  C   UNL     1     -41.994  59.286 -58.624  1.00  0.00    -0.023 A 
HETATM   23  C   UNL     1     -41.421  60.166 -57.712  1.00  0.00     0.125 A 
HETATM   24  N   UNL     1     -41.002  61.413 -58.020  1.00  0.00    -0.273 NA
HETATM   25  C   UNL     1     -41.156  61.808 -59.302  1.00  0.00     0.116 A 
HETATM   26  C   UNL     1     -41.710  61.011 -60.290  1.00  0.00     0.020 A 
HETATM   27  C   UNL     1     -42.136  59.732 -59.941  1.00  0.00     0.012 A 
ENDBRANCH  21  22
ENDBRANCH   2  21
BRANCH  10  28
HETATM   28  C   UNL     1     -42.896  57.579 -52.194  1.00  0.00     0.028 A 
HETATM   29  C   UNL     1     -41.825  58.287 -51.634  1.00  0.00     0.078 A 
HETATM   30  C   UNL     1     -40.991  57.691 -50.689  1.00  0.00     0.037 A 
HETATM   31  C   UNL     1     -41.239  56.385 -50.268  1.00  0.00     0.003 A 
HETATM   32  C   UNL     1     -42.322  55.678 -50.790  1.00  0.00     0.001 A 
HETATM   33  C   UNL     1     -43.146  56.272 -51.749  1.00  0.00     0.017 A 
BRANCH  29  34
HETATM   34  O   UNL     1     -41.537  59.584 -51.968  1.00  0.00    -0.360 OA
HETATM   35  H   UNL     1     -41.249  59.582 -52.899  1.00  0.00     0.217 HD
ENDBRANCH  29  34
ENDBRANCH  10  28
TORSDOF 8
ENDMDL
MODEL 5
REMARK VINA RESULT:      -7.7      2.691      6.655
REMARK  8 active torsions:
REMARK  status: ('A' for Active; 'I' for Inactive)
REMARK    1  A    between atoms: C_2  and  C_3 
REMARK    2  A    between atoms: C_3  and  O_4 
REMARK    3  A    between atoms: O_4  and  C_5 
REMARK    4  A    between atoms: C_8  and  C_9 
REMARK    5  A    between atoms: N_10  and  C_11 
REMARK    6  A    between atoms: C_11  and  C_12 
REMARK    7  A    between atoms: C_25  and  C_26 
REMARK    8  A    between atoms: C_27  and  O_28 
ROOT
HETATM    1  C   UNL     1     -42.859  56.427 -51.897  1.00  0.00     0.159 A 
HETATM    2  N   UNL     1     -41.947  55.438 -51.262  1.00  0.00    -0.329 N 
HETATM    3  C   UNL     1     -40.931  56.019 -50.491  1.00  0.00     0.273 A 
HETATM    4  O   UNL     1     -40.094  55.469 -49.798  1.00  0.00    -0.266 OA
HETATM    5  C   UNL     1     -41.114  57.408 -50.690  1.00  0.00     0.129 A 
HETATM    6  C   UNL     1     -42.186  57.680 -51.485  1.00  0.00     0.034 A 
HETATM    7  N   UNL     1     -40.534  58.575 -50.372  1.00  0.00    -0.272 N 
HETATM    8  H   UNL     1     -39.712  58.750 -49.801  1.00  0.00     0.189 HD
HETATM    9  N   UNL     1     -41.168  59.624 -50.960  1.00  0.00    -0.173 NA
HETATM   10  C   UNL     1     -42.181  59.071 -51.668  1.00  0.00     0.101 A 
ENDROOT
BRANCH   1  11
HETATM   11  C   UNL     1     -42.868  56.422 -53.406  1.00  0.00    -0.030 A 
HETATM   12  C   UNL     1     -44.079  56.676 -54.077  1.00  0.00     0.012 A 
HETATM   13  C   UNL     1     -44.105  56.854 -55.459  1.00  0.00     0.037 A 
HETATM   14  C   UNL     1     -42.919  56.796 -56.184  1.00  0.00     0.069 A 
HETATM   15  C   UNL     1     -41.722  56.462 -55.556  1.00  0.00     0.037 A 
HETATM   16  C   UNL     1     -41.696  56.276 -54.172  1.00  0.00     0.012 A 
BRANCH  14  17
HETATM   17  O   UNL     1     -42.983  57.085 -57.520  1.00  0.00    -0.348 OA
BRANCH  17  18
HETATM   18  C   UNL     1     -43.248  55.902 -58.288  1.00  0.00     0.202 C 
BRANCH  18  19
HETATM   19  C   UNL     1     -42.616  56.082 -59.636  1.00  0.00    -0.011 C 
HETATM   20  C   UNL     1     -42.034  57.209 -60.065  1.00  0.00     0.009 C 
ENDBRANCH  18  19
ENDBRANCH  17  18
ENDBRANCH  14  17
ENDBRANCH   1  11
BRANCH   2  21
HETATM   21  C   UNL     1     -42.285  54.034 -51.176  1.00  0.00     0.167 C 
BRANCH  21  22
HETATM   22  C   UNL     1     -41.331  53.176 -51.960  1.00  0.00    -0.023 A 
HETATM   23  C   UNL     1     -40.326  52.451 -51.328  1.00  0.00     0.125 A 
HETATM   24  N   UNL     1     -39.414  51.693 -51.977  1.00  0.00    -0.273 NA
HETATM   25  C   UNL     1     -39.507  51.648 -53.323  1.00  0.00     0.116 A 
HETATM   26  C   UNL     1     -40.470  52.327 -54.050  1.00  0.00     0.020 A 
HETATM   27  C   UNL     1     -41.393  53.103 -53.355  1.00  0.00     0.012 A 
ENDBRANCH  21  22
ENDBRANCH   2  21
BRANCH  10  28
HETATM   28  C   UNL     1     -43.051  59.860 -52.530  1.00  0.00     0.028 A 
HETATM   29  C   UNL     1     -42.592  60.456 -53.711  1.00  0.00     0.078 A 
HETATM   30  C   UNL     1     -43.406  61.323 -54.438  1.00  0.00     0.037 A 
HETATM   31  C   UNL     1     -44.706  61.581 -54.005  1.00  0.00     0.003 A 
HETATM   32  C   UNL     1     -45.191  60.970 -52.849  1.00  0.00     0.001 A 
HETATM   33  C   UNL     1     -44.367  60.113 -52.114  1.00  0.00     0.017 A 
BRANCH  29  34
HETATM   34  O   UNL     1     -41.341  60.225 -54.221  1.00  0.00    -0.360 OA
HETATM   35  H   UNL     1     -41.306  59.285 -54.477  1.00  0.00     0.217 HD
ENDBRANCH  29  34
ENDBRANCH  10  28
TORSDOF 8
ENDMDL
MODEL 6
REMARK VINA RESULT:      -7.4      3.190      5.998
REMARK  8 active torsions:
REMARK  status: ('A' for Active; 'I' for Inactive)
REMARK    1  A    between atoms: C_2  and  C_3 
REMARK    2  A    between atoms: C_3  and  O_4 
REMARK    3  A    between atoms: O_4  and  C_5 
REMARK    4  A    between atoms: C_8  and  C_9 
REMARK    5  A    between atoms: N_10  and  C_11 
REMARK    6  A    between atoms: C_11  and  C_12 
REMARK    7  A    between atoms: C_25  and  C_26 
REMARK    8  A    between atoms: C_27  and  O_28 
ROOT
HETATM    1  C   UNL     1     -43.828  58.403 -52.120  1.00  0.00     0.159 A 
HETATM    2  N   UNL     1     -43.889  59.749 -51.489  1.00  0.00    -0.329 N 
HETATM    3  C   UNL     1     -43.182  60.735 -52.191  1.00  0.00     0.273 A 
HETATM    4  O   UNL     1     -43.116  61.929 -51.964  1.00  0.00    -0.266 OA
HETATM    5  C   UNL     1     -42.571  60.018 -53.247  1.00  0.00     0.129 A 
HETATM    6  C   UNL     1     -42.902  58.697 -53.237  1.00  0.00     0.034 A 
HETATM    7  N   UNL     1     -41.715  60.219 -54.261  1.00  0.00    -0.272 N 
HETATM    8  H   UNL     1     -41.260  61.076 -54.560  1.00  0.00     0.189 HD
HETATM    9  N   UNL     1     -41.435  59.059 -54.914  1.00  0.00    -0.173 NA
HETATM   10  C   UNL     1     -42.154  58.110 -54.268  1.00  0.00     0.101 A 
ENDROOT
BRANCH   1  11
HETATM   11  C   UNL     1     -43.168  57.329 -51.289  1.00  0.00    -0.030 A 
HETATM   12  C   UNL     1     -43.828  56.097 -51.126  1.00  0.00     0.012 A 
HETATM   13  C   UNL     1     -43.187  55.019 -50.519  1.00  0.00     0.037 A 
HETATM   14  C   UNL     1     -41.874  55.155 -50.081  1.00  0.00     0.069 A 
HETATM   15  C   UNL     1     -41.229  56.387 -50.154  1.00  0.00     0.037 A 
HETATM   16  C   UNL     1     -41.873  57.470 -50.756  1.00  0.00     0.012 A 
BRANCH  14  17
HETATM   17  O   UNL     1     -41.255  54.038 -49.591  1.00  0.00    -0.348 OA
BRANCH  17  18
HETATM   18  C   UNL     1     -39.975  53.848 -50.211  1.00  0.00     0.202 C 
BRANCH  18  19
HETATM   19  C   UNL     1     -40.185  53.027 -51.448  1.00  0.00    -0.011 C 
HETATM   20  C   UNL     1     -39.661  51.813 -51.662  1.00  0.00     0.009 C 
ENDBRANCH  18  19
ENDBRANCH  17  18
ENDBRANCH  14  17
ENDBRANCH   1  11
BRANCH   2  21
HETATM   21  C   UNL     1     -44.853  60.065 -50.458  1.00  0.00     0.167 C 
BRANCH  21  22
HETATM   22  C   UNL     1     -45.896  61.033 -50.942  1.00  0.00    -0.023 A 
HETATM   23  C   UNL     1     -46.176  62.202 -50.243  1.00  0.00     0.125 A 
HETATM   24  N   UNL     1     -47.126  63.094 -50.603  1.00  0.00    -0.273 NA
HETATM   25  C   UNL     1     -47.833  62.813 -51.718  1.00  0.00     0.116 A 
HETATM   26  C   UNL     1     -47.634  61.680 -52.489  1.00  0.00     0.020 A 
HETATM   27  C   UNL     1     -46.651  60.778 -52.091  1.00  0.00     0.012 A 
ENDBRANCH  21  22
ENDBRANCH   2  21
BRANCH  10  28
HETATM   28  C   UNL     1     -42.056  56.695 -54.604  1.00  0.00     0.028 A 
HETATM   29  C   UNL     1     -43.125  55.984 -55.163  1.00  0.00     0.078 A 
HETATM   30  C   UNL     1     -43.052  54.604 -55.338  1.00  0.00     0.037 A 
HETATM   31  C   UNL     1     -41.890  53.919 -54.982  1.00  0.00     0.003 A 
HETATM   32  C   UNL     1     -40.804  54.616 -54.455  1.00  0.00     0.001 A 
HETATM   33  C   UNL     1     -40.886  55.999 -54.266  1.00  0.00     0.017 A 
BRANCH  29  34
HETATM   34  O   UNL     1     -44.285  56.589 -55.571  1.00  0.00    -0.360 OA
HETATM   35  H   UNL     1     -44.286  57.488 -55.196  1.00  0.00     0.217 HD
ENDBRANCH  29  34
ENDBRANCH  10  28
TORSDOF 8
ENDMDL
MODEL 7
REMARK VINA RESULT:      -7.4      2.151      3.062
REMARK  8 active torsions:
REMARK  status: ('A' for Active; 'I' for Inactive)
REMARK    1  A    between atoms: C_2  and  C_3 
REMARK    2  A    between atoms: C_3  and  O_4 
REMARK    3  A    between atoms: O_4  and  C_5 
REMARK    4  A    between atoms: C_8  and  C_9 
REMARK    5  A    between atoms: N_10  and  C_11 
REMARK    6  A    between atoms: C_11  and  C_12 
REMARK    7  A    between atoms: C_25  and  C_26 
REMARK    8  A    between atoms: C_27  and  O_28 
ROOT
HETATM    1  C   UNL     1     -43.045  57.562 -55.979  1.00  0.00     0.159 A 
HETATM    2  N   UNL     1     -44.214  57.416 -56.888  1.00  0.00    -0.329 N 
HETATM    3  C   UNL     1     -45.349  58.123 -56.467  1.00  0.00     0.273 A 
HETATM    4  O   UNL     1     -46.416  58.256 -57.038  1.00  0.00    -0.266 OA
HETATM    5  C   UNL     1     -44.959  58.668 -55.221  1.00  0.00     0.129 A 
HETATM    6  C   UNL     1     -43.670  58.367 -54.904  1.00  0.00     0.034 A 
HETATM    7  N   UNL     1     -45.477  59.373 -54.203  1.00  0.00    -0.272 N 
HETATM    8  H   UNL     1     -46.411  59.757 -54.096  1.00  0.00     0.189 HD
HETATM    9  N   UNL     1     -44.578  59.525 -53.194  1.00  0.00    -0.173 NA
HETATM   10  C   UNL     1     -43.463  58.884 -53.617  1.00  0.00     0.101 A 
ENDROOT
BRANCH   1  11
HETATM   11  C   UNL     1     -42.565  56.284 -55.334  1.00  0.00    -0.030 A 
HETATM   12  C   UNL     1     -43.510  55.292 -55.012  1.00  0.00     0.012 A 
HETATM   13  C   UNL     1     -43.101  54.032 -54.578  1.00  0.00     0.037 A 
HETATM   14  C   UNL     1     -41.744  53.746 -54.476  1.00  0.00     0.069 A 
HETATM   15  C   UNL     1     -40.792  54.737 -54.706  1.00  0.00     0.037 A 
HETATM   16  C   UNL     1     -41.202  56.002 -55.133  1.00  0.00     0.012 A 
BRANCH  14  17
HETATM   17  O   UNL     1     -41.394  52.463 -54.150  1.00  0.00    -0.348 OA
BRANCH  17  18
HETATM   18  C   UNL     1     -39.967  52.320 -54.095  1.00  0.00     0.202 C 
BRANCH  18  19
HETATM   19  C   UNL     1     -39.665  50.891 -53.755  1.00  0.00    -0.011 C 
HETATM   20  C   UNL     1     -39.889  49.847 -54.563  1.00  0.00     0.009 C 
ENDBRANCH  18  19
ENDBRANCH  17  18
ENDBRANCH  14  17
ENDBRANCH   1  11
BRANCH   2  21
HETATM   21  C   UNL     1     -44.078  56.885 -58.227  1.00  0.00     0.167 C 
BRANCH  21  22
HETATM   22  C   UNL     1     -43.597  57.926 -59.199  1.00  0.00    -0.023 A 
HETATM   23  C   UNL     1     -44.474  58.843 -59.768  1.00  0.00     0.125 A 
HETATM   24  N   UNL     1     -44.112  59.777 -60.675  1.00  0.00    -0.273 NA
HETATM   25  C   UNL     1     -42.811  59.807 -61.033  1.00  0.00     0.116 A 
HETATM   26  C   UNL     1     -41.855  58.944 -60.526  1.00  0.00     0.020 A 
HETATM   27  C   UNL     1     -42.258  57.990 -59.596  1.00  0.00     0.012 A 
ENDBRANCH  21  22
ENDBRANCH   2  21
BRANCH  10  28
HETATM   28  C   UNL     1     -42.285  58.732 -52.774  1.00  0.00     0.028 A 
HETATM   29  C   UNL     1     -42.371  58.327 -51.435  1.00  0.00     0.078 A 
HETATM   30  C   UNL     1     -41.245  58.331 -50.614  1.00  0.00     0.037 A 
HETATM   31  C   UNL     1     -40.008  58.711 -51.132  1.00  0.00     0.003 A 
HETATM   32  C   UNL     1     -39.897  59.084 -52.471  1.00  0.00     0.001 A 
HETATM   33  C   UNL     1     -41.031  59.094 -53.289  1.00  0.00     0.017 A 
BRANCH  29  34
HETATM   34  O   UNL     1     -43.542  57.906 -50.862  1.00  0.00    -0.360 OA
HETATM   35  H   UNL     1     -43.711  58.488 -50.098  1.00  0.00     0.217 HD
ENDBRANCH  29  34
ENDBRANCH  10  28
TORSDOF 8
ENDMDL
MODEL 8
REMARK VINA RESULT:      -7.3      2.269      5.061
REMARK  8 active torsions:
REMARK  status: ('A' for Active; 'I' for Inactive)
REMARK    1  A    between atoms: C_2  and  C_3 
REMARK    2  A    between atoms: C_3  and  O_4 
REMARK    3  A    between atoms: O_4  and  C_5 
REMARK    4  A    between atoms: C_8  and  C_9 
REMARK    5  A    between atoms: N_10  and  C_11 
REMARK    6  A    between atoms: C_11  and  C_12 
REMARK    7  A    between atoms: C_25  and  C_26 
REMARK    8  A    between atoms: C_27  and  O_28 
ROOT
HETATM    1  C   UNL     1     -42.634  57.217 -52.146  1.00  0.00     0.159 A 
HETATM    2  N   UNL     1     -43.680  58.173 -51.691  1.00  0.00    -0.329 N 
HETATM    3  C   UNL     1     -44.652  57.595 -50.864  1.00  0.00     0.273 A 
HETATM    4  O   UNL     1     -45.575  58.137 -50.282  1.00  0.00    -0.266 OA
HETATM    5  C   UNL     1     -44.301  56.224 -50.844  1.00  0.00     0.129 A 
HETATM    6  C   UNL     1     -43.174  55.968 -51.563  1.00  0.00     0.034 A 
HETATM    7  N   UNL     1     -44.756  55.057 -50.364  1.00  0.00    -0.272 N 
HETATM    8  H   UNL     1     -45.575  54.871 -49.792  1.00  0.00     0.189 HD
HETATM    9  N   UNL     1     -43.980  54.016 -50.770  1.00  0.00    -0.173 NA
HETATM   10  C   UNL     1     -43.011  54.575 -51.531  1.00  0.00     0.101 A 
ENDROOT
BRANCH   1  11
HETATM   11  C   UNL     1     -42.564  56.998 -53.638  1.00  0.00    -0.030 A 
HETATM   12  C   UNL     1     -43.763  56.830 -54.355  1.00  0.00     0.012 A 
HETATM   13  C   UNL     1     -43.763  56.799 -55.748  1.00  0.00     0.037 A 
HETATM   14  C   UNL     1     -42.566  56.951 -56.441  1.00  0.00     0.069 A 
HETATM   15  C   UNL     1     -41.357  57.033 -55.754  1.00  0.00     0.037 A 
HETATM   16  C   UNL     1     -41.356  57.057 -54.358  1.00  0.00     0.012 A 
BRANCH  14  17
HETATM   17  O   UNL     1     -42.633  57.022 -57.806  1.00  0.00    -0.348 OA
BRANCH  17  18
HETATM   18  C   UNL     1     -43.896  56.537 -58.283  1.00  0.00     0.202 C 
BRANCH  18  19
HETATM   19  C   UNL     1     -43.621  55.536 -59.365  1.00  0.00    -0.011 C 
HETATM   20  C   UNL     1     -44.423  54.512 -59.685  1.00  0.00     0.009 C 
ENDBRANCH  18  19
ENDBRANCH  17  18
ENDBRANCH  14  17
ENDBRANCH   1  11
BRANCH   2  21
HETATM   21  C   UNL     1     -43.510  59.605 -51.814  1.00  0.00     0.167 C 
BRANCH  21  22
HETATM   22  C   UNL     1     -43.834  60.093 -53.198  1.00  0.00    -0.023 A 
HETATM   23  C   UNL     1     -45.141  60.100 -53.673  1.00  0.00     0.125 A 
HETATM   24  N   UNL     1     -45.494  60.490 -54.918  1.00  0.00    -0.273 NA
HETATM   25  C   UNL     1     -44.499  60.900 -55.734  1.00  0.00     0.116 A 
HETATM   26  C   UNL     1     -43.167  60.936 -55.360  1.00  0.00     0.020 A 
HETATM   27  C   UNL     1     -42.833  60.525 -54.073  1.00  0.00     0.012 A 
ENDBRANCH  21  22
ENDBRANCH   2  21
BRANCH  10  28
HETATM   28  C   UNL     1     -42.020  53.777 -52.242  1.00  0.00     0.028 A 
HETATM   29  C   UNL     1     -40.910  53.216 -51.597  1.00  0.00     0.078 A 
HETATM   30  C   UNL     1     -39.905  52.583 -52.326  1.00  0.00     0.037 A 
HETATM   31  C   UNL     1     -40.015  52.475 -53.712  1.00  0.00     0.003 A 
HETATM   32  C   UNL     1     -41.130  52.997 -54.366  1.00  0.00     0.001 A 
HETATM   33  C   UNL     1     -42.129  53.646 -53.634  1.00  0.00     0.017 A 
BRANCH  29  34
HETATM   34  O   UNL     1     -40.747  53.249 -50.237  1.00  0.00    -0.360 OA
HETATM   35  H   UNL     1     -40.606  54.181 -49.989  1.00  0.00     0.217 HD
ENDBRANCH  29  34
ENDBRANCH  10  28
TORSDOF 8
ENDMDL
MODEL 9
REMARK VINA RESULT:      -7.2      2.828      5.853
REMARK  8 active torsions:
REMARK  status: ('A' for Active; 'I' for Inactive)
REMARK    1  A    between atoms: C_2  and  C_3 
REMARK    2  A    between atoms: C_3  and  O_4 
REMARK    3  A    between atoms: O_4  and  C_5 
REMARK    4  A    between atoms: C_8  and  C_9 
REMARK    5  A    between atoms: N_10  and  C_11 
REMARK    6  A    between atoms: C_11  and  C_12 
REMARK    7  A    between atoms: C_25  and  C_26 
REMARK    8  A    between atoms: C_27  and  O_28 
ROOT
HETATM    1  C   UNL     1     -43.381  58.477 -52.556  1.00  0.00     0.159 A 
HETATM    2  N   UNL     1     -44.357  59.315 -51.809  1.00  0.00    -0.329 N 
HETATM    3  C   UNL     1     -45.064  58.615 -50.821  1.00  0.00     0.273 A 
HETATM    4  O   UNL     1     -45.861  59.046 -50.008  1.00  0.00    -0.266 OA
HETATM    5  C   UNL     1     -44.620  57.280 -50.977  1.00  0.00     0.129 A 
HETATM    6  C   UNL     1     -43.677  57.158 -51.951  1.00  0.00     0.034 A 
HETATM    7  N   UNL     1     -44.864  56.055 -50.486  1.00  0.00    -0.272 N 
HETATM    8  H   UNL     1     -45.510  55.771 -49.756  1.00  0.00     0.189 HD
HETATM    9  N   UNL     1     -44.132  55.107 -51.129  1.00  0.00    -0.173 NA
HETATM   10  C   UNL     1     -43.411  55.784 -52.053  1.00  0.00     0.101 A 
ENDROOT
BRANCH   1  11
HETATM   11  C   UNL     1     -43.647  58.339 -54.035  1.00  0.00    -0.030 A 
HETATM   12  C   UNL     1     -42.552  58.290 -54.918  1.00  0.00     0.012 A 
HETATM   13  C   UNL     1     -42.736  57.989 -56.267  1.00  0.00     0.037 A 
HETATM   14  C   UNL     1     -44.014  57.720 -56.744  1.00  0.00     0.069 A 
HETATM   15  C   UNL     1     -45.122  57.846 -55.910  1.00  0.00     0.037 A 
HETATM   16  C   UNL     1     -44.939  58.155 -54.560  1.00  0.00     0.012 A 
BRANCH  14  17
HETATM   17  O   UNL     1     -44.129  57.325 -58.050  1.00  0.00    -0.348 OA
BRANCH  17  18
HETATM   18  C   UNL     1     -43.008  56.520 -58.442  1.00  0.00     0.202 C 
BRANCH  18  19
HETATM   19  C   UNL     1     -43.429  55.696 -59.622  1.00  0.00    -0.011 C 
HETATM   20  C   UNL     1     -44.316  54.693 -59.580  1.00  0.00     0.009 C 
ENDBRANCH  18  19
ENDBRANCH  17  18
ENDBRANCH  14  17
ENDBRANCH   1  11
BRANCH   2  21
HETATM   21  C   UNL     1     -44.325  60.760 -51.869  1.00  0.00     0.167 C 
BRANCH  21  22
HETATM   22  C   UNL     1     -45.401  61.310 -52.762  1.00  0.00    -0.023 A 
HETATM   23  C   UNL     1     -46.689  61.534 -52.288  1.00  0.00     0.125 A 
HETATM   24  N   UNL     1     -47.710  61.990 -53.048  1.00  0.00    -0.273 NA
HETATM   25  C   UNL     1     -47.437  62.242 -54.346  1.00  0.00     0.116 A 
HETATM   26  C   UNL     1     -46.190  62.059 -54.918  1.00  0.00     0.020 A 
HETATM   27  C   UNL     1     -45.160  61.584 -54.112  1.00  0.00     0.012 A 
ENDBRANCH  21  22
ENDBRANCH   2  21
BRANCH  10  28
HETATM   28  C   UNL     1     -42.560  55.111 -53.025  1.00  0.00     0.028 A 
HETATM   29  C   UNL     1     -43.076  54.507 -54.179  1.00  0.00     0.078 A 
HETATM   30  C   UNL     1     -42.259  53.747 -55.013  1.00  0.00     0.037 A 
HETATM   31  C   UNL     1     -40.903  53.606 -54.719  1.00  0.00     0.003 A 
HETATM   32  C   UNL     1     -40.366  54.229 -53.593  1.00  0.00     0.001 A 
HETATM   33  C   UNL     1     -41.191  54.978 -52.749  1.00  0.00     0.017 A 
BRANCH  29  34
HETATM   34  O   UNL     1     -44.388  54.628 -54.555  1.00  0.00    -0.360 OA
HETATM   35  H   UNL     1     -44.395  54.787 -55.517  1.00  0.00     0.217 HD
ENDBRANCH  29  34
ENDBRANCH  10  28
TORSDOF 8
ENDMDL
MODEL 10
REMARK VINA RESULT:      -7.1      2.817      5.113
REMARK  8 active torsions:
REMARK  status: ('A' for Active; 'I' for Inactive)
REMARK    1  A    between atoms: C_2  and  C_3 
REMARK    2  A    between atoms: C_3  and  O_4 
REMARK    3  A    between atoms: O_4  and  C_5 
REMARK    4  A    between atoms: C_8  and  C_9 
REMARK    5  A    between atoms: N_10  and  C_11 
REMARK    6  A    between atoms: C_11  and  C_12 
REMARK    7  A    between atoms: C_25  and  C_26 
REMARK    8  A    between atoms: C_27  and  O_28 
ROOT
HETATM    1  C   UNL     1     -42.689  58.424 -53.707  1.00  0.00     0.159 A 
HETATM    2  N   UNL     1     -42.854  57.696 -54.994  1.00  0.00    -0.329 N 
HETATM    3  C   UNL     1     -44.035  58.019 -55.678  1.00  0.00     0.273 A 
HETATM    4  O   UNL     1     -44.401  57.648 -56.779  1.00  0.00    -0.266 OA
HETATM    5  C   UNL     1     -44.703  58.898 -54.793  1.00  0.00     0.129 A 
HETATM    6  C   UNL     1     -43.981  59.145 -53.665  1.00  0.00     0.034 A 
HETATM    7  N   UNL     1     -45.868  59.556 -54.687  1.00  0.00    -0.272 N 
HETATM    8  H   UNL     1     -46.647  59.594 -55.337  1.00  0.00     0.189 HD
HETATM    9  N   UNL     1     -45.962  60.213 -53.500  1.00  0.00    -0.173 NA
HETATM   10  C   UNL     1     -44.803  59.943 -52.855  1.00  0.00     0.101 A 
ENDROOT
BRANCH   1  11
HETATM   11  C   UNL     1     -42.644  57.554 -52.474  1.00  0.00    -0.030 A 
HETATM   12  C   UNL     1     -43.599  56.530 -52.333  1.00  0.00     0.012 A 
HETATM   13  C   UNL     1     -43.495  55.594 -51.305  1.00  0.00     0.037 A 
HETATM   14  C   UNL     1     -42.427  55.662 -50.417  1.00  0.00     0.069 A 
HETATM   15  C   UNL     1     -41.518  56.715 -50.483  1.00  0.00     0.037 A 
HETATM   16  C   UNL     1     -41.626  57.657 -51.508  1.00  0.00     0.012 A 
BRANCH  14  17
HETATM   17  O   UNL     1     -42.311  54.659 -49.493  1.00  0.00    -0.348 OA
BRANCH  17  18
HETATM   18  C   UNL     1     -41.049  54.730 -48.815  1.00  0.00     0.202 C 
BRANCH  18  19
HETATM   19  C   UNL     1     -40.217  53.571 -49.275  1.00  0.00    -0.011 C 
HETATM   20  C   UNL     1     -40.504  52.790 -50.326  1.00  0.00     0.009 C 
ENDBRANCH  18  19
ENDBRANCH  17  18
ENDBRANCH  14  17
ENDBRANCH   1  11
BRANCH   2  21
HETATM   21  C   UNL     1     -41.754  56.998 -55.623  1.00  0.00     0.167 C 
BRANCH  21  22
HETATM   22  C   UNL     1     -41.600  55.599 -55.094  1.00  0.00    -0.023 A 
HETATM   23  C   UNL     1     -40.451  55.207 -54.415  1.00  0.00     0.125 A 
HETATM   24  N   UNL     1     -40.234  53.957 -53.949  1.00  0.00    -0.273 NA
HETATM   25  C   UNL     1     -41.210  53.049 -54.162  1.00  0.00     0.116 A 
HETATM   26  C   UNL     1     -42.393  53.335 -54.822  1.00  0.00     0.020 A 
HETATM   27  C   UNL     1     -42.587  54.629 -55.295  1.00  0.00     0.012 A 
ENDBRANCH  21  22
ENDBRANCH   2  21
BRANCH  10  28
HETATM   28  C   UNL     1     -44.547  60.389 -51.491  1.00  0.00     0.028 A 
HETATM   29  C   UNL     1     -45.361  60.008 -50.416  1.00  0.00     0.078 A 
HETATM   30  C   UNL     1     -45.180  60.565 -49.152  1.00  0.00     0.037 A 
HETATM   31  C   UNL     1     -44.158  61.490 -48.939  1.00  0.00     0.003 A 
HETATM   32  C   UNL     1     -43.317  61.854 -49.991  1.00  0.00     0.001 A 
HETATM   33  C   UNL     1     -43.511  61.306 -51.262  1.00  0.00     0.017 A 
BRANCH  29  34
HETATM   34  O   UNL     1     -46.362  59.081 -50.536  1.00  0.00    -0.360 OA
HETATM   35  H   UNL     1     -47.044  59.469 -51.113  1.00  0.00     0.217 HD
ENDBRANCH  29  34
ENDBRANCH  10  28
TORSDOF 8
ENDMDL
