MODEL 1
REMARK VINA RESULT:      -8.3      0.000      0.000
REMARK  5 active torsions:
REMARK  status: ('A' for Active; 'I' for Inactive)
REMARK    1  A    between atoms: C_2  and  N_3 
REMARK    2  A    between atoms: C_6  and  N_7 
REMARK       I    between atoms: N_7  and  C_8 
REMARK       I    between atoms: C_8  and  N_9 
REMARK    3  A    between atoms: N_9  and  C_10 
REMARK    4  A    between atoms: C_10  and  C_11 
REMARK    5  A    between atoms: C_12  and  C_13 
ROOT
HETATM    1  N   UNL     1     -41.404  56.227 -49.444  1.00  0.00    -0.306 N 
HETATM    2  C   UNL     1     -40.984  54.937 -49.398  1.00  0.00     0.321 C 
HETATM    3  N   UNL     1     -40.565  54.347 -50.551  1.00  0.00    -0.339 N 
HETATM    4  O   UNL     1     -41.016  54.348 -48.318  1.00  0.00    -0.247 OA
HETATM    5  H   UNL     1     -41.771  56.536 -48.553  1.00  0.00     0.171 HD
HETATM    6  H   UNL     1     -41.043  54.667 -51.380  1.00  0.00     0.164 HD
ENDROOT
BRANCH   3   7
HETATM    7  C   UNL     1     -40.214  52.940 -50.546  1.00  0.00     0.163 C 
BRANCH   7   8
HETATM    8  C   UNL     1     -40.150  52.298 -51.919  1.00  0.00    -0.022 A 
HETATM    9  C   UNL     1     -39.926  50.899 -52.044  1.00  0.00     0.056 A 
HETATM   10  C   UNL     1     -39.803  50.325 -53.326  1.00  0.00     0.020 A 
HETATM   11  C   UNL     1     -39.898  51.111 -54.472  1.00  0.00     0.043 A 
HETATM   12  C   UNL     1     -40.110  52.475 -54.344  1.00  0.00     0.117 A 
HETATM   13  F   UNL     1     -40.189  53.235 -55.445  1.00  0.00    -0.206 F 
HETATM   14  C   UNL     1     -40.229  53.071 -53.092  1.00  0.00     0.052 A 
BRANCH   9  15
HETATM   15  C   UNL     1     -39.777  50.007 -50.825  1.00  0.00     0.418 C 
HETATM   16  F   UNL     1     -38.476  49.724 -50.538  1.00  0.00    -0.166 F 
HETATM   17  F   UNL     1     -40.293  50.548 -49.686  1.00  0.00    -0.166 F 
HETATM   18  F   UNL     1     -40.399  48.807 -50.981  1.00  0.00    -0.166 F 
ENDBRANCH   9  15
ENDBRANCH   7   8
ENDBRANCH   3   7
BRANCH   1  19
HETATM   19  C   UNL     1     -41.359  57.175 -50.444  1.00  0.00     0.072 A 
HETATM   20  C   UNL     1     -40.452  58.199 -50.781  1.00  0.00     0.169 A 
HETATM   21  N   UNL     1     -40.823  58.878 -51.873  1.00  0.00    -0.183 NA
HETATM   22  N   UNL     1     -41.993  58.308 -52.222  1.00  0.00    -0.275 N 
HETATM   23  C   UNL     1     -42.361  57.295 -51.381  1.00  0.00     0.143 A 
BRANCH  22  24
HETATM   24  C   UNL     1     -42.720  58.803 -53.386  1.00  0.00     0.101 C 
HETATM   25  C   UNL     1     -43.546  57.693 -54.033  1.00  0.00     0.034 C 
HETATM   26  C   UNL     1     -41.787  59.464 -54.401  1.00  0.00     0.034 C 
ENDBRANCH  22  24
ENDBRANCH   1  19
TORSDOF 5
ENDMDL
MODEL 2
REMARK VINA RESULT:      -8.3      3.666      4.681
REMARK  5 active torsions:
REMARK  status: ('A' for Active; 'I' for Inactive)
REMARK    1  A    between atoms: C_2  and  N_3 
REMARK    2  A    between atoms: C_6  and  N_7 
REMARK       I    between atoms: N_7  and  C_8 
REMARK       I    between atoms: C_8  and  N_9 
REMARK    3  A    between atoms: N_9  and  C_10 
REMARK    4  A    between atoms: C_10  and  C_11 
REMARK    5  A    between atoms: C_12  and  C_13 
ROOT
HETATM    1  N   UNL     1     -43.578  55.198 -54.844  1.00  0.00    -0.306 N 
HETATM    2  C   UNL     1     -42.881  54.869 -53.727  1.00  0.00     0.321 C 
HETATM    3  N   UNL     1     -41.535  55.076 -53.716  1.00  0.00    -0.339 N 
HETATM    4  O   UNL     1     -43.490  54.381 -52.776  1.00  0.00    -0.247 OA
HETATM    5  H   UNL     1     -44.550  54.925 -54.774  1.00  0.00     0.171 HD
HETATM    6  H   UNL     1     -41.088  54.959 -54.613  1.00  0.00     0.164 HD
ENDROOT
BRANCH   3   7
HETATM    7  C   UNL     1     -40.755  54.634 -52.576  1.00  0.00     0.163 C 
BRANCH   7   8
HETATM    8  C   UNL     1     -40.402  53.158 -52.584  1.00  0.00    -0.022 A 
HETATM    9  C   UNL     1     -40.201  52.466 -51.358  1.00  0.00     0.056 A 
HETATM   10  C   UNL     1     -39.810  51.111 -51.379  1.00  0.00     0.020 A 
HETATM   11  C   UNL     1     -39.617  50.443 -52.586  1.00  0.00     0.043 A 
HETATM   12  C   UNL     1     -39.808  51.125 -53.778  1.00  0.00     0.117 A 
HETATM   13  F   UNL     1     -39.609  50.488 -54.940  1.00  0.00    -0.206 F 
HETATM   14  C   UNL     1     -40.188  52.464 -53.788  1.00  0.00     0.052 A 
BRANCH   9  15
HETATM   15  C   UNL     1     -40.362  53.161 -50.018  1.00  0.00     0.418 C 
HETATM   16  F   UNL     1     -41.516  53.877 -49.933  1.00  0.00    -0.166 F 
HETATM   17  F   UNL     1     -40.385  52.304 -48.958  1.00  0.00    -0.166 F 
HETATM   18  F   UNL     1     -39.353  54.037 -49.764  1.00  0.00    -0.166 F 
ENDBRANCH   9  15
ENDBRANCH   7   8
ENDBRANCH   3   7
BRANCH   1  19
HETATM   19  C   UNL     1     -43.218  55.873 -55.991  1.00  0.00     0.072 A 
HETATM   20  C   UNL     1     -42.796  57.191 -56.258  1.00  0.00     0.169 A 
HETATM   21  N   UNL     1     -42.534  57.394 -57.554  1.00  0.00    -0.183 NA
HETATM   22  N   UNL     1     -42.820  56.211 -58.129  1.00  0.00    -0.275 N 
HETATM   23  C   UNL     1     -43.251  55.275 -57.230  1.00  0.00     0.143 A 
BRANCH  22  24
HETATM   24  C   UNL     1     -42.665  56.049 -59.571  1.00  0.00     0.101 C 
HETATM   25  C   UNL     1     -42.051  57.298 -60.203  1.00  0.00     0.034 C 
HETATM   26  C   UNL     1     -43.987  55.679 -60.247  1.00  0.00     0.034 C 
ENDBRANCH  22  24
ENDBRANCH   1  19
TORSDOF 5
ENDMDL
MODEL 3
REMARK VINA RESULT:      -7.9      4.376      5.691
REMARK  5 active torsions:
REMARK  status: ('A' for Active; 'I' for Inactive)
REMARK    1  A    between atoms: C_2  and  N_3 
REMARK    2  A    between atoms: C_6  and  N_7 
REMARK       I    between atoms: N_7  and  C_8 
REMARK       I    between atoms: C_8  and  N_9 
REMARK    3  A    between atoms: N_9  and  C_10 
REMARK    4  A    between atoms: C_10  and  C_11 
REMARK    5  A    between atoms: C_12  and  C_13 
ROOT
HETATM    1  N   UNL     1     -42.075  56.617 -56.422  1.00  0.00    -0.306 N 
HETATM    2  C   UNL     1     -41.937  56.050 -55.197  1.00  0.00     0.321 C 
HETATM    3  N   UNL     1     -42.888  55.171 -54.775  1.00  0.00    -0.339 N 
HETATM    4  O   UNL     1     -40.967  56.367 -54.509  1.00  0.00    -0.247 OA
HETATM    5  H   UNL     1     -41.362  57.314 -56.597  1.00  0.00     0.171 HD
HETATM    6  H   UNL     1     -43.818  55.373 -55.109  1.00  0.00     0.164 HD
ENDROOT
BRANCH   3   7
HETATM    7  C   UNL     1     -42.817  54.636 -53.429  1.00  0.00     0.163 C 
BRANCH   7   8
HETATM    8  C   UNL     1     -41.722  53.607 -53.214  1.00  0.00    -0.022 A 
HETATM    9  C   UNL     1     -40.934  53.641 -52.031  1.00  0.00     0.056 A 
HETATM   10  C   UNL     1     -39.877  52.721 -51.872  1.00  0.00     0.020 A 
HETATM   11  C   UNL     1     -39.595  51.780 -52.860  1.00  0.00     0.043 A 
HETATM   12  C   UNL     1     -40.363  51.757 -54.014  1.00  0.00     0.117 A 
HETATM   13  F   UNL     1     -40.085  50.862 -54.971  1.00  0.00    -0.206 F 
HETATM   14  C   UNL     1     -41.409  52.656 -54.201  1.00  0.00     0.052 A 
BRANCH   9  15
HETATM   15  C   UNL     1     -41.177  54.671 -50.943  1.00  0.00     0.418 C 
HETATM   16  F   UNL     1     -41.134  55.949 -51.412  1.00  0.00    -0.166 F 
HETATM   17  F   UNL     1     -42.390  54.546 -50.334  1.00  0.00    -0.166 F 
HETATM   18  F   UNL     1     -40.253  54.602 -49.947  1.00  0.00    -0.166 F 
ENDBRANCH   9  15
ENDBRANCH   7   8
ENDBRANCH   3   7
BRANCH   1  19
HETATM   19  C   UNL     1     -42.950  56.370 -57.459  1.00  0.00     0.072 A 
HETATM   20  C   UNL     1     -43.053  55.356 -58.432  1.00  0.00     0.169 A 
HETATM   21  N   UNL     1     -44.102  55.526 -59.244  1.00  0.00    -0.183 NA
HETATM   22  N   UNL     1     -44.659  56.673 -58.812  1.00  0.00    -0.275 N 
HETATM   23  C   UNL     1     -43.990  57.223 -57.754  1.00  0.00     0.143 A 
BRANCH  22  24
HETATM   24  C   UNL     1     -45.846  57.198 -59.480  1.00  0.00     0.101 C 
HETATM   25  C   UNL     1     -46.830  57.790 -58.471  1.00  0.00     0.034 C 
HETATM   26  C   UNL     1     -46.519  56.141 -60.357  1.00  0.00     0.034 C 
ENDBRANCH  22  24
ENDBRANCH   1  19
TORSDOF 5
ENDMDL
MODEL 4
REMARK VINA RESULT:      -7.9      3.594      4.768
REMARK  5 active torsions:
REMARK  status: ('A' for Active; 'I' for Inactive)
REMARK    1  A    between atoms: C_2  and  N_3 
REMARK    2  A    between atoms: C_6  and  N_7 
REMARK       I    between atoms: N_7  and  C_8 
REMARK       I    between atoms: C_8  and  N_9 
REMARK    3  A    between atoms: N_9  and  C_10 
REMARK    4  A    between atoms: C_10  and  C_11 
REMARK    5  A    between atoms: C_12  and  C_13 
ROOT
HETATM    1  N   UNL     1     -42.056  57.707 -54.729  1.00  0.00    -0.306 N 
HETATM    2  C   UNL     1     -41.859  56.898 -53.658  1.00  0.00     0.321 C 
HETATM    3  N   UNL     1     -42.690  55.833 -53.485  1.00  0.00    -0.339 N 
HETATM    4  O   UNL     1     -40.948  57.168 -52.878  1.00  0.00    -0.247 OA
HETATM    5  H   UNL     1     -41.440  58.510 -54.713  1.00  0.00     0.171 HD
HETATM    6  H   UNL     1     -43.635  55.987 -53.803  1.00  0.00     0.164 HD
ENDROOT
BRANCH   3   7
HETATM    7  C   UNL     1     -42.565  55.017 -52.293  1.00  0.00     0.163 C 
BRANCH   7   8
HETATM    8  C   UNL     1     -41.559  53.886 -52.403  1.00  0.00    -0.022 A 
HETATM    9  C   UNL     1     -40.692  53.595 -51.314  1.00  0.00     0.056 A 
HETATM   10  C   UNL     1     -39.717  52.585 -51.451  1.00  0.00     0.020 A 
HETATM   11  C   UNL     1     -39.592  51.871 -52.641  1.00  0.00     0.043 A 
HETATM   12  C   UNL     1     -40.436  52.164 -53.701  1.00  0.00     0.117 A 
HETATM   13  F   UNL     1     -40.309  51.487 -54.850  1.00  0.00    -0.206 F 
HETATM   14  C   UNL     1     -41.404  53.159 -53.597  1.00  0.00     0.052 A 
BRANCH   9  15
HETATM   15  C   UNL     1     -40.763  54.371 -50.011  1.00  0.00     0.418 C 
HETATM   16  F   UNL     1     -39.877  53.918 -49.082  1.00  0.00    -0.166 F 
HETATM   17  F   UNL     1     -40.497  55.700 -50.153  1.00  0.00    -0.166 F 
HETATM   18  F   UNL     1     -41.991  54.298 -49.431  1.00  0.00    -0.166 F 
ENDBRANCH   9  15
ENDBRANCH   7   8
ENDBRANCH   3   7
BRANCH   1  19
HETATM   19  C   UNL     1     -42.880  57.596 -55.830  1.00  0.00     0.072 A 
HETATM   20  C   UNL     1     -44.216  57.959 -56.093  1.00  0.00     0.169 A 
HETATM   21  N   UNL     1     -44.594  57.660 -57.340  1.00  0.00    -0.183 NA
HETATM   22  N   UNL     1     -43.507  57.072 -57.874  1.00  0.00    -0.275 N 
HETATM   23  C   UNL     1     -42.461  56.996 -56.996  1.00  0.00     0.143 A 
BRANCH  22  24
HETATM   24  C   UNL     1     -43.546  56.589 -59.250  1.00  0.00     0.101 C 
HETATM   25  C   UNL     1     -43.894  55.102 -59.303  1.00  0.00     0.034 C 
HETATM   26  C   UNL     1     -42.240  56.879 -59.992  1.00  0.00     0.034 C 
ENDBRANCH  22  24
ENDBRANCH   1  19
TORSDOF 5
ENDMDL
MODEL 5
REMARK VINA RESULT:      -7.7      2.248      3.747
REMARK  5 active torsions:
REMARK  status: ('A' for Active; 'I' for Inactive)
REMARK    1  A    between atoms: C_2  and  N_3 
REMARK    2  A    between atoms: C_6  and  N_7 
REMARK       I    between atoms: N_7  and  C_8 
REMARK       I    between atoms: C_8  and  N_9 
REMARK    3  A    between atoms: N_9  and  C_10 
REMARK    4  A    between atoms: C_10  and  C_11 
REMARK    5  A    between atoms: C_12  and  C_13 
ROOT
HETATM    1  N   UNL     1     -41.378  57.670 -50.188  1.00  0.00    -0.306 N 
HETATM    2  C   UNL     1     -41.585  56.329 -50.244  1.00  0.00     0.321 C 
HETATM    3  N   UNL     1     -42.188  55.809 -51.348  1.00  0.00    -0.339 N 
HETATM    4  O   UNL     1     -41.234  55.641 -49.287  1.00  0.00    -0.247 OA
HETATM    5  H   UNL     1     -41.004  57.956 -49.293  1.00  0.00     0.171 HD
HETATM    6  H   UNL     1     -42.869  56.418 -51.776  1.00  0.00     0.164 HD
ENDROOT
BRANCH   3   7
HETATM    7  C   UNL     1     -42.514  54.397 -51.383  1.00  0.00     0.163 C 
BRANCH   7   8
HETATM    8  C   UNL     1     -41.545  53.543 -52.180  1.00  0.00    -0.022 A 
HETATM    9  C   UNL     1     -41.644  53.482 -53.597  1.00  0.00     0.056 A 
HETATM   10  C   UNL     1     -40.780  52.634 -54.320  1.00  0.00     0.020 A 
HETATM   11  C   UNL     1     -39.831  51.855 -53.663  1.00  0.00     0.043 A 
HETATM   12  C   UNL     1     -39.743  51.912 -52.281  1.00  0.00     0.117 A 
HETATM   13  F   UNL     1     -38.840  51.154 -51.647  1.00  0.00    -0.206 F 
HETATM   14  C   UNL     1     -40.586  52.735 -51.540  1.00  0.00     0.052 A 
BRANCH   9  15
HETATM   15  C   UNL     1     -42.688  54.283 -54.355  1.00  0.00     0.418 C 
HETATM   16  F   UNL     1     -42.890  53.817 -55.618  1.00  0.00    -0.166 F 
HETATM   17  F   UNL     1     -43.915  54.280 -53.762  1.00  0.00    -0.166 F 
HETATM   18  F   UNL     1     -42.342  55.592 -54.485  1.00  0.00    -0.166 F 
ENDBRANCH   9  15
ENDBRANCH   7   8
ENDBRANCH   3   7
BRANCH   1  19
HETATM   19  C   UNL     1     -41.527  58.665 -51.131  1.00  0.00     0.072 A 
HETATM   20  C   UNL     1     -40.833  59.008 -52.309  1.00  0.00     0.169 A 
HETATM   21  N   UNL     1     -41.360  60.072 -52.925  1.00  0.00    -0.183 NA
HETATM   22  N   UNL     1     -42.379  60.436 -52.123  1.00  0.00    -0.275 N 
HETATM   23  C   UNL     1     -42.504  59.630 -51.025  1.00  0.00     0.143 A 
BRANCH  22  24
HETATM   24  C   UNL     1     -43.197  61.592 -52.471  1.00  0.00     0.101 C 
HETATM   25  C   UNL     1     -44.584  61.498 -51.835  1.00  0.00     0.034 C 
HETATM   26  C   UNL     1     -43.294  61.786 -53.985  1.00  0.00     0.034 C 
ENDBRANCH  22  24
ENDBRANCH   1  19
TORSDOF 5
ENDMDL
MODEL 6
REMARK VINA RESULT:      -7.7      3.723      5.197
REMARK  5 active torsions:
REMARK  status: ('A' for Active; 'I' for Inactive)
REMARK    1  A    between atoms: C_2  and  N_3 
REMARK    2  A    between atoms: C_6  and  N_7 
REMARK       I    between atoms: N_7  and  C_8 
REMARK       I    between atoms: C_8  and  N_9 
REMARK    3  A    between atoms: N_9  and  C_10 
REMARK    4  A    between atoms: C_10  and  C_11 
REMARK    5  A    between atoms: C_12  and  C_13 
ROOT
HETATM    1  N   UNL     1     -43.380  55.655 -56.802  1.00  0.00    -0.306 N 
HETATM    2  C   UNL     1     -42.683  54.770 -56.045  1.00  0.00     0.321 C 
HETATM    3  N   UNL     1     -41.355  54.992 -55.841  1.00  0.00    -0.339 N 
HETATM    4  O   UNL     1     -43.276  53.794 -55.588  1.00  0.00    -0.247 OA
HETATM    5  H   UNL     1     -44.332  55.349 -56.958  1.00  0.00     0.171 HD
HETATM    6  H   UNL     1     -40.885  55.439 -56.614  1.00  0.00     0.164 HD
ENDROOT
BRANCH   3   7
HETATM    7  C   UNL     1     -40.569  54.006 -55.126  1.00  0.00     0.163 C 
BRANCH   7   8
HETATM    8  C   UNL     1     -40.665  54.096 -53.613  1.00  0.00    -0.022 A 
HETATM    9  C   UNL     1     -40.419  52.946 -52.814  1.00  0.00     0.056 A 
HETATM   10  C   UNL     1     -40.575  53.025 -51.414  1.00  0.00     0.020 A 
HETATM   11  C   UNL     1     -40.969  54.215 -50.806  1.00  0.00     0.043 A 
HETATM   12  C   UNL     1     -41.215  55.330 -51.592  1.00  0.00     0.117 A 
HETATM   13  F   UNL     1     -41.607  56.471 -51.011  1.00  0.00    -0.206 F 
HETATM   14  C   UNL     1     -41.075  55.281 -52.976  1.00  0.00     0.052 A 
BRANCH   9  15
HETATM   15  C   UNL     1     -40.024  51.617 -53.432  1.00  0.00     0.418 C 
HETATM   16  F   UNL     1     -40.911  51.194 -54.374  1.00  0.00    -0.166 F 
HETATM   17  F   UNL     1     -38.813  51.643 -54.055  1.00  0.00    -0.166 F 
HETATM   18  F   UNL     1     -39.946  50.619 -52.510  1.00  0.00    -0.166 F 
ENDBRANCH   9  15
ENDBRANCH   7   8
ENDBRANCH   3   7
BRANCH   1  19
HETATM   19  C   UNL     1     -43.045  56.887 -57.324  1.00  0.00     0.072 A 
HETATM   20  C   UNL     1     -42.534  57.317 -58.565  1.00  0.00     0.169 A 
HETATM   21  N   UNL     1     -42.376  58.644 -58.624  1.00  0.00    -0.183 NA
HETATM   22  N   UNL     1     -42.756  59.067 -57.404  1.00  0.00    -0.275 N 
HETATM   23  C   UNL     1     -43.148  58.044 -56.586  1.00  0.00     0.143 A 
BRANCH  22  24
HETATM   24  C   UNL     1     -42.707  60.490 -57.083  1.00  0.00     0.101 C 
HETATM   25  C   UNL     1     -41.544  61.177 -57.798  1.00  0.00     0.034 C 
HETATM   26  C   UNL     1     -42.648  60.730 -55.573  1.00  0.00     0.034 C 
ENDBRANCH  22  24
ENDBRANCH   1  19
TORSDOF 5
ENDMDL
MODEL 7
REMARK VINA RESULT:      -7.6      2.971      6.678
REMARK  5 active torsions:
REMARK  status: ('A' for Active; 'I' for Inactive)
REMARK    1  A    between atoms: C_2  and  N_3 
REMARK    2  A    between atoms: C_6  and  N_7 
REMARK       I    between atoms: N_7  and  C_8 
REMARK       I    between atoms: C_8  and  N_9 
REMARK    3  A    between atoms: N_9  and  C_10 
REMARK    4  A    between atoms: C_10  and  C_11 
REMARK    5  A    between atoms: C_12  and  C_13 
ROOT
HETATM    1  N   UNL     1     -40.335  53.211 -49.311  1.00  0.00    -0.306 N 
HETATM    2  C   UNL     1     -41.071  54.351 -49.290  1.00  0.00     0.321 C 
HETATM    3  N   UNL     1     -41.645  54.777 -50.450  1.00  0.00    -0.339 N 
HETATM    4  O   UNL     1     -41.176  54.962 -48.228  1.00  0.00    -0.247 OA
HETATM    5  H   UNL     1     -39.888  53.036 -48.421  1.00  0.00     0.171 HD
HETATM    6  H   UNL     1     -41.112  54.565 -51.280  1.00  0.00     0.164 HD
ENDROOT
BRANCH   3   7
HETATM    7  C   UNL     1     -42.346  56.046 -50.474  1.00  0.00     0.163 C 
BRANCH   7   8
HETATM    8  C   UNL     1     -41.643  57.143 -51.252  1.00  0.00    -0.022 A 
HETATM    9  C   UNL     1     -41.851  57.270 -52.653  1.00  0.00     0.056 A 
HETATM   10  C   UNL     1     -41.142  58.252 -53.376  1.00  0.00     0.020 A 
HETATM   11  C   UNL     1     -40.239  59.097 -52.735  1.00  0.00     0.043 A 
HETATM   12  C   UNL     1     -40.035  58.963 -51.371  1.00  0.00     0.117 A 
HETATM   13  F   UNL     1     -39.157  59.766 -50.755  1.00  0.00    -0.206 F 
HETATM   14  C   UNL     1     -40.716  58.001 -50.632  1.00  0.00     0.052 A 
BRANCH   9  15
HETATM   15  C   UNL     1     -42.795  56.348 -53.403  1.00  0.00     0.418 C 
HETATM   16  F   UNL     1     -42.974  56.723 -54.700  1.00  0.00    -0.166 F 
HETATM   17  F   UNL     1     -42.371  55.054 -53.451  1.00  0.00    -0.166 F 
HETATM   18  F   UNL     1     -44.036  56.312 -52.846  1.00  0.00    -0.166 F 
ENDBRANCH   9  15
ENDBRANCH   7   8
ENDBRANCH   3   7
BRANCH   1  19
HETATM   19  C   UNL     1     -40.148  52.252 -50.285  1.00  0.00     0.072 A 
HETATM   20  C   UNL     1     -40.149  50.843 -50.282  1.00  0.00     0.169 A 
HETATM   21  N   UNL     1     -39.932  50.326 -51.497  1.00  0.00    -0.183 NA
HETATM   22  N   UNL     1     -39.758  51.408 -52.280  1.00  0.00    -0.275 N 
HETATM   23  C   UNL     1     -39.862  52.584 -51.590  1.00  0.00     0.143 A 
BRANCH  22  24
HETATM   24  C   UNL     1     -39.481  51.236 -53.702  1.00  0.00     0.101 C 
HETATM   25  C   UNL     1     -40.134  52.342 -54.529  1.00  0.00     0.034 C 
HETATM   26  C   UNL     1     -39.899  49.851 -54.199  1.00  0.00     0.034 C 
ENDBRANCH  22  24
ENDBRANCH   1  19
TORSDOF 5
ENDMDL
MODEL 8
REMARK VINA RESULT:      -7.6      2.867      4.380
REMARK  5 active torsions:
REMARK  status: ('A' for Active; 'I' for Inactive)
REMARK    1  A    between atoms: C_2  and  N_3 
REMARK    2  A    between atoms: C_6  and  N_7 
REMARK       I    between atoms: N_7  and  C_8 
REMARK       I    between atoms: C_8  and  N_9 
REMARK    3  A    between atoms: N_9  and  C_10 
REMARK    4  A    between atoms: C_10  and  C_11 
REMARK    5  A    between atoms: C_12  and  C_13 
ROOT
HETATM    1  N   UNL     1     -44.565  56.667 -53.649  1.00  0.00    -0.306 N 
HETATM    2  C   UNL     1     -43.661  55.676 -53.858  1.00  0.00     0.321 C 
HETATM    3  N   UNL     1     -42.468  55.735 -53.205  1.00  0.00    -0.339 N 
HETATM    4  O   UNL     1     -43.952  54.774 -54.642  1.00  0.00    -0.247 OA
HETATM    5  H   UNL     1     -45.376  56.569 -54.245  1.00  0.00     0.171 HD
HETATM    6  H   UNL     1     -42.126  56.671 -53.047  1.00  0.00     0.164 HD
ENDROOT
BRANCH   3   7
HETATM    7  C   UNL     1     -41.448  54.745 -53.494  1.00  0.00     0.163 C 
BRANCH   7   8
HETATM    8  C   UNL     1     -40.973  53.955 -52.288  1.00  0.00    -0.022 A 
HETATM    9  C   UNL     1     -40.321  52.704 -52.467  1.00  0.00     0.056 A 
HETATM   10  C   UNL     1     -39.943  51.948 -51.337  1.00  0.00     0.020 A 
HETATM   11  C   UNL     1     -40.201  52.413 -50.050  1.00  0.00     0.043 A 
HETATM   12  C   UNL     1     -40.844  53.629 -49.882  1.00  0.00     0.117 A 
HETATM   13  F   UNL     1     -41.105  54.071 -48.645  1.00  0.00    -0.206 F 
HETATM   14  C   UNL     1     -41.233  54.394 -50.978  1.00  0.00     0.052 A 
BRANCH   9  15
HETATM   15  C   UNL     1     -40.051  52.138 -53.850  1.00  0.00     0.418 C 
HETATM   16  F   UNL     1     -41.157  51.576 -54.411  1.00  0.00    -0.166 F 
HETATM   17  F   UNL     1     -39.620  53.070 -54.746  1.00  0.00    -0.166 F 
HETATM   18  F   UNL     1     -39.098  51.167 -53.836  1.00  0.00    -0.166 F 
ENDBRANCH   9  15
ENDBRANCH   7   8
ENDBRANCH   3   7
BRANCH   1  19
HETATM   19  C   UNL     1     -44.594  57.713 -52.750  1.00  0.00     0.072 A 
HETATM   20  C   UNL     1     -45.098  57.866 -51.443  1.00  0.00     0.169 A 
HETATM   21  N   UNL     1     -44.878  59.088 -50.946  1.00  0.00    -0.183 NA
HETATM   22  N   UNL     1     -44.259  59.736 -51.951  1.00  0.00    -0.275 N 
HETATM   23  C   UNL     1     -44.084  58.954 -53.059  1.00  0.00     0.143 A 
BRANCH  22  24
HETATM   24  C   UNL     1     -43.866  61.131 -51.780  1.00  0.00     0.101 C 
HETATM   25  C   UNL     1     -42.930  61.299 -50.584  1.00  0.00     0.034 C 
HETATM   26  C   UNL     1     -45.081  62.054 -51.667  1.00  0.00     0.034 C 
ENDBRANCH  22  24
ENDBRANCH   1  19
TORSDOF 5
ENDMDL
MODEL 9
REMARK VINA RESULT:      -7.6      3.002      4.505
REMARK  5 active torsions:
REMARK  status: ('A' for Active; 'I' for Inactive)
REMARK    1  A    between atoms: C_2  and  N_3 
REMARK    2  A    between atoms: C_6  and  N_7 
REMARK       I    between atoms: N_7  and  C_8 
REMARK       I    between atoms: C_8  and  N_9 
REMARK    3  A    between atoms: N_9  and  C_10 
REMARK    4  A    between atoms: C_10  and  C_11 
REMARK    5  A    between atoms: C_12  and  C_13 
ROOT
HETATM    1  N   UNL     1     -42.495  57.480 -55.496  1.00  0.00    -0.306 N 
HETATM    2  C   UNL     1     -42.574  56.145 -55.268  1.00  0.00     0.321 C 
HETATM    3  N   UNL     1     -42.406  55.691 -53.995  1.00  0.00    -0.339 N 
HETATM    4  O   UNL     1     -42.778  55.397 -56.223  1.00  0.00    -0.247 OA
HETATM    5  H   UNL     1     -42.550  57.697 -56.483  1.00  0.00     0.171 HD
HETATM    6  H   UNL     1     -41.762  56.236 -53.441  1.00  0.00     0.164 HD
ENDROOT
BRANCH   3   7
HETATM    7  C   UNL     1     -42.380  54.263 -53.745  1.00  0.00     0.163 C 
BRANCH   7   8
HETATM    8  C   UNL     1     -41.596  53.850 -52.513  1.00  0.00    -0.022 A 
HETATM    9  C   UNL     1     -40.559  52.883 -52.619  1.00  0.00     0.056 A 
HETATM   10  C   UNL     1     -39.881  52.459 -51.456  1.00  0.00     0.020 A 
HETATM   11  C   UNL     1     -40.217  52.975 -50.207  1.00  0.00     0.043 A 
HETATM   12  C   UNL     1     -41.234  53.911 -50.109  1.00  0.00     0.117 A 
HETATM   13  F   UNL     1     -41.568  54.398 -48.907  1.00  0.00    -0.206 F 
HETATM   14  C   UNL     1     -41.924  54.344 -51.238  1.00  0.00     0.052 A 
BRANCH   9  15
HETATM   15  C   UNL     1     -40.182  52.264 -53.952  1.00  0.00     0.418 C 
HETATM   16  F   UNL     1     -39.107  51.433 -53.860  1.00  0.00    -0.166 F 
HETATM   17  F   UNL     1     -41.176  51.514 -54.506  1.00  0.00    -0.166 F 
HETATM   18  F   UNL     1     -39.858  53.199 -54.885  1.00  0.00    -0.166 F 
ENDBRANCH   9  15
ENDBRANCH   7   8
ENDBRANCH   3   7
BRANCH   1  19
HETATM   19  C   UNL     1     -42.419  58.559 -54.640  1.00  0.00     0.072 A 
HETATM   20  C   UNL     1     -41.355  59.227 -54.002  1.00  0.00     0.169 A 
HETATM   21  N   UNL     1     -41.769  60.258 -53.256  1.00  0.00    -0.183 NA
HETATM   22  N   UNL     1     -43.109  60.233 -53.388  1.00  0.00    -0.275 N 
HETATM   23  C   UNL     1     -43.543  59.218 -54.196  1.00  0.00     0.143 A 
BRANCH  22  24
HETATM   24  C   UNL     1     -43.924  61.222 -52.691  1.00  0.00     0.101 C 
HETATM   25  C   UNL     1     -43.314  61.586 -51.339  1.00  0.00     0.034 C 
HETATM   26  C   UNL     1     -45.374  60.757 -52.539  1.00  0.00     0.034 C 
ENDBRANCH  22  24
ENDBRANCH   1  19
TORSDOF 5
ENDMDL
MODEL 10
REMARK VINA RESULT:      -7.4      3.471      6.851
REMARK  5 active torsions:
REMARK  status: ('A' for Active; 'I' for Inactive)
REMARK    1  A    between atoms: C_2  and  N_3 
REMARK    2  A    between atoms: C_6  and  N_7 
REMARK       I    between atoms: N_7  and  C_8 
REMARK       I    between atoms: C_8  and  N_9 
REMARK    3  A    between atoms: N_9  and  C_10 
REMARK    4  A    between atoms: C_10  and  C_11 
REMARK    5  A    between atoms: C_12  and  C_13 
ROOT
HETATM    1  N   UNL     1     -40.414  53.030 -49.205  1.00  0.00    -0.306 N 
HETATM    2  C   UNL     1     -40.724  54.349 -49.128  1.00  0.00     0.321 C 
HETATM    3  N   UNL     1     -40.658  55.101 -50.262  1.00  0.00    -0.339 N 
HETATM    4  O   UNL     1     -41.036  54.816 -48.033  1.00  0.00    -0.247 OA
HETATM    5  H   UNL     1     -40.414  52.590 -48.294  1.00  0.00     0.171 HD
HETATM    6  H   UNL     1     -39.941  54.813 -50.910  1.00  0.00     0.164 HD
ENDROOT
BRANCH   3   7
HETATM    7  C   UNL     1     -40.882  56.532 -50.182  1.00  0.00     0.163 C 
BRANCH   7   8
HETATM    8  C   UNL     1     -41.060  57.220 -51.524  1.00  0.00    -0.022 A 
HETATM    9  C   UNL     1     -40.926  58.631 -51.625  1.00  0.00     0.056 A 
HETATM   10  C   UNL     1     -41.158  59.267 -52.862  1.00  0.00     0.020 A 
HETATM   11  C   UNL     1     -41.519  58.527 -53.986  1.00  0.00     0.043 A 
HETATM   12  C   UNL     1     -41.655  57.152 -53.880  1.00  0.00     0.117 A 
HETATM   13  F   UNL     1     -42.015  56.441 -54.957  1.00  0.00    -0.206 F 
HETATM   14  C   UNL     1     -41.438  56.499 -52.671  1.00  0.00     0.052 A 
BRANCH   9  15
HETATM   15  C   UNL     1     -40.572  59.485 -50.419  1.00  0.00     0.418 C 
HETATM   16  F   UNL     1     -40.944  60.786 -50.571  1.00  0.00    -0.166 F 
HETATM   17  F   UNL     1     -41.163  59.068 -49.264  1.00  0.00    -0.166 F 
HETATM   18  F   UNL     1     -39.235  59.499 -50.169  1.00  0.00    -0.166 F 
ENDBRANCH   9  15
ENDBRANCH   7   8
ENDBRANCH   3   7
BRANCH   1  19
HETATM   19  C   UNL     1     -40.170  52.202 -50.281  1.00  0.00     0.072 A 
HETATM   20  C   UNL     1     -40.014  50.809 -50.427  1.00  0.00     0.169 A 
HETATM   21  N   UNL     1     -39.800  50.446 -51.697  1.00  0.00    -0.183 NA
HETATM   22  N   UNL     1     -39.785  51.614 -52.367  1.00  0.00    -0.275 N 
HETATM   23  C   UNL     1     -39.985  52.695 -51.553  1.00  0.00     0.143 A 
BRANCH  22  24
HETATM   24  C   UNL     1     -39.559  51.620 -53.808  1.00  0.00     0.101 C 
HETATM   25  C   UNL     1     -40.236  52.820 -54.468  1.00  0.00     0.034 C 
HETATM   26  C   UNL     1     -40.001  50.308 -54.458  1.00  0.00     0.034 C 
ENDBRANCH  22  24
ENDBRANCH   1  19
TORSDOF 5
ENDMDL
