MODEL 1
REMARK VINA RESULT:      -8.8      0.000      0.000
REMARK  6 active torsions:
REMARK  status: ('A' for Active; 'I' for Inactive)
REMARK    1  A    between atoms: C_4  and  C_5 
REMARK    2  A    between atoms: C_5  and  C_6 
REMARK    3  A    between atoms: C_7  and  N_8 
REMARK       I    between atoms: N_8  and  C_9 
REMARK    4  A    between atoms: C_9  and  C_10 
REMARK    5  A    between atoms: C_15  and  C_16 
REMARK       I    between atoms: C_16  and  N_17 
REMARK    6  A    between atoms: N_17  and  C_18 
ROOT
HETATM    1  N   UNL     1     -42.844  59.053 -54.430  1.00  0.00    -0.321 N 
HETATM    2  C   UNL     1     -41.863  59.463 -53.554  1.00  0.00     0.277 C 
HETATM    3  O   UNL     1     -40.675  59.600 -53.811  1.00  0.00    -0.266 OA
HETATM    4  H   UNL     1     -43.781  59.280 -54.100  1.00  0.00     0.169 HD
ENDROOT
BRANCH   2   5
HETATM    5  C   UNL     1     -42.417  59.786 -52.238  1.00  0.00     0.158 A 
HETATM    6  N   UNL     1     -42.733  61.105 -51.910  1.00  0.00    -0.236 NA
HETATM    7  C   UNL     1     -43.208  61.058 -50.689  1.00  0.00     0.208 A 
HETATM    8  N   UNL     1     -43.232  59.782 -50.217  1.00  0.00    -0.344 N 
HETATM    9  H   UNL     1     -43.571  59.472 -49.314  1.00  0.00     0.167 HD
HETATM   10  C   UNL     1     -42.739  58.932 -51.189  1.00  0.00     0.136 A 
BRANCH  10  11
HETATM   11  C   UNL     1     -42.716  57.498 -50.964  1.00  0.00     0.275 C 
HETATM   12  N   UNL     1     -41.554  56.977 -50.443  1.00  0.00    -0.322 N 
HETATM   13  H   UNL     1     -40.830  57.636 -50.162  1.00  0.00     0.169 HD
HETATM   14  O   UNL     1     -43.717  56.842 -51.234  1.00  0.00    -0.266 OA
BRANCH  12  15
HETATM   15  C   UNL     1     -41.213  55.623 -50.252  1.00  0.00     0.035 A 
HETATM   16  C   UNL     1     -40.960  54.721 -51.285  1.00  0.00     0.029 A 
HETATM   17  C   UNL     1     -40.579  53.406 -50.997  1.00  0.00     0.002 A 
HETATM   18  C   UNL     1     -40.452  52.982 -49.676  1.00  0.00     0.000 A 
HETATM   19  C   UNL     1     -40.709  53.872 -48.638  1.00  0.00     0.002 A 
HETATM   20  C   UNL     1     -41.087  55.185 -48.925  1.00  0.00     0.029 A 
ENDBRANCH  12  15
ENDBRANCH  10  11
ENDBRANCH   2   5
BRANCH   1  21
HETATM   21  C   UNL     1     -42.689  58.598 -55.755  1.00  0.00     0.049 A 
HETATM   22  C   UNL     1     -42.686  57.259 -56.196  1.00  0.00     0.043 A 
HETATM   23  C   UNL     1     -42.434  56.964 -57.549  1.00  0.00     0.041 A 
HETATM   24  C   UNL     1     -42.244  57.989 -58.469  1.00  0.00     0.035 A 
HETATM   25  C   UNL     1     -42.311  59.315 -58.059  1.00  0.00     0.026 A 
HETATM   26 CL   UNL     1     -41.959  57.617 -60.123  1.00  0.00    -0.084 Cl
HETATM   27  C   UNL     1     -42.538  59.616 -56.714  1.00  0.00     0.032 A 
BRANCH  22  28
HETATM   28  C   UNL     1     -43.045  56.072 -55.379  1.00  0.00     0.194 C 
HETATM   29  O   UNL     1     -44.163  56.037 -54.868  1.00  0.00    -0.287 OA
BRANCH  28  30
HETATM   30  C   UNL     1     -42.062  54.991 -55.082  1.00  0.00     0.015 A 
HETATM   31  C   UNL     1     -42.557  53.720 -54.763  1.00  0.00     0.015 A 
HETATM   32  C   UNL     1     -41.686  52.662 -54.504  1.00  0.00     0.001 A 
HETATM   33  C   UNL     1     -40.310  52.873 -54.541  1.00  0.00     0.000 A 
HETATM   34  C   UNL     1     -39.806  54.140 -54.829  1.00  0.00     0.001 A 
HETATM   35  C   UNL     1     -40.677  55.201 -55.094  1.00  0.00     0.015 A 
ENDBRANCH  28  30
ENDBRANCH  22  28
ENDBRANCH   1  21
TORSDOF 6
ENDMDL
MODEL 2
REMARK VINA RESULT:      -8.6      2.842      5.588
REMARK  6 active torsions:
REMARK  status: ('A' for Active; 'I' for Inactive)
REMARK    1  A    between atoms: C_4  and  C_5 
REMARK    2  A    between atoms: C_5  and  C_6 
REMARK    3  A    between atoms: C_7  and  N_8 
REMARK       I    between atoms: N_8  and  C_9 
REMARK    4  A    between atoms: C_9  and  C_10 
REMARK    5  A    between atoms: C_15  and  C_16 
REMARK       I    between atoms: C_16  and  N_17 
REMARK    6  A    between atoms: N_17  and  C_18 
ROOT
HETATM    1  N   UNL     1     -42.783  58.768 -54.265  1.00  0.00    -0.321 N 
HETATM    2  C   UNL     1     -43.744  57.859 -54.646  1.00  0.00     0.277 C 
HETATM    3  O   UNL     1     -44.857  57.733 -54.155  1.00  0.00    -0.266 OA
HETATM    4  H   UNL     1     -42.061  58.893 -54.974  1.00  0.00     0.169 HD
ENDROOT
BRANCH   2   5
HETATM    5  C   UNL     1     -43.303  57.054 -55.788  1.00  0.00     0.158 A 
HETATM    6  N   UNL     1     -43.831  57.283 -57.058  1.00  0.00    -0.236 NA
HETATM    7  C   UNL     1     -43.234  56.422 -57.846  1.00  0.00     0.208 A 
HETATM    8  N   UNL     1     -42.339  55.662 -57.158  1.00  0.00    -0.344 N 
HETATM    9  H   UNL     1     -41.735  54.942 -57.536  1.00  0.00     0.167 HD
HETATM   10  C   UNL     1     -42.347  56.046 -55.831  1.00  0.00     0.136 A 
BRANCH  10  11
HETATM   11  C   UNL     1     -41.430  55.433 -54.887  1.00  0.00     0.275 C 
HETATM   12  N   UNL     1     -41.456  54.060 -54.808  1.00  0.00    -0.322 N 
HETATM   13  H   UNL     1     -42.041  53.564 -55.478  1.00  0.00     0.169 HD
HETATM   14  O   UNL     1     -40.687  56.157 -54.231  1.00  0.00    -0.266 OA
BRANCH  12  15
HETATM   15  C   UNL     1     -40.779  53.224 -53.897  1.00  0.00     0.035 A 
HETATM   16  C   UNL     1     -40.610  53.510 -52.542  1.00  0.00     0.029 A 
HETATM   17  C   UNL     1     -39.965  52.596 -51.702  1.00  0.00     0.002 A 
HETATM   18  C   UNL     1     -39.484  51.391 -52.210  1.00  0.00     0.000 A 
HETATM   19  C   UNL     1     -39.642  51.099 -53.561  1.00  0.00     0.002 A 
HETATM   20  C   UNL     1     -40.288  52.011 -54.399  1.00  0.00     0.029 A 
ENDBRANCH  12  15
ENDBRANCH  10  11
ENDBRANCH   2   5
BRANCH   1  21
HETATM   21  C   UNL     1     -42.817  59.661 -53.174  1.00  0.00     0.049 A 
HETATM   22  C   UNL     1     -42.229  59.472 -51.907  1.00  0.00     0.043 A 
HETATM   23  C   UNL     1     -42.425  60.426 -50.891  1.00  0.00     0.041 A 
HETATM   24  C   UNL     1     -43.150  61.585 -51.145  1.00  0.00     0.035 A 
HETATM   25  C   UNL     1     -43.678  61.815 -52.410  1.00  0.00     0.026 A 
HETATM   26 CL   UNL     1     -43.364  62.754 -49.903  1.00  0.00    -0.084 Cl
HETATM   27  C   UNL     1     -43.507  60.862 -53.417  1.00  0.00     0.032 A 
BRANCH  22  28
HETATM   28  C   UNL     1     -41.288  58.384 -51.536  1.00  0.00     0.194 C 
HETATM   29  O   UNL     1     -40.094  58.542 -51.782  1.00  0.00    -0.287 OA
BRANCH  28  30
HETATM   30  C   UNL     1     -41.764  57.085 -50.979  1.00  0.00     0.015 A 
HETATM   31  C   UNL     1     -40.954  56.436 -50.038  1.00  0.00     0.015 A 
HETATM   32  C   UNL     1     -41.360  55.233 -49.461  1.00  0.00     0.001 A 
HETATM   33  C   UNL     1     -42.570  54.657 -49.837  1.00  0.00     0.000 A 
HETATM   34  C   UNL     1     -43.371  55.279 -50.794  1.00  0.00     0.001 A 
HETATM   35  C   UNL     1     -42.969  56.488 -51.371  1.00  0.00     0.015 A 
ENDBRANCH  28  30
ENDBRANCH  22  28
ENDBRANCH   1  21
TORSDOF 6
ENDMDL
MODEL 3
REMARK VINA RESULT:      -8.5      2.449      4.226
REMARK  6 active torsions:
REMARK  status: ('A' for Active; 'I' for Inactive)
REMARK    1  A    between atoms: C_4  and  C_5 
REMARK    2  A    between atoms: C_5  and  C_6 
REMARK    3  A    between atoms: C_7  and  N_8 
REMARK       I    between atoms: N_8  and  C_9 
REMARK    4  A    between atoms: C_9  and  C_10 
REMARK    5  A    between atoms: C_15  and  C_16 
REMARK       I    between atoms: C_16  and  N_17 
REMARK    6  A    between atoms: N_17  and  C_18 
ROOT
HETATM    1  N   UNL     1     -42.907  58.278 -54.954  1.00  0.00    -0.321 N 
HETATM    2  C   UNL     1     -44.121  57.835 -54.478  1.00  0.00     0.277 C 
HETATM    3  O   UNL     1     -45.160  57.747 -55.118  1.00  0.00    -0.266 OA
HETATM    4  H   UNL     1     -42.130  58.005 -54.352  1.00  0.00     0.169 HD
ENDROOT
BRANCH   2   5
HETATM    5  C   UNL     1     -44.031  57.411 -53.079  1.00  0.00     0.158 A 
HETATM    6  N   UNL     1     -44.939  57.893 -52.137  1.00  0.00    -0.236 NA
HETATM    7  C   UNL     1     -44.601  57.326 -51.004  1.00  0.00     0.208 A 
HETATM    8  N   UNL     1     -43.537  56.494 -51.166  1.00  0.00    -0.344 N 
HETATM    9  H   UNL     1     -43.097  55.922 -50.455  1.00  0.00     0.167 HD
HETATM   10  C   UNL     1     -43.147  56.514 -52.491  1.00  0.00     0.136 A 
BRANCH  10  11
HETATM   11  C   UNL     1     -42.067  55.659 -52.949  1.00  0.00     0.275 C 
HETATM   12  N   UNL     1     -42.179  54.319 -52.659  1.00  0.00    -0.322 N 
HETATM   13  H   UNL     1     -43.048  54.004 -52.232  1.00  0.00     0.169 HD
HETATM   14  O   UNL     1     -41.135  56.164 -53.568  1.00  0.00    -0.266 OA
BRANCH  12  15
HETATM   15  C   UNL     1     -41.229  53.298 -52.863  1.00  0.00     0.035 A 
HETATM   16  C   UNL     1     -40.344  52.839 -51.888  1.00  0.00     0.029 A 
HETATM   17  C   UNL     1     -39.468  51.785 -52.168  1.00  0.00     0.002 A 
HETATM   18  C   UNL     1     -39.468  51.185 -53.425  1.00  0.00     0.000 A 
HETATM   19  C   UNL     1     -40.342  51.640 -54.408  1.00  0.00     0.002 A 
HETATM   20  C   UNL     1     -41.218  52.690 -54.127  1.00  0.00     0.029 A 
ENDBRANCH  12  15
ENDBRANCH  10  11
ENDBRANCH   2   5
BRANCH   1  21
HETATM   21  C   UNL     1     -42.617  58.823 -56.221  1.00  0.00     0.049 A 
HETATM   22  C   UNL     1     -42.609  58.141 -57.455  1.00  0.00     0.043 A 
HETATM   23  C   UNL     1     -42.215  58.813 -58.627  1.00  0.00     0.041 A 
HETATM   24  C   UNL     1     -41.887  60.163 -58.588  1.00  0.00     0.035 A 
HETATM   25  C   UNL     1     -41.955  60.863 -57.389  1.00  0.00     0.026 A 
HETATM   26 CL   UNL     1     -41.428  60.979 -60.030  1.00  0.00    -0.084 Cl
HETATM   27  C   UNL     1     -42.324  60.199 -56.217  1.00  0.00     0.032 A 
BRANCH  22  28
HETATM   28  C   UNL     1     -43.099  56.760 -57.690  1.00  0.00     0.194 C 
HETATM   29  O   UNL     1     -42.590  55.846 -57.042  1.00  0.00    -0.287 OA
BRANCH  28  30
HETATM   30  C   UNL     1     -44.100  56.447 -58.751  1.00  0.00     0.015 A 
HETATM   31  C   UNL     1     -43.805  55.412 -59.648  1.00  0.00     0.015 A 
HETATM   32  C   UNL     1     -44.715  55.054 -60.643  1.00  0.00     0.001 A 
HETATM   33  C   UNL     1     -45.918  55.744 -60.762  1.00  0.00     0.000 A 
HETATM   34  C   UNL     1     -46.209  56.795 -59.893  1.00  0.00     0.001 A 
HETATM   35  C   UNL     1     -45.301  57.152 -58.891  1.00  0.00     0.015 A 
ENDBRANCH  28  30
ENDBRANCH  22  28
ENDBRANCH   1  21
TORSDOF 6
ENDMDL
MODEL 4
REMARK VINA RESULT:      -8.4      3.172      5.829
REMARK  6 active torsions:
REMARK  status: ('A' for Active; 'I' for Inactive)
REMARK    1  A    between atoms: C_4  and  C_5 
REMARK    2  A    between atoms: C_5  and  C_6 
REMARK    3  A    between atoms: C_7  and  N_8 
REMARK       I    between atoms: N_8  and  C_9 
REMARK    4  A    between atoms: C_9  and  C_10 
REMARK    5  A    between atoms: C_15  and  C_16 
REMARK       I    between atoms: C_16  and  N_17 
REMARK    6  A    between atoms: N_17  and  C_18 
ROOT
HETATM    1  N   UNL     1     -44.999  58.737 -54.684  1.00  0.00    -0.321 N 
HETATM    2  C   UNL     1     -44.445  59.198 -55.857  1.00  0.00     0.277 C 
HETATM    3  O   UNL     1     -43.597  60.073 -55.962  1.00  0.00    -0.266 OA
HETATM    4  H   UNL     1     -45.457  57.833 -54.798  1.00  0.00     0.169 HD
ENDROOT
BRANCH   2   5
HETATM    5  C   UNL     1     -44.957  58.468 -57.019  1.00  0.00     0.158 A 
HETATM    6  N   UNL     1     -45.995  58.998 -57.784  1.00  0.00    -0.236 NA
HETATM    7  C   UNL     1     -46.209  58.125 -58.738  1.00  0.00     0.208 A 
HETATM    8  N   UNL     1     -45.356  57.069 -58.641  1.00  0.00    -0.344 N 
HETATM    9  H   UNL     1     -45.300  56.272 -59.264  1.00  0.00     0.167 HD
HETATM   10  C   UNL     1     -44.527  57.257 -57.552  1.00  0.00     0.136 A 
BRANCH  10  11
HETATM   11  C   UNL     1     -43.475  56.301 -57.260  1.00  0.00     0.275 C 
HETATM   12  N   UNL     1     -43.431  55.808 -55.976  1.00  0.00    -0.322 N 
HETATM   13  H   UNL     1     -44.190  56.069 -55.349  1.00  0.00     0.169 HD
HETATM   14  O   UNL     1     -42.702  55.981 -58.158  1.00  0.00    -0.266 OA
BRANCH  12  15
HETATM   15  C   UNL     1     -42.451  54.981 -55.391  1.00  0.00     0.035 A 
HETATM   16  C   UNL     1     -42.696  53.703 -54.891  1.00  0.00     0.029 A 
HETATM   17  C   UNL     1     -41.649  52.935 -54.371  1.00  0.00     0.002 A 
HETATM   18  C   UNL     1     -40.351  53.439 -54.344  1.00  0.00     0.000 A 
HETATM   19  C   UNL     1     -40.097  54.717 -54.835  1.00  0.00     0.002 A 
HETATM   20  C   UNL     1     -41.142  55.482 -55.356  1.00  0.00     0.029 A 
ENDBRANCH  12  15
ENDBRANCH  10  11
ENDBRANCH   2   5
BRANCH   1  21
HETATM   21  C   UNL     1     -44.805  59.232 -53.379  1.00  0.00     0.049 A 
HETATM   22  C   UNL     1     -43.804  58.843 -52.465  1.00  0.00     0.043 A 
HETATM   23  C   UNL     1     -43.796  59.375 -51.162  1.00  0.00     0.041 A 
HETATM   24  C   UNL     1     -44.736  60.328 -50.785  1.00  0.00     0.035 A 
HETATM   25  C   UNL     1     -45.686  60.769 -51.697  1.00  0.00     0.026 A 
HETATM   26 CL   UNL     1     -44.702  60.987 -49.197  1.00  0.00    -0.084 Cl
HETATM   27  C   UNL     1     -45.715  60.230 -52.986  1.00  0.00     0.032 A 
BRANCH  22  28
HETATM   28  C   UNL     1     -42.636  57.978 -52.768  1.00  0.00     0.194 C 
HETATM   29  O   UNL     1     -41.867  58.334 -53.659  1.00  0.00    -0.287 OA
BRANCH  28  30
HETATM   30  C   UNL     1     -42.437  56.658 -52.102  1.00  0.00     0.015 A 
HETATM   31  C   UNL     1     -43.552  55.823 -51.952  1.00  0.00     0.015 A 
HETATM   32  C   UNL     1     -43.422  54.565 -51.364  1.00  0.00     0.001 A 
HETATM   33  C   UNL     1     -42.180  54.141 -50.901  1.00  0.00     0.000 A 
HETATM   34  C   UNL     1     -41.069  54.976 -51.019  1.00  0.00     0.001 A 
HETATM   35  C   UNL     1     -41.195  56.235 -51.613  1.00  0.00     0.015 A 
ENDBRANCH  28  30
ENDBRANCH  22  28
ENDBRANCH   1  21
TORSDOF 6
ENDMDL
MODEL 5
REMARK VINA RESULT:      -8.3      3.339      7.085
REMARK  6 active torsions:
REMARK  status: ('A' for Active; 'I' for Inactive)
REMARK    1  A    between atoms: C_4  and  C_5 
REMARK    2  A    between atoms: C_5  and  C_6 
REMARK    3  A    between atoms: C_7  and  N_8 
REMARK       I    between atoms: N_8  and  C_9 
REMARK    4  A    between atoms: C_9  and  C_10 
REMARK    5  A    between atoms: C_15  and  C_16 
REMARK       I    between atoms: C_16  and  N_17 
REMARK    6  A    between atoms: N_17  and  C_18 
ROOT
HETATM    1  N   UNL     1     -41.496  56.908 -52.614  1.00  0.00    -0.321 N 
HETATM    2  C   UNL     1     -42.680  57.157 -53.272  1.00  0.00     0.277 C 
HETATM    3  O   UNL     1     -43.767  56.659 -53.018  1.00  0.00    -0.266 OA
HETATM    4  H   UNL     1     -40.792  57.624 -52.793  1.00  0.00     0.169 HD
ENDROOT
BRANCH   2   5
HETATM    5  C   UNL     1     -42.512  58.165 -54.321  1.00  0.00     0.158 A 
HETATM    6  N   UNL     1     -41.989  59.421 -54.015  1.00  0.00    -0.236 NA
HETATM    7  C   UNL     1     -41.958  60.073 -55.152  1.00  0.00     0.208 A 
HETATM    8  N   UNL     1     -42.415  59.303 -56.176  1.00  0.00    -0.344 N 
HETATM    9  H   UNL     1     -42.473  59.562 -57.154  1.00  0.00     0.167 HD
HETATM   10  C   UNL     1     -42.773  58.063 -55.683  1.00  0.00     0.136 A 
BRANCH  10  11
HETATM   11  C   UNL     1     -43.234  57.023 -56.584  1.00  0.00     0.275 C 
HETATM   12  N   UNL     1     -43.668  57.432 -57.824  1.00  0.00    -0.322 N 
HETATM   13  H   UNL     1     -43.548  58.415 -58.061  1.00  0.00     0.169 HD
HETATM   14  O   UNL     1     -43.203  55.856 -56.205  1.00  0.00    -0.266 OA
BRANCH  12  15
HETATM   15  C   UNL     1     -44.283  56.663 -58.832  1.00  0.00     0.035 A 
HETATM   16  C   UNL     1     -43.702  55.549 -59.437  1.00  0.00     0.029 A 
HETATM   17  C   UNL     1     -44.409  54.816 -60.396  1.00  0.00     0.002 A 
HETATM   18  C   UNL     1     -45.701  55.192 -60.759  1.00  0.00     0.000 A 
HETATM   19  C   UNL     1     -46.287  56.306 -60.166  1.00  0.00     0.002 A 
HETATM   20  C   UNL     1     -45.582  57.036 -59.207  1.00  0.00     0.029 A 
ENDBRANCH  12  15
ENDBRANCH  10  11
ENDBRANCH   2   5
BRANCH   1  21
HETATM   21  C   UNL     1     -41.249  55.962 -51.599  1.00  0.00     0.049 A 
HETATM   22  C   UNL     1     -40.899  54.607 -51.771  1.00  0.00     0.043 A 
HETATM   23  C   UNL     1     -40.768  53.766 -50.651  1.00  0.00     0.041 A 
HETATM   24  C   UNL     1     -40.927  54.274 -49.367  1.00  0.00     0.035 A 
HETATM   25  C   UNL     1     -41.207  55.623 -49.180  1.00  0.00     0.026 A 
HETATM   26 CL   UNL     1     -40.744  53.242 -48.004  1.00  0.00    -0.084 Cl
HETATM   27  C   UNL     1     -41.361  56.460 -50.289  1.00  0.00     0.032 A 
BRANCH  22  28
HETATM   28  C   UNL     1     -40.524  53.961 -53.055  1.00  0.00     0.194 C 
HETATM   29  O   UNL     1     -40.536  54.647 -54.075  1.00  0.00    -0.287 OA
BRANCH  28  30
HETATM   30  C   UNL     1     -40.242  52.499 -53.149  1.00  0.00     0.015 A 
HETATM   31  C   UNL     1     -40.623  51.830 -54.321  1.00  0.00     0.015 A 
HETATM   32  C   UNL     1     -40.359  50.470 -54.479  1.00  0.00     0.001 A 
HETATM   33  C   UNL     1     -39.732  49.762 -53.457  1.00  0.00     0.000 A 
HETATM   34  C   UNL     1     -39.376  50.411 -52.276  1.00  0.00     0.001 A 
HETATM   35  C   UNL     1     -39.634  51.775 -52.116  1.00  0.00     0.015 A 
ENDBRANCH  28  30
ENDBRANCH  22  28
ENDBRANCH   1  21
TORSDOF 6
ENDMDL
MODEL 6
REMARK VINA RESULT:      -8.2      2.875      5.423
REMARK  6 active torsions:
REMARK  status: ('A' for Active; 'I' for Inactive)
REMARK    1  A    between atoms: C_4  and  C_5 
REMARK    2  A    between atoms: C_5  and  C_6 
REMARK    3  A    between atoms: C_7  and  N_8 
REMARK       I    between atoms: N_8  and  C_9 
REMARK    4  A    between atoms: C_9  and  C_10 
REMARK    5  A    between atoms: C_15  and  C_16 
REMARK       I    between atoms: C_16  and  N_17 
REMARK    6  A    between atoms: N_17  and  C_18 
ROOT
HETATM    1  N   UNL     1     -43.197  58.302 -54.109  1.00  0.00    -0.321 N 
HETATM    2  C   UNL     1     -42.060  57.616 -54.475  1.00  0.00     0.277 C 
HETATM    3  O   UNL     1     -40.983  57.642 -53.897  1.00  0.00    -0.266 OA
HETATM    4  H   UNL     1     -44.038  57.924 -54.545  1.00  0.00     0.169 HD
ENDROOT
BRANCH   2   5
HETATM    5  C   UNL     1     -42.294  56.772 -55.648  1.00  0.00     0.158 A 
HETATM    6  N   UNL     1     -42.465  57.347 -56.907  1.00  0.00    -0.236 NA
HETATM    7  C   UNL     1     -42.640  56.342 -57.731  1.00  0.00     0.208 A 
HETATM    8  N   UNL     1     -42.574  55.151 -57.076  1.00  0.00    -0.344 N 
HETATM    9  H   UNL     1     -42.655  54.226 -57.483  1.00  0.00     0.167 HD
HETATM   10  C   UNL     1     -42.343  55.385 -55.734  1.00  0.00     0.136 A 
BRANCH  10  11
HETATM   11  C   UNL     1     -42.164  54.274 -54.818  1.00  0.00     0.275 C 
HETATM   12  N   UNL     1     -40.901  53.734 -54.745  1.00  0.00    -0.322 N 
HETATM   13  H   UNL     1     -40.160  54.205 -55.261  1.00  0.00     0.169 HD
HETATM   14  O   UNL     1     -43.127  53.891 -54.160  1.00  0.00    -0.266 OA
BRANCH  12  15
HETATM   15  C   UNL     1     -40.482  52.582 -54.049  1.00  0.00     0.035 A 
HETATM   16  C   UNL     1     -40.462  51.298 -54.592  1.00  0.00     0.029 A 
HETATM   17  C   UNL     1     -39.982  50.220 -53.840  1.00  0.00     0.002 A 
HETATM   18  C   UNL     1     -39.522  50.418 -52.540  1.00  0.00     0.000 A 
HETATM   19  C   UNL     1     -39.544  51.694 -51.987  1.00  0.00     0.002 A 
HETATM   20  C   UNL     1     -40.021  52.770 -52.738  1.00  0.00     0.029 A 
ENDBRANCH  12  15
ENDBRANCH  10  11
ENDBRANCH   2   5
BRANCH   1  21
HETATM   21  C   UNL     1     -43.343  59.254 -53.080  1.00  0.00     0.049 A 
HETATM   22  C   UNL     1     -43.898  59.041 -51.801  1.00  0.00     0.043 A 
HETATM   23  C   UNL     1     -44.050  60.120 -50.912  1.00  0.00     0.041 A 
HETATM   24  C   UNL     1     -43.605  61.390 -51.263  1.00  0.00     0.035 A 
HETATM   25  C   UNL     1     -42.995  61.599 -52.494  1.00  0.00     0.026 A 
HETATM   26 CL   UNL     1     -43.776  62.697 -50.159  1.00  0.00    -0.084 Cl
HETATM   27  C   UNL     1     -42.861  60.537 -53.392  1.00  0.00     0.032 A 
BRANCH  22  28
HETATM   28  C   UNL     1     -44.255  57.724 -51.215  1.00  0.00     0.194 C 
HETATM   29  O   UNL     1     -45.431  57.522 -50.917  1.00  0.00    -0.287 OA
BRANCH  28  30
HETATM   30  C   UNL     1     -43.221  56.701 -50.885  1.00  0.00     0.015 A 
HETATM   31  C   UNL     1     -43.601  55.352 -50.903  1.00  0.00     0.015 A 
HETATM   32  C   UNL     1     -42.671  54.348 -50.632  1.00  0.00     0.001 A 
HETATM   33  C   UNL     1     -41.358  54.687 -50.319  1.00  0.00     0.000 A 
HETATM   34  C   UNL     1     -40.976  56.027 -50.269  1.00  0.00     0.001 A 
HETATM   35  C   UNL     1     -41.904  57.035 -50.545  1.00  0.00     0.015 A 
ENDBRANCH  28  30
ENDBRANCH  22  28
ENDBRANCH   1  21
TORSDOF 6
ENDMDL
MODEL 7
REMARK VINA RESULT:      -8.2      2.160      4.708
REMARK  6 active torsions:
REMARK  status: ('A' for Active; 'I' for Inactive)
REMARK    1  A    between atoms: C_4  and  C_5 
REMARK    2  A    between atoms: C_5  and  C_6 
REMARK    3  A    between atoms: C_7  and  N_8 
REMARK       I    between atoms: N_8  and  C_9 
REMARK    4  A    between atoms: C_9  and  C_10 
REMARK    5  A    between atoms: C_15  and  C_16 
REMARK       I    between atoms: C_16  and  N_17 
REMARK    6  A    between atoms: N_17  and  C_18 
ROOT
HETATM    1  N   UNL     1     -42.121  56.864 -54.720  1.00  0.00    -0.321 N 
HETATM    2  C   UNL     1     -42.907  56.989 -53.595  1.00  0.00     0.277 C 
HETATM    3  O   UNL     1     -44.121  57.133 -53.573  1.00  0.00    -0.266 OA
HETATM    4  H   UNL     1     -41.202  56.473 -54.512  1.00  0.00     0.169 HD
ENDROOT
BRANCH   2   5
HETATM    5  C   UNL     1     -42.115  56.872 -52.369  1.00  0.00     0.158 A 
HETATM    6  N   UNL     1     -41.838  58.002 -51.599  1.00  0.00    -0.236 NA
HETATM    7  C   UNL     1     -41.133  57.568 -50.582  1.00  0.00     0.208 A 
HETATM    8  N   UNL     1     -40.955  56.221 -50.644  1.00  0.00    -0.344 N 
HETATM    9  H   UNL     1     -40.467  55.640 -49.972  1.00  0.00     0.167 HD
HETATM   10  C   UNL     1     -41.581  55.734 -51.775  1.00  0.00     0.136 A 
BRANCH  10  11
HETATM   11  C   UNL     1     -41.598  54.308 -52.046  1.00  0.00     0.275 C 
HETATM   12  N   UNL     1     -40.376  53.681 -52.116  1.00  0.00    -0.322 N 
HETATM   13  H   UNL     1     -39.552  54.234 -51.880  1.00  0.00     0.169 HD
HETATM   14  O   UNL     1     -42.681  53.746 -52.183  1.00  0.00    -0.266 OA
BRANCH  12  15
HETATM   15  C   UNL     1     -40.096  52.352 -52.490  1.00  0.00     0.035 A 
HETATM   16  C   UNL     1     -39.699  51.351 -51.603  1.00  0.00     0.029 A 
HETATM   17  C   UNL     1     -39.491  50.045 -52.059  1.00  0.00     0.002 A 
HETATM   18  C   UNL     1     -39.674  49.731 -53.404  1.00  0.00     0.000 A 
HETATM   19  C   UNL     1     -40.063  50.723 -54.298  1.00  0.00     0.002 A 
HETATM   20  C   UNL     1     -40.273  52.026 -53.843  1.00  0.00     0.029 A 
ENDBRANCH  12  15
ENDBRANCH  10  11
ENDBRANCH   2   5
BRANCH   1  21
HETATM   21  C   UNL     1     -42.511  56.987 -56.068  1.00  0.00     0.049 A 
HETATM   22  C   UNL     1     -42.731  58.183 -56.781  1.00  0.00     0.043 A 
HETATM   23  C   UNL     1     -43.202  58.137 -58.106  1.00  0.00     0.041 A 
HETATM   24  C   UNL     1     -43.398  56.915 -58.741  1.00  0.00     0.035 A 
HETATM   25  C   UNL     1     -43.121  55.729 -58.072  1.00  0.00     0.026 A 
HETATM   26 CL   UNL     1     -43.952  56.870 -60.368  1.00  0.00    -0.084 Cl
HETATM   27  C   UNL     1     -42.675  55.767 -56.748  1.00  0.00     0.032 A 
BRANCH  22  28
HETATM   28  C   UNL     1     -42.402  59.552 -56.309  1.00  0.00     0.194 C 
HETATM   29  O   UNL     1     -41.458  60.137 -56.838  1.00  0.00    -0.287 OA
BRANCH  28  30
HETATM   30  C   UNL     1     -43.108  60.180 -55.155  1.00  0.00     0.015 A 
HETATM   31  C   UNL     1     -44.504  60.278 -55.213  1.00  0.00     0.015 A 
HETATM   32  C   UNL     1     -45.222  60.830 -54.151  1.00  0.00     0.001 A 
HETATM   33  C   UNL     1     -44.546  61.307 -53.032  1.00  0.00     0.000 A 
HETATM   34  C   UNL     1     -43.155  61.241 -52.976  1.00  0.00     0.001 A 
HETATM   35  C   UNL     1     -42.433  60.685 -54.036  1.00  0.00     0.015 A 
ENDBRANCH  28  30
ENDBRANCH  22  28
ENDBRANCH   1  21
TORSDOF 6
ENDMDL
MODEL 8
REMARK VINA RESULT:      -7.8      3.078      5.730
REMARK  6 active torsions:
REMARK  status: ('A' for Active; 'I' for Inactive)
REMARK    1  A    between atoms: C_4  and  C_5 
REMARK    2  A    between atoms: C_5  and  C_6 
REMARK    3  A    between atoms: C_7  and  N_8 
REMARK       I    between atoms: N_8  and  C_9 
REMARK    4  A    between atoms: C_9  and  C_10 
REMARK    5  A    between atoms: C_15  and  C_16 
REMARK       I    between atoms: C_16  and  N_17 
REMARK    6  A    between atoms: N_17  and  C_18 
ROOT
HETATM    1  N   UNL     1     -44.407  59.116 -54.653  1.00  0.00    -0.321 N 
HETATM    2  C   UNL     1     -44.639  57.806 -55.012  1.00  0.00     0.277 C 
HETATM    3  O   UNL     1     -45.554  57.099 -54.616  1.00  0.00    -0.266 OA
HETATM    4  H   UNL     1     -43.781  59.593 -55.302  1.00  0.00     0.169 HD
ENDROOT
BRANCH   2   5
HETATM    5  C   UNL     1     -43.666  57.338 -56.002  1.00  0.00     0.158 A 
HETATM    6  N   UNL     1     -43.400  58.096 -57.142  1.00  0.00    -0.236 NA
HETATM    7  C   UNL     1     -42.494  57.421 -57.807  1.00  0.00     0.208 A 
HETATM    8  N   UNL     1     -42.149  56.280 -57.153  1.00  0.00    -0.344 N 
HETATM    9  H   UNL     1     -41.459  55.597 -57.442  1.00  0.00     0.167 HD
HETATM   10  C   UNL     1     -42.875  56.195 -55.980  1.00  0.00     0.136 A 
BRANCH  10  11
HETATM   11  C   UNL     1     -42.649  55.098 -55.057  1.00  0.00     0.275 C 
HETATM   12  N   UNL     1     -41.359  54.924 -54.612  1.00  0.00    -0.322 N 
HETATM   13  H   UNL     1     -40.673  55.628 -54.881  1.00  0.00     0.169 HD
HETATM   14  O   UNL     1     -43.604  54.404 -54.720  1.00  0.00    -0.266 OA
BRANCH  12  15
HETATM   15  C   UNL     1     -40.839  53.875 -53.828  1.00  0.00     0.035 A 
HETATM   16  C   UNL     1     -40.354  52.673 -54.343  1.00  0.00     0.029 A 
HETATM   17  C   UNL     1     -39.810  51.707 -53.491  1.00  0.00     0.002 A 
HETATM   18  C   UNL     1     -39.748  51.935 -52.117  1.00  0.00     0.000 A 
HETATM   19  C   UNL     1     -40.235  53.128 -51.593  1.00  0.00     0.002 A 
HETATM   20  C   UNL     1     -40.777  54.093 -52.444  1.00  0.00     0.029 A 
ENDBRANCH  12  15
ENDBRANCH  10  11
ENDBRANCH   2   5
BRANCH   1  21
HETATM   21  C   UNL     1     -45.086  59.884 -53.686  1.00  0.00     0.049 A 
HETATM   22  C   UNL     1     -45.256  59.570 -52.322  1.00  0.00     0.043 A 
HETATM   23  C   UNL     1     -46.036  60.404 -51.500  1.00  0.00     0.041 A 
HETATM   24  C   UNL     1     -46.597  61.569 -52.010  1.00  0.00     0.035 A 
HETATM   25  C   UNL     1     -46.382  61.924 -53.336  1.00  0.00     0.026 A 
HETATM   26 CL   UNL     1     -47.531  62.592 -50.991  1.00  0.00    -0.084 Cl
HETATM   27  C   UNL     1     -45.627  61.090 -54.165  1.00  0.00     0.032 A 
BRANCH  22  28
HETATM   28  C   UNL     1     -44.581  58.468 -51.591  1.00  0.00     0.194 C 
HETATM   29  O   UNL     1     -45.276  57.556 -51.148  1.00  0.00    -0.287 OA
BRANCH  28  30
HETATM   30  C   UNL     1     -43.119  58.496 -51.295  1.00  0.00     0.015 A 
HETATM   31  C   UNL     1     -42.538  59.727 -50.965  1.00  0.00     0.015 A 
HETATM   32  C   UNL     1     -41.182  59.811 -50.650  1.00  0.00     0.001 A 
HETATM   33  C   UNL     1     -40.391  58.666 -50.684  1.00  0.00     0.000 A 
HETATM   34  C   UNL     1     -40.952  57.441 -51.040  1.00  0.00     0.001 A 
HETATM   35  C   UNL     1     -42.312  57.352 -51.351  1.00  0.00     0.015 A 
ENDBRANCH  28  30
ENDBRANCH  22  28
ENDBRANCH   1  21
TORSDOF 6
ENDMDL
MODEL 9
REMARK VINA RESULT:      -7.8      2.449      4.986
REMARK  6 active torsions:
REMARK  status: ('A' for Active; 'I' for Inactive)
REMARK    1  A    between atoms: C_4  and  C_5 
REMARK    2  A    between atoms: C_5  and  C_6 
REMARK    3  A    between atoms: C_7  and  N_8 
REMARK       I    between atoms: N_8  and  C_9 
REMARK    4  A    between atoms: C_9  and  C_10 
REMARK    5  A    between atoms: C_15  and  C_16 
REMARK       I    between atoms: C_16  and  N_17 
REMARK    6  A    between atoms: N_17  and  C_18 
ROOT
HETATM    1  N   UNL     1     -42.859  56.953 -56.216  1.00  0.00    -0.321 N 
HETATM    2  C   UNL     1     -43.517  57.300 -55.056  1.00  0.00     0.277 C 
HETATM    3  O   UNL     1     -44.728  57.335 -54.895  1.00  0.00    -0.266 OA
HETATM    4  H   UNL     1     -41.880  56.716 -56.052  1.00  0.00     0.169 HD
ENDROOT
BRANCH   2   5
HETATM    5  C   UNL     1     -42.579  57.584 -53.968  1.00  0.00     0.158 A 
HETATM    6  N   UNL     1     -42.733  58.728 -53.185  1.00  0.00    -0.236 NA
HETATM    7  C   UNL     1     -41.759  58.687 -52.309  1.00  0.00     0.208 A 
HETATM    8  N   UNL     1     -40.995  57.573 -52.472  1.00  0.00    -0.344 N 
HETATM    9  H   UNL     1     -40.197  57.294 -51.914  1.00  0.00     0.167 HD
HETATM   10  C   UNL     1     -41.497  56.832 -53.525  1.00  0.00     0.136 A 
BRANCH  10  11
HETATM   11  C   UNL     1     -40.900  55.554 -53.870  1.00  0.00     0.275 C 
HETATM   12  N   UNL     1     -41.243  54.482 -53.080  1.00  0.00    -0.322 N 
HETATM   13  H   UNL     1     -41.960  54.633 -52.372  1.00  0.00     0.169 HD
HETATM   14  O   UNL     1     -40.146  55.497 -54.837  1.00  0.00    -0.266 OA
BRANCH  12  15
HETATM   15  C   UNL     1     -40.719  53.174 -53.106  1.00  0.00     0.035 A 
HETATM   16  C   UNL     1     -40.736  52.341 -54.224  1.00  0.00     0.029 A 
HETATM   17  C   UNL     1     -40.146  51.074 -54.171  1.00  0.00     0.002 A 
HETATM   18  C   UNL     1     -39.536  50.630 -52.999  1.00  0.00     0.000 A 
HETATM   19  C   UNL     1     -39.519  51.451 -51.876  1.00  0.00     0.002 A 
HETATM   20  C   UNL     1     -40.106  52.717 -51.931  1.00  0.00     0.029 A 
ENDBRANCH  12  15
ENDBRANCH  10  11
ENDBRANCH   2   5
BRANCH   1  21
HETATM   21  C   UNL     1     -43.415  56.679 -57.481  1.00  0.00     0.049 A 
HETATM   22  C   UNL     1     -44.085  57.587 -58.326  1.00  0.00     0.043 A 
HETATM   23  C   UNL     1     -44.661  57.136 -59.528  1.00  0.00     0.041 A 
HETATM   24  C   UNL     1     -44.526  55.808 -59.918  1.00  0.00     0.035 A 
HETATM   25  C   UNL     1     -43.811  54.918 -59.126  1.00  0.00     0.026 A 
HETATM   26 CL   UNL     1     -45.215  55.273 -61.400  1.00  0.00    -0.084 Cl
HETATM   27  C   UNL     1     -43.256  55.353 -57.920  1.00  0.00     0.032 A 
BRANCH  22  28
HETATM   28  C   UNL     1     -44.159  59.058 -58.140  1.00  0.00     0.194 C 
HETATM   29  O   UNL     1     -45.207  59.536 -57.707  1.00  0.00    -0.287 OA
BRANCH  28  30
HETATM   30  C   UNL     1     -43.051  59.965 -58.559  1.00  0.00     0.015 A 
HETATM   31  C   UNL     1     -42.840  60.154 -59.932  1.00  0.00     0.015 A 
HETATM   32  C   UNL     1     -41.837  61.012 -60.384  1.00  0.00     0.001 A 
HETATM   33  C   UNL     1     -41.024  61.671 -59.467  1.00  0.00     0.000 A 
HETATM   34  C   UNL     1     -41.206  61.468 -58.100  1.00  0.00     0.001 A 
HETATM   35  C   UNL     1     -42.213  60.612 -57.643  1.00  0.00     0.015 A 
ENDBRANCH  28  30
ENDBRANCH  22  28
ENDBRANCH   1  21
TORSDOF 6
ENDMDL
MODEL 10
REMARK VINA RESULT:      -7.7      2.784      4.631
REMARK  6 active torsions:
REMARK  status: ('A' for Active; 'I' for Inactive)
REMARK    1  A    between atoms: C_4  and  C_5 
REMARK    2  A    between atoms: C_5  and  C_6 
REMARK    3  A    between atoms: C_7  and  N_8 
REMARK       I    between atoms: N_8  and  C_9 
REMARK    4  A    between atoms: C_9  and  C_10 
REMARK    5  A    between atoms: C_15  and  C_16 
REMARK       I    between atoms: C_16  and  N_17 
REMARK    6  A    between atoms: N_17  and  C_18 
ROOT
HETATM    1  N   UNL     1     -42.893  58.940 -56.152  1.00  0.00    -0.321 N 
HETATM    2  C   UNL     1     -42.632  57.623 -55.847  1.00  0.00     0.277 C 
HETATM    3  O   UNL     1     -42.138  56.792 -56.595  1.00  0.00    -0.266 OA
HETATM    4  H   UNL     1     -43.032  59.513 -55.320  1.00  0.00     0.169 HD
ENDROOT
BRANCH   2   5
HETATM    5  C   UNL     1     -42.971  57.314 -54.456  1.00  0.00     0.158 A 
HETATM    6  N   UNL     1     -44.006  57.995 -53.815  1.00  0.00    -0.236 NA
HETATM    7  C   UNL     1     -44.063  57.488 -52.607  1.00  0.00     0.208 A 
HETATM    8  N   UNL     1     -43.135  56.507 -52.439  1.00  0.00    -0.344 N 
HETATM    9  H   UNL     1     -42.987  55.945 -51.609  1.00  0.00     0.167 HD
HETATM   10  C   UNL     1     -42.418  56.359 -53.611  1.00  0.00     0.136 A 
BRANCH  10  11
HETATM   11  C   UNL     1     -41.403  55.328 -53.721  1.00  0.00     0.275 C 
HETATM   12  N   UNL     1     -41.764  54.063 -53.318  1.00  0.00    -0.322 N 
HETATM   13  H   UNL     1     -42.739  53.914 -53.062  1.00  0.00     0.169 HD
HETATM   14  O   UNL     1     -40.301  55.630 -54.171  1.00  0.00    -0.266 OA
BRANCH  12  15
HETATM   15  C   UNL     1     -40.950  52.919 -53.194  1.00  0.00     0.035 A 
HETATM   16  C   UNL     1     -40.235  52.583 -52.045  1.00  0.00     0.029 A 
HETATM   17  C   UNL     1     -39.491  51.400 -51.997  1.00  0.00     0.002 A 
HETATM   18  C   UNL     1     -39.455  50.545 -53.097  1.00  0.00     0.000 A 
HETATM   19  C   UNL     1     -40.160  50.874 -54.250  1.00  0.00     0.002 A 
HETATM   20  C   UNL     1     -40.904  52.055 -54.297  1.00  0.00     0.029 A 
ENDBRANCH  12  15
ENDBRANCH  10  11
ENDBRANCH   2   5
BRANCH   1  21
HETATM   21  C   UNL     1     -42.761  59.585 -57.398  1.00  0.00     0.049 A 
HETATM   22  C   UNL     1     -43.561  59.389 -58.542  1.00  0.00     0.043 A 
HETATM   23  C   UNL     1     -43.246  60.052 -59.743  1.00  0.00     0.041 A 
HETATM   24  C   UNL     1     -42.182  60.946 -59.796  1.00  0.00     0.035 A 
HETATM   25  C   UNL     1     -41.427  61.198 -58.657  1.00  0.00     0.026 A 
HETATM   26 CL   UNL     1     -41.820  61.766 -61.262  1.00  0.00    -0.084 Cl
HETATM   27  C   UNL     1     -41.719  60.527 -57.467  1.00  0.00     0.032 A 
BRANCH  22  28
HETATM   28  C   UNL     1     -44.825  58.613 -58.599  1.00  0.00     0.194 C 
HETATM   29  O   UNL     1     -45.779  59.008 -57.931  1.00  0.00    -0.287 OA
BRANCH  28  30
HETATM   30  C   UNL     1     -44.929  57.328 -59.349  1.00  0.00     0.015 A 
HETATM   31  C   UNL     1     -46.106  57.079 -60.068  1.00  0.00     0.015 A 
HETATM   32  C   UNL     1     -46.250  55.908 -60.812  1.00  0.00     0.001 A 
HETATM   33  C   UNL     1     -45.225  54.966 -60.826  1.00  0.00     0.000 A 
HETATM   34  C   UNL     1     -44.062  55.190 -60.091  1.00  0.00     0.001 A 
HETATM   35  C   UNL     1     -43.913  56.365 -59.349  1.00  0.00     0.015 A 
ENDBRANCH  28  30
ENDBRANCH  22  28
ENDBRANCH   1  21
TORSDOF 6
ENDMDL
