MODEL 1
REMARK VINA RESULT:      -7.8      0.000      0.000
REMARK  7 active torsions:
REMARK  status: ('A' for Active; 'I' for Inactive)
REMARK    1  A    between atoms: N_2  and  C_4 
REMARK       I    between atoms: N_7  and  C_8 
REMARK    2  A    between atoms: C_8  and  C_9 
REMARK    3  A    between atoms: N_12  and  C_13 
REMARK    4  A    between atoms: C_20  and  C_21 
REMARK    5  A    between atoms: C_21  and  N_22 
REMARK    6  A    between atoms: N_22  and  C_25 
REMARK    7  A    between atoms: C_25  and  C_26 
ROOT
HETATM    1  C   UNL     1     -41.055  53.540 -53.429  1.00  0.00     0.719 A 
HETATM    2  N   UNL     1     -40.598  52.231 -53.508  1.00  0.00    -0.154 N 
HETATM    3  C   UNL     1     -39.983  51.974 -52.276  1.00  0.00     0.083 A 
HETATM    4  C   UNL     1     -39.466  50.669 -52.034  1.00  0.00     0.033 A 
HETATM    5  C   UNL     1     -39.533  49.743 -53.009  1.00  0.00     0.004 A 
HETATM    6  C   UNL     1     -40.100  50.051 -54.306  1.00  0.00     0.018 A 
HETATM    7  C   UNL     1     -40.614  51.272 -54.526  1.00  0.00     0.115 A 
HETATM    8  C   UNL     1     -40.005  53.160 -51.578  1.00  0.00     0.107 A 
HETATM    9  N   UNL     1     -40.668  54.129 -52.302  1.00  0.00    -0.064 NA
ENDROOT
BRANCH   1  10
HETATM   10  N   UNL     1     -41.836  54.223 -54.371  1.00  0.00    -0.147 N 
HETATM   11  C   UNL     1     -43.217  54.250 -54.368  1.00  0.00     0.233 A 
HETATM   12  N   UNL     1     -43.720  54.974 -55.343  1.00  0.00    -0.236 NA
HETATM   13  C   UNL     1     -42.637  55.420 -56.068  1.00  0.00     0.142 A 
HETATM   14  C   UNL     1     -41.474  54.946 -55.482  1.00  0.00     0.153 A 
BRANCH  13  15
HETATM   15  C   UNL     1     -42.671  56.306 -57.245  1.00  0.00     0.273 C 
HETATM   16  N   UNL     1     -42.488  57.698 -57.087  1.00  0.00    -0.347 N 
HETATM   17  C   UNL     1     -42.959  58.424 -55.911  1.00  0.00     0.128 C 
HETATM   18  C   UNL     1     -42.376  58.471 -58.321  1.00  0.00     0.128 C 
HETATM   19  C   UNL     1     -42.165  59.706 -55.692  1.00  0.00     0.053 C 
HETATM   20  C   UNL     1     -42.133  60.598 -56.942  1.00  0.00     0.190 C 
HETATM   21  C   UNL     1     -41.601  59.767 -58.116  1.00  0.00     0.053 C 
HETATM   22  O   UNL     1     -42.832  55.822 -58.366  1.00  0.00    -0.266 OA
BRANCH  20  23
HETATM   23  N   UNL     1     -43.508  61.216 -57.258  1.00  0.00    -0.074 N 
HETATM   24  C   UNL     1     -43.502  62.034 -58.536  1.00  0.00     0.269 C 
HETATM   25  H   UNL     1     -44.190  60.461 -57.406  1.00  0.00     0.279 HD
HETATM   26  C   UNL     1     -44.060  62.075 -56.138  1.00  0.00     0.269 C 
ENDBRANCH  20  23
ENDBRANCH  13  15
ENDBRANCH   1  10
BRANCH   8  27
HETATM   27  C   UNL     1     -39.443  53.481 -50.235  1.00  0.00     0.294 C 
BRANCH  27  28
HETATM   28  N   UNL     1     -40.510  53.452 -49.207  1.00  0.00    -0.064 N 
HETATM   29  H   UNL     1     -41.341  53.003 -49.618  1.00  0.00     0.278 HD
HETATM   30  H   UNL     1     -40.247  52.809 -48.450  1.00  0.00     0.278 HD
BRANCH  28  31
HETATM   31  C   UNL     1     -40.883  54.761 -48.621  1.00  0.00     0.297 C 
BRANCH  31  32
HETATM   32  C   UNL     1     -41.563  55.636 -49.604  1.00  0.00     0.078 A 
HETATM   33  O   UNL     1     -42.793  55.229 -50.041  1.00  0.00    -0.325 OA
HETATM   34  C   UNL     1     -43.234  56.171 -50.917  1.00  0.00     0.142 A 
HETATM   35  C   UNL     1     -42.307  57.179 -51.044  1.00  0.00     0.027 A 
HETATM   36  C   UNL     1     -41.226  56.835 -50.197  1.00  0.00     0.036 A 
ENDBRANCH  31  32
ENDBRANCH  28  31
ENDBRANCH  27  28
ENDBRANCH   8  27
TORSDOF 7
ENDMDL
MODEL 2
REMARK VINA RESULT:      -7.7      3.256      5.528
REMARK  7 active torsions:
REMARK  status: ('A' for Active; 'I' for Inactive)
REMARK    1  A    between atoms: N_2  and  C_4 
REMARK       I    between atoms: N_7  and  C_8 
REMARK    2  A    between atoms: C_8  and  C_9 
REMARK    3  A    between atoms: N_12  and  C_13 
REMARK    4  A    between atoms: C_20  and  C_21 
REMARK    5  A    between atoms: C_21  and  N_22 
REMARK    6  A    between atoms: N_22  and  C_25 
REMARK    7  A    between atoms: C_25  and  C_26 
ROOT
HETATM    1  C   UNL     1     -43.111  55.784 -54.382  1.00  0.00     0.719 A 
HETATM    2  N   UNL     1     -43.735  56.527 -53.389  1.00  0.00    -0.154 N 
HETATM    3  C   UNL     1     -43.334  55.947 -52.178  1.00  0.00     0.083 A 
HETATM    4  C   UNL     1     -43.773  56.544 -50.962  1.00  0.00     0.033 A 
HETATM    5  C   UNL     1     -44.599  57.606 -51.009  1.00  0.00     0.004 A 
HETATM    6  C   UNL     1     -45.069  58.143 -52.270  1.00  0.00     0.018 A 
HETATM    7  C   UNL     1     -44.633  57.599 -53.419  1.00  0.00     0.115 A 
HETATM    8  C   UNL     1     -42.592  54.836 -52.509  1.00  0.00     0.107 A 
HETATM    9  N   UNL     1     -42.462  54.739 -53.879  1.00  0.00    -0.064 NA
ENDROOT
BRANCH   1  10
HETATM   10  N   UNL     1     -43.110  56.041 -55.759  1.00  0.00    -0.147 N 
HETATM   11  C   UNL     1     -42.842  55.095 -56.730  1.00  0.00     0.233 A 
HETATM   12  N   UNL     1     -42.920  55.574 -57.951  1.00  0.00    -0.236 NA
HETATM   13  C   UNL     1     -43.207  56.914 -57.804  1.00  0.00     0.142 A 
HETATM   14  C   UNL     1     -43.308  57.209 -56.454  1.00  0.00     0.153 A 
BRANCH  13  15
HETATM   15  C   UNL     1     -43.433  57.889 -58.886  1.00  0.00     0.273 C 
HETATM   16  N   UNL     1     -44.745  58.154 -59.335  1.00  0.00    -0.347 N 
HETATM   17  C   UNL     1     -45.786  57.130 -59.370  1.00  0.00     0.128 C 
HETATM   18  C   UNL     1     -44.883  59.248 -60.293  1.00  0.00     0.128 C 
HETATM   19  C   UNL     1     -47.178  57.747 -59.311  1.00  0.00     0.053 C 
HETATM   20  C   UNL     1     -47.393  58.819 -60.389  1.00  0.00     0.190 C 
HETATM   21  C   UNL     1     -46.277  59.865 -60.260  1.00  0.00     0.053 C 
HETATM   22  O   UNL     1     -42.474  58.489 -59.374  1.00  0.00    -0.266 OA
BRANCH  20  23
HETATM   23  N   UNL     1     -47.453  58.222 -61.808  1.00  0.00    -0.074 N 
HETATM   24  C   UNL     1     -48.143  59.140 -62.799  1.00  0.00     0.269 C 
HETATM   25  H   UNL     1     -46.496  58.092 -62.158  1.00  0.00     0.279 HD
HETATM   26  C   UNL     1     -48.117  56.861 -61.866  1.00  0.00     0.269 C 
ENDBRANCH  20  23
ENDBRANCH  13  15
ENDBRANCH   1  10
BRANCH   8  27
HETATM   27  C   UNL     1     -41.962  53.818 -51.621  1.00  0.00     0.294 C 
BRANCH  27  28
HETATM   28  N   UNL     1     -40.485  53.913 -51.691  1.00  0.00    -0.064 N 
HETATM   29  H   UNL     1     -40.228  54.240 -52.633  1.00  0.00     0.278 HD
HETATM   30  H   UNL     1     -40.156  54.672 -51.082  1.00  0.00     0.278 HD
BRANCH  28  31
HETATM   31  C   UNL     1     -39.738  52.675 -51.366  1.00  0.00     0.297 C 
BRANCH  31  32
HETATM   32  C   UNL     1     -39.774  51.697 -52.479  1.00  0.00     0.078 A 
HETATM   33  O   UNL     1     -39.604  50.381 -52.147  1.00  0.00    -0.325 OA
HETATM   34  C   UNL     1     -39.682  49.669 -53.302  1.00  0.00     0.142 A 
HETATM   35  C   UNL     1     -39.904  50.508 -54.369  1.00  0.00     0.027 A 
HETATM   36  C   UNL     1     -39.963  51.819 -53.839  1.00  0.00     0.036 A 
ENDBRANCH  31  32
ENDBRANCH  28  31
ENDBRANCH  27  28
ENDBRANCH   8  27
TORSDOF 7
ENDMDL
MODEL 3
REMARK VINA RESULT:      -7.7      2.298      4.883
REMARK  7 active torsions:
REMARK  status: ('A' for Active; 'I' for Inactive)
REMARK    1  A    between atoms: N_2  and  C_4 
REMARK       I    between atoms: N_7  and  C_8 
REMARK    2  A    between atoms: C_8  and  C_9 
REMARK    3  A    between atoms: N_12  and  C_13 
REMARK    4  A    between atoms: C_20  and  C_21 
REMARK    5  A    between atoms: C_21  and  N_22 
REMARK    6  A    between atoms: N_22  and  C_25 
REMARK    7  A    between atoms: C_25  and  C_26 
ROOT
HETATM    1  C   UNL     1     -43.168  56.614 -53.472  1.00  0.00     0.719 A 
HETATM    2  N   UNL     1     -42.414  57.362 -52.576  1.00  0.00    -0.154 N 
HETATM    3  C   UNL     1     -41.902  56.439 -51.656  1.00  0.00     0.083 A 
HETATM    4  C   UNL     1     -41.025  56.911 -50.638  1.00  0.00     0.033 A 
HETATM    5  C   UNL     1     -40.759  58.228 -50.556  1.00  0.00     0.004 A 
HETATM    6  C   UNL     1     -41.362  59.179 -51.468  1.00  0.00     0.018 A 
HETATM    7  C   UNL     1     -42.167  58.732 -52.446  1.00  0.00     0.115 A 
HETATM    8  C   UNL     1     -42.458  55.222 -51.978  1.00  0.00     0.107 A 
HETATM    9  N   UNL     1     -43.247  55.339 -53.103  1.00  0.00    -0.064 NA
ENDROOT
BRANCH   1  10
HETATM   10  N   UNL     1     -43.792  57.069 -54.641  1.00  0.00    -0.147 N 
HETATM   11  C   UNL     1     -45.011  57.719 -54.674  1.00  0.00     0.233 A 
HETATM   12  N   UNL     1     -45.378  58.064 -55.888  1.00  0.00    -0.236 NA
HETATM   13  C   UNL     1     -44.391  57.586 -56.721  1.00  0.00     0.142 A 
HETATM   14  C   UNL     1     -43.419  56.957 -55.958  1.00  0.00     0.153 A 
BRANCH  13  15
HETATM   15  C   UNL     1     -44.319  57.750 -58.184  1.00  0.00     0.273 C 
HETATM   16  N   UNL     1     -43.465  58.725 -58.744  1.00  0.00    -0.347 N 
HETATM   17  C   UNL     1     -43.197  60.004 -58.092  1.00  0.00     0.128 C 
HETATM   18  C   UNL     1     -43.340  58.704 -60.199  1.00  0.00     0.128 C 
HETATM   19  C   UNL     1     -41.866  60.593 -58.543  1.00  0.00     0.053 C 
HETATM   20  C   UNL     1     -41.756  60.695 -60.071  1.00  0.00     0.190 C 
HETATM   21  C   UNL     1     -42.021  59.307 -60.669  1.00  0.00     0.053 C 
HETATM   22  O   UNL     1     -44.987  57.014 -58.912  1.00  0.00    -0.266 OA
BRANCH  20  23
HETATM   23  N   UNL     1     -42.702  61.759 -60.659  1.00  0.00    -0.074 N 
HETATM   24  C   UNL     1     -42.622  61.841 -62.172  1.00  0.00     0.269 C 
HETATM   25  H   UNL     1     -43.673  61.504 -60.438  1.00  0.00     0.279 HD
HETATM   26  C   UNL     1     -42.486  63.145 -60.087  1.00  0.00     0.269 C 
ENDBRANCH  20  23
ENDBRANCH  13  15
ENDBRANCH   1  10
BRANCH   8  27
HETATM   27  C   UNL     1     -42.307  53.902 -51.303  1.00  0.00     0.294 C 
BRANCH  27  28
HETATM   28  N   UNL     1     -40.895  53.453 -51.354  1.00  0.00    -0.064 N 
HETATM   29  H   UNL     1     -40.339  54.073 -50.750  1.00  0.00     0.278 HD
HETATM   30  H   UNL     1     -40.804  52.537 -50.897  1.00  0.00     0.278 HD
BRANCH  28  31
HETATM   31  C   UNL     1     -40.285  53.382 -52.703  1.00  0.00     0.297 C 
BRANCH  31  32
HETATM   32  C   UNL     1     -40.127  51.984 -53.168  1.00  0.00     0.078 A 
HETATM   33  O   UNL     1     -39.662  51.081 -52.252  1.00  0.00    -0.325 OA
HETATM   34  C   UNL     1     -39.605  49.876 -52.879  1.00  0.00     0.142 A 
HETATM   35  C   UNL     1     -40.032  49.991 -54.181  1.00  0.00     0.027 A 
HETATM   36  C   UNL     1     -40.370  51.353 -54.369  1.00  0.00     0.036 A 
ENDBRANCH  31  32
ENDBRANCH  28  31
ENDBRANCH  27  28
ENDBRANCH   8  27
TORSDOF 7
ENDMDL
MODEL 4
REMARK VINA RESULT:      -7.6      4.784      7.200
REMARK  7 active torsions:
REMARK  status: ('A' for Active; 'I' for Inactive)
REMARK    1  A    between atoms: N_2  and  C_4 
REMARK       I    between atoms: N_7  and  C_8 
REMARK    2  A    between atoms: C_8  and  C_9 
REMARK    3  A    between atoms: N_12  and  C_13 
REMARK    4  A    between atoms: C_20  and  C_21 
REMARK    5  A    between atoms: C_21  and  N_22 
REMARK    6  A    between atoms: N_22  and  C_25 
REMARK    7  A    between atoms: C_25  and  C_26 
ROOT
HETATM    1  C   UNL     1     -43.014  57.282 -53.071  1.00  0.00     0.719 A 
HETATM    2  N   UNL     1     -42.917  56.720 -54.337  1.00  0.00    -0.154 N 
HETATM    3  C   UNL     1     -42.962  55.334 -54.136  1.00  0.00     0.083 A 
HETATM    4  C   UNL     1     -42.946  54.482 -55.277  1.00  0.00     0.033 A 
HETATM    5  C   UNL     1     -42.833  55.025 -56.503  1.00  0.00     0.004 A 
HETATM    6  C   UNL     1     -42.706  56.456 -56.688  1.00  0.00     0.018 A 
HETATM    7  C   UNL     1     -42.750  57.264 -55.615  1.00  0.00     0.115 A 
HETATM    8  C   UNL     1     -42.970  55.142 -52.773  1.00  0.00     0.107 A 
HETATM    9  N   UNL     1     -42.997  56.355 -52.119  1.00  0.00    -0.064 NA
ENDROOT
BRANCH   1  10
HETATM   10  N   UNL     1     -43.126  58.643 -52.754  1.00  0.00    -0.147 N 
HETATM   11  C   UNL     1     -42.061  59.521 -52.697  1.00  0.00     0.233 A 
HETATM   12  N   UNL     1     -42.422  60.749 -52.396  1.00  0.00    -0.236 NA
HETATM   13  C   UNL     1     -43.784  60.694 -52.195  1.00  0.00     0.142 A 
HETATM   14  C   UNL     1     -44.220  59.394 -52.398  1.00  0.00     0.153 A 
BRANCH  13  15
HETATM   15  C   UNL     1     -44.672  61.826 -51.873  1.00  0.00     0.273 C 
HETATM   16  N   UNL     1     -44.879  62.199 -50.526  1.00  0.00    -0.347 N 
HETATM   17  C   UNL     1     -44.903  61.229 -49.435  1.00  0.00     0.128 C 
HETATM   18  C   UNL     1     -45.641  63.427 -50.315  1.00  0.00     0.128 C 
HETATM   19  C   UNL     1     -44.551  61.878 -48.103  1.00  0.00     0.053 C 
HETATM   20  C   UNL     1     -45.423  63.104 -47.798  1.00  0.00     0.190 C 
HETATM   21  C   UNL     1     -45.315  64.080 -48.977  1.00  0.00     0.053 C 
HETATM   22  O   UNL     1     -45.207  62.457 -52.785  1.00  0.00    -0.266 OA
BRANCH  20  23
HETATM   23  N   UNL     1     -46.887  62.727 -47.504  1.00  0.00    -0.074 N 
HETATM   24  C   UNL     1     -47.758  63.936 -47.220  1.00  0.00     0.269 C 
HETATM   25  H   UNL     1     -47.290  62.273 -48.333  1.00  0.00     0.279 HD
HETATM   26  C   UNL     1     -47.042  61.742 -46.362  1.00  0.00     0.269 C 
ENDBRANCH  20  23
ENDBRANCH  13  15
ENDBRANCH   1  10
BRANCH   8  27
HETATM   27  C   UNL     1     -42.961  53.870 -51.995  1.00  0.00     0.294 C 
BRANCH  27  28
HETATM   28  N   UNL     1     -41.634  53.655 -51.371  1.00  0.00    -0.064 N 
HETATM   29  H   UNL     1     -41.511  54.355 -50.627  1.00  0.00     0.278 HD
HETATM   30  H   UNL     1     -41.632  52.764 -50.858  1.00  0.00     0.278 HD
BRANCH  28  31
HETATM   31  C   UNL     1     -40.471  53.685 -52.290  1.00  0.00     0.297 C 
BRANCH  31  32
HETATM   32  C   UNL     1     -40.262  52.382 -52.963  1.00  0.00     0.078 A 
HETATM   33  O   UNL     1     -39.704  51.385 -52.213  1.00  0.00    -0.325 OA
HETATM   34  C   UNL     1     -39.614  50.290 -53.014  1.00  0.00     0.142 A 
HETATM   35  C   UNL     1     -40.111  50.569 -54.265  1.00  0.00     0.027 A 
HETATM   36  C   UNL     1     -40.530  51.921 -54.234  1.00  0.00     0.036 A 
ENDBRANCH  31  32
ENDBRANCH  28  31
ENDBRANCH  27  28
ENDBRANCH   8  27
TORSDOF 7
ENDMDL
MODEL 5
REMARK VINA RESULT:      -7.4      2.004      2.522
REMARK  7 active torsions:
REMARK  status: ('A' for Active; 'I' for Inactive)
REMARK    1  A    between atoms: N_2  and  C_4 
REMARK       I    between atoms: N_7  and  C_8 
REMARK    2  A    between atoms: C_8  and  C_9 
REMARK    3  A    between atoms: N_12  and  C_13 
REMARK    4  A    between atoms: C_20  and  C_21 
REMARK    5  A    between atoms: C_21  and  N_22 
REMARK    6  A    between atoms: N_22  and  C_25 
REMARK    7  A    between atoms: C_25  and  C_26 
ROOT
HETATM    1  C   UNL     1     -41.573  54.584 -53.629  1.00  0.00     0.719 A 
HETATM    2  N   UNL     1     -40.837  53.473 -53.240  1.00  0.00    -0.154 N 
HETATM    3  C   UNL     1     -40.556  53.667 -51.881  1.00  0.00     0.083 A 
HETATM    4  C   UNL     1     -39.856  52.644 -51.180  1.00  0.00     0.033 A 
HETATM    5  C   UNL     1     -39.438  51.553 -51.850  1.00  0.00     0.004 A 
HETATM    6  C   UNL     1     -39.666  51.407 -53.273  1.00  0.00     0.018 A 
HETATM    7  C   UNL     1     -40.352  52.357 -53.930  1.00  0.00     0.115 A 
HETATM    8  C   UNL     1     -41.035  54.917 -51.563  1.00  0.00     0.107 A 
HETATM    9  N   UNL     1     -41.661  55.482 -52.654  1.00  0.00    -0.064 NA
ENDROOT
BRANCH   1  10
HETATM   10  N   UNL     1     -42.185  54.803 -54.871  1.00  0.00    -0.147 N 
HETATM   11  C   UNL     1     -43.145  53.979 -55.425  1.00  0.00     0.233 A 
HETATM   12  N   UNL     1     -43.580  54.404 -56.590  1.00  0.00    -0.236 NA
HETATM   13  C   UNL     1     -42.851  55.541 -56.862  1.00  0.00     0.142 A 
HETATM   14  C   UNL     1     -41.978  55.781 -55.813  1.00  0.00     0.153 A 
BRANCH  13  15
HETATM   15  C   UNL     1     -42.993  56.415 -58.040  1.00  0.00     0.273 C 
HETATM   16  N   UNL     1     -43.482  57.731 -57.889  1.00  0.00    -0.347 N 
HETATM   17  C   UNL     1     -44.485  58.087 -56.889  1.00  0.00     0.128 C 
HETATM   18  C   UNL     1     -43.434  58.571 -59.082  1.00  0.00     0.128 C 
HETATM   19  C   UNL     1     -44.410  59.565 -56.524  1.00  0.00     0.053 C 
HETATM   20  C   UNL     1     -44.480  60.478 -57.756  1.00  0.00     0.190 C 
HETATM   21  C   UNL     1     -43.377  60.055 -58.736  1.00  0.00     0.053 C 
HETATM   22  O   UNL     1     -42.656  55.999 -59.150  1.00  0.00    -0.266 OA
BRANCH  20  23
HETATM   23  N   UNL     1     -45.870  60.463 -58.421  1.00  0.00    -0.074 N 
HETATM   24  C   UNL     1     -45.912  61.271 -59.705  1.00  0.00     0.269 C 
HETATM   25  H   UNL     1     -46.106  59.498 -58.683  1.00  0.00     0.279 HD
HETATM   26  C   UNL     1     -46.983  60.943 -57.512  1.00  0.00     0.269 C 
ENDBRANCH  20  23
ENDBRANCH  13  15
ENDBRANCH   1  10
BRANCH   8  27
HETATM   27  C   UNL     1     -40.963  55.659 -50.272  1.00  0.00     0.294 C 
BRANCH  27  28
HETATM   28  N   UNL     1     -41.763  56.904 -50.344  1.00  0.00    -0.064 N 
HETATM   29  H   UNL     1     -42.423  56.817 -51.130  1.00  0.00     0.278 HD
HETATM   30  H   UNL     1     -42.381  56.969 -49.526  1.00  0.00     0.278 HD
BRANCH  28  31
HETATM   31  C   UNL     1     -40.993  58.165 -50.470  1.00  0.00     0.297 C 
BRANCH  31  32
HETATM   32  C   UNL     1     -41.352  58.914 -51.697  1.00  0.00     0.078 A 
HETATM   33  O   UNL     1     -42.252  59.934 -51.552  1.00  0.00    -0.325 OA
HETATM   34  C   UNL     1     -42.426  60.484 -52.783  1.00  0.00     0.142 A 
HETATM   35  C   UNL     1     -41.647  59.836 -53.713  1.00  0.00     0.027 A 
HETATM   36  C   UNL     1     -40.953  58.821 -53.013  1.00  0.00     0.036 A 
ENDBRANCH  31  32
ENDBRANCH  28  31
ENDBRANCH  27  28
ENDBRANCH   8  27
TORSDOF 7
ENDMDL
MODEL 6
REMARK VINA RESULT:      -7.2      2.595      9.438
REMARK  7 active torsions:
REMARK  status: ('A' for Active; 'I' for Inactive)
REMARK    1  A    between atoms: N_2  and  C_4 
REMARK       I    between atoms: N_7  and  C_8 
REMARK    2  A    between atoms: C_8  and  C_9 
REMARK    3  A    between atoms: N_12  and  C_13 
REMARK    4  A    between atoms: C_20  and  C_21 
REMARK    5  A    between atoms: C_21  and  N_22 
REMARK    6  A    between atoms: N_22  and  C_25 
REMARK    7  A    between atoms: C_25  and  C_26 
ROOT
HETATM    1  C   UNL     1     -42.839  57.905 -56.318  1.00  0.00     0.719 A 
HETATM    2  N   UNL     1     -42.706  57.483 -57.634  1.00  0.00    -0.154 N 
HETATM    3  C   UNL     1     -42.324  58.622 -58.356  1.00  0.00     0.083 A 
HETATM    4  C   UNL     1     -42.049  58.483 -59.746  1.00  0.00     0.033 A 
HETATM    5  C   UNL     1     -42.215  57.284 -60.335  1.00  0.00     0.004 A 
HETATM    6  C   UNL     1     -42.689  56.135 -59.589  1.00  0.00     0.018 A 
HETATM    7  C   UNL     1     -42.922  56.257 -58.272  1.00  0.00     0.115 A 
HETATM    8  C   UNL     1     -42.357  59.671 -57.466  1.00  0.00     0.107 A 
HETATM    9  N   UNL     1     -42.682  59.220 -56.204  1.00  0.00    -0.064 NA
ENDROOT
BRANCH   1  10
HETATM   10  N   UNL     1     -43.097  57.108 -55.194  1.00  0.00    -0.147 N 
HETATM   11  C   UNL     1     -44.352  56.899 -54.657  1.00  0.00     0.233 A 
HETATM   12  N   UNL     1     -44.340  56.098 -53.615  1.00  0.00    -0.236 NA
HETATM   13  C   UNL     1     -43.014  55.786 -53.406  1.00  0.00     0.142 A 
HETATM   14  C   UNL     1     -42.243  56.420 -54.367  1.00  0.00     0.153 A 
BRANCH  13  15
HETATM   15  C   UNL     1     -42.476  54.883 -52.373  1.00  0.00     0.273 C 
HETATM   16  N   UNL     1     -41.497  53.924 -52.714  1.00  0.00    -0.347 N 
HETATM   17  C   UNL     1     -41.468  53.258 -54.014  1.00  0.00     0.128 C 
HETATM   18  C   UNL     1     -40.909  53.188 -51.599  1.00  0.00     0.128 C 
HETATM   19  C   UNL     1     -40.068  52.760 -54.355  1.00  0.00     0.053 C 
HETATM   20  C   UNL     1     -39.472  51.880 -53.247  1.00  0.00     0.190 C 
HETATM   21  C   UNL     1     -39.515  52.666 -51.930  1.00  0.00     0.053 C 
HETATM   22  O   UNL     1     -42.865  54.990 -51.209  1.00  0.00    -0.266 OA
BRANCH  20  23
HETATM   23  N   UNL     1     -40.189  50.522 -53.124  1.00  0.00    -0.074 N 
HETATM   24  C   UNL     1     -39.588  49.639 -52.048  1.00  0.00     0.269 C 
HETATM   25  H   UNL     1     -41.166  50.682 -52.850  1.00  0.00     0.279 HD
HETATM   26  C   UNL     1     -40.233  49.741 -54.422  1.00  0.00     0.269 C 
ENDBRANCH  20  23
ENDBRANCH  13  15
ENDBRANCH   1  10
BRANCH   8  27
HETATM   27  C   UNL     1     -42.094  61.120 -57.700  1.00  0.00     0.294 C 
BRANCH  27  28
HETATM   28  N   UNL     1     -40.720  61.320 -58.217  1.00  0.00    -0.064 N 
HETATM   29  H   UNL     1     -40.057  60.967 -57.513  1.00  0.00     0.278 HD
HETATM   30  H   UNL     1     -40.557  60.704 -59.022  1.00  0.00     0.278 HD
BRANCH  28  31
HETATM   31  C   UNL     1     -40.363  62.709 -58.592  1.00  0.00     0.297 C 
BRANCH  31  32
HETATM   32  C   UNL     1     -40.110  62.843 -60.046  1.00  0.00     0.078 A 
HETATM   33  O   UNL     1     -41.008  62.242 -60.884  1.00  0.00    -0.325 OA
HETATM   34  C   UNL     1     -40.595  62.496 -62.154  1.00  0.00     0.142 A 
HETATM   35  C   UNL     1     -39.448  63.255 -62.143  1.00  0.00     0.027 A 
HETATM   36  C   UNL     1     -39.133  63.480 -60.782  1.00  0.00     0.036 A 
ENDBRANCH  31  32
ENDBRANCH  28  31
ENDBRANCH  27  28
ENDBRANCH   8  27
TORSDOF 7
ENDMDL
MODEL 7
REMARK VINA RESULT:      -7.1      6.332     10.722
REMARK  7 active torsions:
REMARK  status: ('A' for Active; 'I' for Inactive)
REMARK    1  A    between atoms: N_2  and  C_4 
REMARK       I    between atoms: N_7  and  C_8 
REMARK    2  A    between atoms: C_8  and  C_9 
REMARK    3  A    between atoms: N_12  and  C_13 
REMARK    4  A    between atoms: C_20  and  C_21 
REMARK    5  A    between atoms: C_21  and  N_22 
REMARK    6  A    between atoms: N_22  and  C_25 
REMARK    7  A    between atoms: C_25  and  C_26 
ROOT
HETATM    1  C   UNL     1     -45.824  61.277 -49.961  1.00  0.00     0.719 A 
HETATM    2  N   UNL     1     -45.802  61.645 -48.622  1.00  0.00    -0.154 N 
HETATM    3  C   UNL     1     -46.537  62.835 -48.550  1.00  0.00     0.083 A 
HETATM    4  C   UNL     1     -46.744  63.427 -47.271  1.00  0.00     0.033 A 
HETATM    5  C   UNL     1     -46.185  62.862 -46.184  1.00  0.00     0.004 A 
HETATM    6  C   UNL     1     -45.360  61.676 -46.290  1.00  0.00     0.018 A 
HETATM    7  C   UNL     1     -45.187  61.099 -47.491  1.00  0.00     0.115 A 
HETATM    8  C   UNL     1     -46.860  63.170 -49.845  1.00  0.00     0.107 A 
HETATM    9  N   UNL     1     -46.410  62.200 -50.716  1.00  0.00    -0.064 NA
ENDROOT
BRANCH   1  10
HETATM   10  N   UNL     1     -45.321  60.096 -50.524  1.00  0.00    -0.147 N 
HETATM   11  C   UNL     1     -46.011  58.900 -50.577  1.00  0.00     0.233 A 
HETATM   12  N   UNL     1     -45.335  57.941 -51.170  1.00  0.00    -0.236 NA
HETATM   13  C   UNL     1     -44.115  58.495 -51.492  1.00  0.00     0.142 A 
HETATM   14  C   UNL     1     -44.096  59.818 -51.081  1.00  0.00     0.153 A 
BRANCH  13  15
HETATM   15  C   UNL     1     -43.011  57.833 -52.210  1.00  0.00     0.273 C 
HETATM   16  N   UNL     1     -42.695  56.485 -51.930  1.00  0.00    -0.347 N 
HETATM   17  C   UNL     1     -42.833  55.904 -50.597  1.00  0.00     0.128 C 
HETATM   18  C   UNL     1     -41.698  55.870 -52.802  1.00  0.00     0.128 C 
HETATM   19  C   UNL     1     -43.011  54.393 -50.662  1.00  0.00     0.053 C 
HETATM   20  C   UNL     1     -41.904  53.705 -51.474  1.00  0.00     0.190 C 
HETATM   21  C   UNL     1     -41.849  54.354 -52.864  1.00  0.00     0.053 C 
HETATM   22  O   UNL     1     -42.387  58.454 -53.071  1.00  0.00    -0.266 OA
BRANCH  20  23
HETATM   23  N   UNL     1     -40.537  53.758 -50.767  1.00  0.00    -0.074 N 
HETATM   24  C   UNL     1     -39.525  52.806 -51.377  1.00  0.00     0.269 C 
HETATM   25  H   UNL     1     -40.140  54.700 -50.872  1.00  0.00     0.279 HD
HETATM   26  C   UNL     1     -40.614  53.491 -49.277  1.00  0.00     0.269 C 
ENDBRANCH  20  23
ENDBRANCH  13  15
ENDBRANCH   1  10
BRANCH   8  27
HETATM   27  C   UNL     1     -47.589  64.363 -50.361  1.00  0.00     0.294 C 
BRANCH  27  28
HETATM   28  N   UNL     1     -49.031  64.059 -50.523  1.00  0.00    -0.064 N 
HETATM   29  H   UNL     1     -49.301  63.385 -49.795  1.00  0.00     0.278 HD
HETATM   30  H   UNL     1     -49.589  64.890 -50.293  1.00  0.00     0.278 HD
BRANCH  28  31
HETATM   31  C   UNL     1     -49.442  63.555 -51.855  1.00  0.00     0.297 C 
BRANCH  31  32
HETATM   32  C   UNL     1     -50.906  63.337 -51.937  1.00  0.00     0.078 A 
HETATM   33  O   UNL     1     -51.569  63.164 -50.754  1.00  0.00    -0.325 OA
HETATM   34  C   UNL     1     -52.883  62.993 -51.058  1.00  0.00     0.142 A 
HETATM   35  C   UNL     1     -53.073  63.059 -52.418  1.00  0.00     0.027 A 
HETATM   36  C   UNL     1     -51.796  63.281 -52.988  1.00  0.00     0.036 A 
ENDBRANCH  31  32
ENDBRANCH  28  31
ENDBRANCH  27  28
ENDBRANCH   8  27
TORSDOF 7
ENDMDL
MODEL 8
REMARK VINA RESULT:      -7.1      2.982      4.075
REMARK  7 active torsions:
REMARK  status: ('A' for Active; 'I' for Inactive)
REMARK    1  A    between atoms: N_2  and  C_4 
REMARK       I    between atoms: N_7  and  C_8 
REMARK    2  A    between atoms: C_8  and  C_9 
REMARK    3  A    between atoms: N_12  and  C_13 
REMARK    4  A    between atoms: C_20  and  C_21 
REMARK    5  A    between atoms: C_21  and  N_22 
REMARK    6  A    between atoms: N_22  and  C_25 
REMARK    7  A    between atoms: C_25  and  C_26 
ROOT
HETATM    1  C   UNL     1     -42.621  55.568 -54.928  1.00  0.00     0.719 A 
HETATM    2  N   UNL     1     -41.762  54.602 -54.421  1.00  0.00    -0.154 N 
HETATM    3  C   UNL     1     -42.050  54.525 -53.053  1.00  0.00     0.083 A 
HETATM    4  C   UNL     1     -41.359  53.558 -52.267  1.00  0.00     0.033 A 
HETATM    5  C   UNL     1     -40.417  52.790 -52.845  1.00  0.00     0.004 A 
HETATM    6  C   UNL     1     -40.075  52.940 -54.245  1.00  0.00     0.018 A 
HETATM    7  C   UNL     1     -40.745  53.831 -54.995  1.00  0.00     0.115 A 
HETATM    8  C   UNL     1     -42.974  55.513 -52.796  1.00  0.00     0.107 A 
HETATM    9  N   UNL     1     -43.320  56.159 -53.964  1.00  0.00    -0.064 NA
ENDROOT
BRANCH   1  10
HETATM   10  N   UNL     1     -42.794  55.928 -56.271  1.00  0.00    -0.147 N 
HETATM   11  C   UNL     1     -43.185  55.057 -57.269  1.00  0.00     0.233 A 
HETATM   12  N   UNL     1     -43.295  55.635 -58.445  1.00  0.00    -0.236 NA
HETATM   13  C   UNL     1     -42.918  56.945 -58.247  1.00  0.00     0.142 A 
HETATM   14  C   UNL     1     -42.592  57.126 -56.912  1.00  0.00     0.153 A 
BRANCH  13  15
HETATM   15  C   UNL     1     -42.907  58.019 -59.257  1.00  0.00     0.273 C 
HETATM   16  N   UNL     1     -44.109  58.673 -59.605  1.00  0.00    -0.347 N 
HETATM   17  C   UNL     1     -45.399  57.988 -59.629  1.00  0.00     0.128 C 
HETATM   18  C   UNL     1     -43.974  59.827 -60.490  1.00  0.00     0.128 C 
HETATM   19  C   UNL     1     -46.553  58.966 -59.445  1.00  0.00     0.053 C 
HETATM   20  C   UNL     1     -46.504  60.129 -60.447  1.00  0.00     0.190 C 
HETATM   21  C   UNL     1     -45.132  60.807 -60.333  1.00  0.00     0.053 C 
HETATM   22  O   UNL     1     -41.841  58.358 -59.772  1.00  0.00    -0.266 OA
BRANCH  20  23
HETATM   23  N   UNL     1     -46.797  59.676 -61.889  1.00  0.00    -0.074 N 
HETATM   24  C   UNL     1     -46.749  60.821 -62.883  1.00  0.00     0.269 C 
HETATM   25  H   UNL     1     -46.073  59.009 -62.186  1.00  0.00     0.279 HD
HETATM   26  C   UNL     1     -48.124  58.959 -62.042  1.00  0.00     0.269 C 
ENDBRANCH  20  23
ENDBRANCH  13  15
ENDBRANCH   1  10
BRANCH   8  27
HETATM   27  C   UNL     1     -43.593  55.918 -51.502  1.00  0.00     0.294 C 
BRANCH  27  28
HETATM   28  N   UNL     1     -42.659  56.767 -50.725  1.00  0.00    -0.064 N 
HETATM   29  H   UNL     1     -42.888  56.667 -49.727  1.00  0.00     0.278 HD
HETATM   30  H   UNL     1     -41.707  56.385 -50.787  1.00  0.00     0.278 HD
BRANCH  28  31
HETATM   31  C   UNL     1     -42.626  58.203 -51.094  1.00  0.00     0.297 C 
BRANCH  31  32
HETATM   32  C   UNL     1     -41.280  58.794 -50.905  1.00  0.00     0.078 A 
HETATM   33  O   UNL     1     -40.337  58.487 -51.846  1.00  0.00    -0.325 OA
HETATM   34  C   UNL     1     -39.196  59.134 -51.487  1.00  0.00     0.142 A 
HETATM   35  C   UNL     1     -39.396  59.856 -50.334  1.00  0.00     0.027 A 
HETATM   36  C   UNL     1     -40.742  59.636 -49.956  1.00  0.00     0.036 A 
ENDBRANCH  31  32
ENDBRANCH  28  31
ENDBRANCH  27  28
ENDBRANCH   8  27
TORSDOF 7
ENDMDL
MODEL 9
REMARK VINA RESULT:      -7.0      4.822      7.796
REMARK  7 active torsions:
REMARK  status: ('A' for Active; 'I' for Inactive)
REMARK    1  A    between atoms: N_2  and  C_4 
REMARK       I    between atoms: N_7  and  C_8 
REMARK    2  A    between atoms: C_8  and  C_9 
REMARK    3  A    between atoms: N_12  and  C_13 
REMARK    4  A    between atoms: C_20  and  C_21 
REMARK    5  A    between atoms: C_21  and  N_22 
REMARK    6  A    between atoms: N_22  and  C_25 
REMARK    7  A    between atoms: C_25  and  C_26 
ROOT
HETATM    1  C   UNL     1     -43.290  56.374 -52.378  1.00  0.00     0.719 A 
HETATM    2  N   UNL     1     -42.328  55.613 -51.728  1.00  0.00    -0.154 N 
HETATM    3  C   UNL     1     -41.781  54.781 -52.713  1.00  0.00     0.083 A 
HETATM    4  C   UNL     1     -40.707  53.917 -52.352  1.00  0.00     0.033 A 
HETATM    5  C   UNL     1     -40.289  53.883 -51.073  1.00  0.00     0.004 A 
HETATM    6  C   UNL     1     -40.922  54.692 -50.050  1.00  0.00     0.018 A 
HETATM    7  C   UNL     1     -41.915  55.529 -50.394  1.00  0.00     0.115 A 
HETATM    8  C   UNL     1     -42.510  55.006 -53.858  1.00  0.00     0.107 A 
HETATM    9  N   UNL     1     -43.449  55.992 -53.641  1.00  0.00    -0.064 NA
ENDROOT
BRANCH   1  10
HETATM   10  N   UNL     1     -44.038  57.432 -51.843  1.00  0.00    -0.147 N 
HETATM   11  C   UNL     1     -45.106  57.276 -50.981  1.00  0.00     0.233 A 
HETATM   12  N   UNL     1     -45.634  58.419 -50.603  1.00  0.00    -0.236 NA
HETATM   13  C   UNL     1     -44.924  59.392 -51.272  1.00  0.00     0.142 A 
HETATM   14  C   UNL     1     -43.950  58.787 -52.050  1.00  0.00     0.153 A 
BRANCH  13  15
HETATM   15  C   UNL     1     -45.107  60.850 -51.156  1.00  0.00     0.273 C 
HETATM   16  N   UNL     1     -45.027  61.474 -49.891  1.00  0.00    -0.347 N 
HETATM   17  C   UNL     1     -45.475  60.823 -48.663  1.00  0.00     0.128 C 
HETATM   18  C   UNL     1     -45.059  62.933 -49.897  1.00  0.00     0.128 C 
HETATM   19  C   UNL     1     -44.774  61.398 -47.439  1.00  0.00     0.053 C 
HETATM   20  C   UNL     1     -44.897  62.926 -47.355  1.00  0.00     0.190 C 
HETATM   21  C   UNL     1     -44.378  63.526 -48.668  1.00  0.00     0.053 C 
HETATM   22  O   UNL     1     -45.302  61.520 -52.171  1.00  0.00    -0.266 OA
BRANCH  20  23
HETATM   23  N   UNL     1     -46.335  63.384 -47.048  1.00  0.00    -0.074 N 
HETATM   24  C   UNL     1     -46.391  64.782 -46.461  1.00  0.00     0.269 C 
HETATM   25  H   UNL     1     -46.870  63.421 -47.925  1.00  0.00     0.279 HD
HETATM   26  C   UNL     1     -47.089  62.445 -46.128  1.00  0.00     0.269 C 
ENDBRANCH  20  23
ENDBRANCH  13  15
ENDBRANCH   1  10
BRANCH   8  27
HETATM   27  C   UNL     1     -42.399  54.357 -55.196  1.00  0.00     0.294 C 
BRANCH  27  28
HETATM   28  N   UNL     1     -43.378  54.946 -56.140  1.00  0.00    -0.064 N 
HETATM   29  H   UNL     1     -43.886  54.177 -56.598  1.00  0.00     0.278 HD
HETATM   30  H   UNL     1     -44.115  55.436 -55.617  1.00  0.00     0.278 HD
BRANCH  28  31
HETATM   31  C   UNL     1     -42.822  55.863 -57.163  1.00  0.00     0.297 C 
BRANCH  31  32
HETATM   32  C   UNL     1     -43.547  55.762 -58.452  1.00  0.00     0.078 A 
HETATM   33  O   UNL     1     -43.937  54.510 -58.840  1.00  0.00    -0.325 OA
HETATM   34  C   UNL     1     -44.585  54.649 -60.027  1.00  0.00     0.142 A 
HETATM   35  C   UNL     1     -44.621  55.971 -60.403  1.00  0.00     0.027 A 
HETATM   36  C   UNL     1     -43.951  56.692 -59.386  1.00  0.00     0.036 A 
ENDBRANCH  31  32
ENDBRANCH  28  31
ENDBRANCH  27  28
ENDBRANCH   8  27
TORSDOF 7
ENDMDL
MODEL 10
REMARK VINA RESULT:      -7.0      2.385      9.091
REMARK  7 active torsions:
REMARK  status: ('A' for Active; 'I' for Inactive)
REMARK    1  A    between atoms: N_2  and  C_4 
REMARK       I    between atoms: N_7  and  C_8 
REMARK    2  A    between atoms: C_8  and  C_9 
REMARK    3  A    between atoms: N_12  and  C_13 
REMARK    4  A    between atoms: C_20  and  C_21 
REMARK    5  A    between atoms: C_21  and  N_22 
REMARK    6  A    between atoms: N_22  and  C_25 
REMARK    7  A    between atoms: C_25  and  C_26 
ROOT
HETATM    1  C   UNL     1     -42.868  58.857 -52.790  1.00  0.00     0.719 A 
HETATM    2  N   UNL     1     -42.970  60.116 -52.213  1.00  0.00    -0.154 N 
HETATM    3  C   UNL     1     -42.953  61.020 -53.283  1.00  0.00     0.083 A 
HETATM    4  C   UNL     1     -43.108  62.408 -53.001  1.00  0.00     0.033 A 
HETATM    5  C   UNL     1     -43.209  62.814 -51.722  1.00  0.00     0.004 A 
HETATM    6  C   UNL     1     -43.143  61.871 -50.623  1.00  0.00     0.018 A 
HETATM    7  C   UNL     1     -43.026  60.559 -50.888  1.00  0.00     0.115 A 
HETATM    8  C   UNL     1     -42.733  60.273 -54.417  1.00  0.00     0.107 A 
HETATM    9  N   UNL     1     -42.677  58.931 -54.103  1.00  0.00    -0.064 NA
ENDROOT
BRANCH   1  10
HETATM   10  N   UNL     1     -42.953  57.618 -52.141  1.00  0.00    -0.147 N 
HETATM   11  C   UNL     1     -44.138  56.987 -51.816  1.00  0.00     0.233 A 
HETATM   12  N   UNL     1     -43.959  55.825 -51.227  1.00  0.00    -0.236 NA
HETATM   13  C   UNL     1     -42.594  55.682 -51.103  1.00  0.00     0.142 A 
HETATM   14  C   UNL     1     -41.971  56.792 -51.650  1.00  0.00     0.153 A 
BRANCH  13  15
HETATM   15  C   UNL     1     -41.879  54.523 -50.539  1.00  0.00     0.273 C 
HETATM   16  N   UNL     1     -41.094  53.701 -51.377  1.00  0.00    -0.347 N 
HETATM   17  C   UNL     1     -41.446  53.432 -52.769  1.00  0.00     0.128 C 
HETATM   18  C   UNL     1     -40.297  52.679 -50.704  1.00  0.00     0.128 C 
HETATM   19  C   UNL     1     -40.221  53.053 -53.592  1.00  0.00     0.053 C 
HETATM   20  C   UNL     1     -39.429  51.895 -52.967  1.00  0.00     0.190 C 
HETATM   21  C   UNL     1     -39.076  52.274 -51.523  1.00  0.00     0.053 C 
HETATM   22  O   UNL     1     -41.950  54.294 -49.331  1.00  0.00    -0.266 OA
BRANCH  20  23
HETATM   23  N   UNL     1     -40.190  50.558 -53.036  1.00  0.00    -0.074 N 
HETATM   24  C   UNL     1     -39.656  49.530 -52.056  1.00  0.00     0.269 C 
HETATM   25  H   UNL     1     -41.172  50.716 -52.776  1.00  0.00     0.279 HD
HETATM   26  C   UNL     1     -40.210  49.941 -54.420  1.00  0.00     0.269 C 
ENDBRANCH  20  23
ENDBRANCH  13  15
ENDBRANCH   1  10
BRANCH   8  27
HETATM   27  C   UNL     1     -42.571  60.720 -55.830  1.00  0.00     0.294 C 
BRANCH  27  28
HETATM   28  N   UNL     1     -42.023  59.622 -56.661  1.00  0.00    -0.064 N 
HETATM   29  H   UNL     1     -41.049  59.854 -56.900  1.00  0.00     0.278 HD
HETATM   30  H   UNL     1     -41.928  58.770 -56.094  1.00  0.00     0.278 HD
BRANCH  28  31
HETATM   31  C   UNL     1     -42.781  59.299 -57.894  1.00  0.00     0.297 C 
BRANCH  31  32
HETATM   32  C   UNL     1     -42.948  57.838 -58.075  1.00  0.00     0.078 A 
HETATM   33  O   UNL     1     -42.673  57.338 -59.318  1.00  0.00    -0.325 OA
HETATM   34  C   UNL     1     -42.879  55.996 -59.258  1.00  0.00     0.142 A 
HETATM   35  C   UNL     1     -43.277  55.627 -57.995  1.00  0.00     0.027 A 
HETATM   36  C   UNL     1     -43.323  56.816 -57.229  1.00  0.00     0.036 A 
ENDBRANCH  31  32
ENDBRANCH  28  31
ENDBRANCH  27  28
ENDBRANCH   8  27
TORSDOF 7
ENDMDL
