MODEL 1
REMARK VINA RESULT:      -8.3      0.000      0.000
REMARK  5 active torsions:
REMARK  status: ('A' for Active; 'I' for Inactive)
REMARK    1  A    between atoms: C_4  and  N_5 
REMARK    2  A    between atoms: C_8  and  C_9 
REMARK    3  A    between atoms: C_9  and  N_10 
REMARK       I    between atoms: N_10  and  C_11 
REMARK       I    between atoms: C_11  and  N_12 
REMARK    4  A    between atoms: N_12  and  C_13 
REMARK    5  A    between atoms: C_13  and  C_14 
ROOT
HETATM    1  N   UNL     1     -41.780  54.448 -53.031  1.00  0.00    -0.319 N 
HETATM    2  C   UNL     1     -41.485  55.494 -53.911  1.00  0.00     0.021 A 
HETATM    3  C   UNL     1     -40.286  55.511 -54.807  1.00  0.00     0.069 C 
HETATM    4  C   UNL     1     -42.509  56.436 -53.844  1.00  0.00    -0.016 A 
HETATM    5  C   UNL     1     -43.460  55.936 -52.922  1.00  0.00     0.035 A 
HETATM    6  C   UNL     1     -42.996  54.738 -52.418  1.00  0.00     0.014 A 
HETATM    7  C   UNL     1     -43.610  53.938 -51.318  1.00  0.00     0.068 C 
ENDROOT
BRANCH   4   8
HETATM    8  C   UNL     1     -42.615  57.738 -54.578  1.00  0.00     0.165 C 
BRANCH   8   9
HETATM    9  N   UNL     1     -43.652  57.628 -55.576  1.00  0.00    -0.339 N 
HETATM   10  C   UNL     1     -43.332  57.309 -56.867  1.00  0.00     0.316 C 
HETATM   11  N   UNL     1     -44.442  56.956 -57.585  1.00  0.00    -0.339 N 
HETATM   12  O   UNL     1     -42.194  57.282 -57.311  1.00  0.00    -0.247 OA
HETATM   13  H   UNL     1     -45.310  57.399 -57.325  1.00  0.00     0.164 HD
HETATM   14  H   UNL     1     -44.568  57.361 -55.251  1.00  0.00     0.164 HD
BRANCH  11  15
HETATM   15  C   UNL     1     -44.315  56.511 -58.955  1.00  0.00     0.162 C 
BRANCH  15  16
HETATM   16  C   UNL     1     -45.479  56.964 -59.800  1.00  0.00    -0.040 A 
HETATM   17  C   UNL     1     -46.329  56.022 -60.394  1.00  0.00     0.009 A 
HETATM   18  C   UNL     1     -47.437  56.435 -61.139  1.00  0.00     0.001 A 
HETATM   19  C   UNL     1     -47.710  57.794 -61.290  1.00  0.00     0.000 A 
HETATM   20  C   UNL     1     -46.881  58.741 -60.693  1.00  0.00     0.001 A 
HETATM   21  C   UNL     1     -45.777  58.329 -59.945  1.00  0.00     0.009 A 
ENDBRANCH  15  16
ENDBRANCH  11  15
ENDBRANCH   8   9
ENDBRANCH   4   8
BRANCH   1  22
HETATM   22  C   UNL     1     -40.980  53.286 -52.802  1.00  0.00     0.040 A 
HETATM   23  C   UNL     1     -40.868  52.300 -53.791  1.00  0.00     0.036 A 
HETATM   24  C   UNL     1     -40.116  51.138 -53.560  1.00  0.00    -0.060 A 
HETATM   25  C   UNL     1     -39.985  50.093 -54.628  1.00  0.00     0.048 C 
HETATM   26  C   UNL     1     -39.441  50.995 -52.342  1.00  0.00     0.007 A 
HETATM   27  C   UNL     1     -39.539  51.980 -51.360  1.00  0.00     0.003 A 
HETATM   28  C   UNL     1     -40.310  53.122 -51.585  1.00  0.00     0.030 A 
ENDBRANCH   1  22
TORSDOF 5
ENDMDL
MODEL 2
REMARK VINA RESULT:      -8.3      5.989      8.991
REMARK  5 active torsions:
REMARK  status: ('A' for Active; 'I' for Inactive)
REMARK    1  A    between atoms: C_4  and  N_5 
REMARK    2  A    between atoms: C_8  and  C_9 
REMARK    3  A    between atoms: C_9  and  N_10 
REMARK       I    between atoms: N_10  and  C_11 
REMARK       I    between atoms: C_11  and  N_12 
REMARK    4  A    between atoms: N_12  and  C_13 
REMARK    5  A    between atoms: C_13  and  C_14 
ROOT
HETATM    1  N   UNL     1     -42.469  55.813 -51.477  1.00  0.00    -0.319 N 
HETATM    2  C   UNL     1     -42.266  57.144 -51.853  1.00  0.00     0.021 A 
HETATM    3  C   UNL     1     -41.020  57.636 -52.523  1.00  0.00     0.069 C 
HETATM    4  C   UNL     1     -43.418  57.871 -51.562  1.00  0.00    -0.016 A 
HETATM    5  C   UNL     1     -44.351  56.955 -51.022  1.00  0.00     0.035 A 
HETATM    6  C   UNL     1     -43.756  55.711 -50.953  1.00  0.00     0.014 A 
HETATM    7  C   UNL     1     -44.326  54.486 -50.321  1.00  0.00     0.068 C 
ENDROOT
BRANCH   4   8
HETATM    8  C   UNL     1     -43.657  59.338 -51.758  1.00  0.00     0.165 C 
BRANCH   8   9
HETATM    9  N   UNL     1     -43.601  59.995 -50.474  1.00  0.00    -0.339 N 
HETATM   10  C   UNL     1     -44.731  60.543 -49.932  1.00  0.00     0.316 C 
HETATM   11  N   UNL     1     -44.556  60.844 -48.609  1.00  0.00    -0.339 N 
HETATM   12  O   UNL     1     -45.785  60.691 -50.534  1.00  0.00    -0.247 OA
HETATM   13  H   UNL     1     -43.625  61.103 -48.322  1.00  0.00     0.164 HD
HETATM   14  H   UNL     1     -42.892  59.676 -49.832  1.00  0.00     0.164 HD
BRANCH  11  15
HETATM   15  C   UNL     1     -45.655  61.365 -47.827  1.00  0.00     0.162 C 
BRANCH  15  16
HETATM   16  C   UNL     1     -45.190  61.899 -46.496  1.00  0.00    -0.040 A 
HETATM   17  C   UNL     1     -45.357  63.255 -46.181  1.00  0.00     0.009 A 
HETATM   18  C   UNL     1     -44.971  63.746 -44.932  1.00  0.00     0.001 A 
HETATM   19  C   UNL     1     -44.423  62.887 -43.981  1.00  0.00     0.000 A 
HETATM   20  C   UNL     1     -44.265  61.534 -44.275  1.00  0.00     0.001 A 
HETATM   21  C   UNL     1     -44.655  61.042 -45.522  1.00  0.00     0.009 A 
ENDBRANCH  15  16
ENDBRANCH  11  15
ENDBRANCH   8   9
ENDBRANCH   4   8
BRANCH   1  22
HETATM   22  C   UNL     1     -41.528  54.745 -51.606  1.00  0.00     0.040 A 
HETATM   23  C   UNL     1     -41.483  53.983 -52.781  1.00  0.00     0.036 A 
HETATM   24  C   UNL     1     -40.589  52.909 -52.902  1.00  0.00    -0.060 A 
HETATM   25  C   UNL     1     -40.533  52.107 -54.168  1.00  0.00     0.048 C 
HETATM   26  C   UNL     1     -39.710  52.632 -51.848  1.00  0.00     0.007 A 
HETATM   27  C   UNL     1     -39.743  53.396 -50.682  1.00  0.00     0.003 A 
HETATM   28  C   UNL     1     -40.652  54.448 -50.557  1.00  0.00     0.030 A 
ENDBRANCH   1  22
TORSDOF 5
ENDMDL
MODEL 3
REMARK VINA RESULT:      -8.3      5.458      8.503
REMARK  5 active torsions:
REMARK  status: ('A' for Active; 'I' for Inactive)
REMARK    1  A    between atoms: C_4  and  N_5 
REMARK    2  A    between atoms: C_8  and  C_9 
REMARK    3  A    between atoms: C_9  and  N_10 
REMARK       I    between atoms: N_10  and  C_11 
REMARK       I    between atoms: C_11  and  N_12 
REMARK    4  A    between atoms: N_12  and  C_13 
REMARK    5  A    between atoms: C_13  and  C_14 
ROOT
HETATM    1  N   UNL     1     -41.952  55.224 -52.301  1.00  0.00    -0.319 N 
HETATM    2  C   UNL     1     -43.099  55.467 -51.541  1.00  0.00     0.021 A 
HETATM    3  C   UNL     1     -43.611  54.534 -50.488  1.00  0.00     0.069 C 
HETATM    4  C   UNL     1     -43.609  56.717 -51.888  1.00  0.00    -0.016 A 
HETATM    5  C   UNL     1     -42.735  57.255 -52.862  1.00  0.00     0.035 A 
HETATM    6  C   UNL     1     -41.743  56.330 -53.122  1.00  0.00     0.014 A 
HETATM    7  C   UNL     1     -40.695  56.423 -54.179  1.00  0.00     0.068 C 
ENDROOT
BRANCH   4   8
HETATM    8  C   UNL     1     -44.842  57.389 -51.365  1.00  0.00     0.165 C 
BRANCH   8   9
HETATM    9  N   UNL     1     -44.454  58.566 -50.625  1.00  0.00    -0.339 N 
HETATM   10  C   UNL     1     -45.374  59.540 -50.352  1.00  0.00     0.316 C 
HETATM   11  N   UNL     1     -44.913  60.411 -49.402  1.00  0.00    -0.339 N 
HETATM   12  O   UNL     1     -46.490  59.596 -50.846  1.00  0.00    -0.247 OA
HETATM   13  H   UNL     1     -43.917  60.569 -49.377  1.00  0.00     0.164 HD
HETATM   14  H   UNL     1     -43.689  58.461 -49.976  1.00  0.00     0.164 HD
BRANCH  11  15
HETATM   15  C   UNL     1     -45.761  61.475 -48.914  1.00  0.00     0.162 C 
BRANCH  15  16
HETATM   16  C   UNL     1     -45.414  61.861 -47.498  1.00  0.00    -0.040 A 
HETATM   17  C   UNL     1     -45.596  63.181 -47.061  1.00  0.00     0.009 A 
HETATM   18  C   UNL     1     -45.322  63.534 -45.738  1.00  0.00     0.001 A 
HETATM   19  C   UNL     1     -44.871  62.571 -44.836  1.00  0.00     0.000 A 
HETATM   20  C   UNL     1     -44.700  61.253 -45.253  1.00  0.00     0.001 A 
HETATM   21  C   UNL     1     -44.979  60.898 -46.574  1.00  0.00     0.009 A 
ENDBRANCH  15  16
ENDBRANCH  11  15
ENDBRANCH   8   9
ENDBRANCH   4   8
BRANCH   1  22
HETATM   22  C   UNL     1     -41.135  54.053 -52.247  1.00  0.00     0.040 A 
HETATM   23  C   UNL     1     -41.107  53.162 -53.328  1.00  0.00     0.036 A 
HETATM   24  C   UNL     1     -40.338  51.990 -53.269  1.00  0.00    -0.060 A 
HETATM   25  C   UNL     1     -40.297  51.048 -54.436  1.00  0.00     0.048 C 
HETATM   26  C   UNL     1     -39.563  51.741 -52.130  1.00  0.00     0.007 A 
HETATM   27  C   UNL     1     -39.578  52.631 -51.057  1.00  0.00     0.003 A 
HETATM   28  C   UNL     1     -40.366  53.783 -51.111  1.00  0.00     0.030 A 
ENDBRANCH   1  22
TORSDOF 5
ENDMDL
MODEL 4
REMARK VINA RESULT:      -8.2      1.487      2.600
REMARK  5 active torsions:
REMARK  status: ('A' for Active; 'I' for Inactive)
REMARK    1  A    between atoms: C_4  and  N_5 
REMARK    2  A    between atoms: C_8  and  C_9 
REMARK    3  A    between atoms: C_9  and  N_10 
REMARK       I    between atoms: N_10  and  C_11 
REMARK       I    between atoms: C_11  and  N_12 
REMARK    4  A    between atoms: N_12  and  C_13 
REMARK    5  A    between atoms: C_13  and  C_14 
ROOT
HETATM    1  N   UNL     1     -41.363  54.238 -53.076  1.00  0.00    -0.319 N 
HETATM    2  C   UNL     1     -42.489  54.744 -52.420  1.00  0.00     0.021 A 
HETATM    3  C   UNL     1     -43.167  54.049 -51.280  1.00  0.00     0.069 C 
HETATM    4  C   UNL     1     -42.799  55.991 -52.960  1.00  0.00    -0.016 A 
HETATM    5  C   UNL     1     -41.822  56.259 -53.947  1.00  0.00     0.035 A 
HETATM    6  C   UNL     1     -40.967  55.177 -54.026  1.00  0.00     0.014 A 
HETATM    7  C   UNL     1     -39.880  54.973 -55.027  1.00  0.00     0.068 C 
ENDROOT
BRANCH   4   8
HETATM    8  C   UNL     1     -43.938  56.895 -52.600  1.00  0.00     0.165 C 
BRANCH   8   9
HETATM    9  N   UNL     1     -44.914  56.862 -53.663  1.00  0.00    -0.339 N 
HETATM   10  C   UNL     1     -44.919  57.836 -54.622  1.00  0.00     0.316 C 
HETATM   11  N   UNL     1     -45.695  57.482 -55.692  1.00  0.00    -0.339 N 
HETATM   12  O   UNL     1     -44.266  58.868 -54.563  1.00  0.00    -0.247 OA
HETATM   13  H   UNL     1     -46.491  56.894 -55.499  1.00  0.00     0.164 HD
HETATM   14  H   UNL     1     -45.264  55.954 -53.929  1.00  0.00     0.164 HD
BRANCH  11  15
HETATM   15  C   UNL     1     -45.778  58.342 -56.851  1.00  0.00     0.162 C 
BRANCH  15  16
HETATM   16  C   UNL     1     -45.107  57.726 -58.053  1.00  0.00    -0.040 A 
HETATM   17  C   UNL     1     -45.867  57.333 -59.163  1.00  0.00     0.009 A 
HETATM   18  C   UNL     1     -45.247  56.806 -60.298  1.00  0.00     0.001 A 
HETATM   19  C   UNL     1     -43.860  56.673 -60.338  1.00  0.00     0.000 A 
HETATM   20  C   UNL     1     -43.090  57.073 -59.248  1.00  0.00     0.001 A 
HETATM   21  C   UNL     1     -43.709  57.605 -58.115  1.00  0.00     0.009 A 
ENDBRANCH  15  16
ENDBRANCH  11  15
ENDBRANCH   8   9
ENDBRANCH   4   8
BRANCH   1  22
HETATM   22  C   UNL     1     -40.728  52.984 -52.820  1.00  0.00     0.040 A 
HETATM   23  C   UNL     1     -40.590  52.040 -53.847  1.00  0.00     0.036 A 
HETATM   24  C   UNL     1     -40.002  50.792 -53.596  1.00  0.00    -0.060 A 
HETATM   25  C   UNL     1     -39.841  49.792 -54.703  1.00  0.00     0.048 C 
HETATM   26  C   UNL     1     -39.516  50.513 -52.314  1.00  0.00     0.007 A 
HETATM   27  C   UNL     1     -39.640  51.454 -51.292  1.00  0.00     0.003 A 
HETATM   28  C   UNL     1     -40.249  52.685 -51.541  1.00  0.00     0.030 A 
ENDBRANCH   1  22
TORSDOF 5
ENDMDL
MODEL 5
REMARK VINA RESULT:      -8.1      1.830      8.395
REMARK  5 active torsions:
REMARK  status: ('A' for Active; 'I' for Inactive)
REMARK    1  A    between atoms: C_4  and  N_5 
REMARK    2  A    between atoms: C_8  and  C_9 
REMARK    3  A    between atoms: C_9  and  N_10 
REMARK       I    between atoms: N_10  and  C_11 
REMARK       I    between atoms: C_11  and  N_12 
REMARK    4  A    between atoms: N_12  and  C_13 
REMARK    5  A    between atoms: C_13  and  C_14 
ROOT
HETATM    1  N   UNL     1     -43.268  57.783 -57.883  1.00  0.00    -0.319 N 
HETATM    2  C   UNL     1     -43.272  57.723 -56.487  1.00  0.00     0.021 A 
HETATM    3  C   UNL     1     -43.968  56.653 -55.704  1.00  0.00     0.069 C 
HETATM    4  C   UNL     1     -42.484  58.760 -55.993  1.00  0.00    -0.016 A 
HETATM    5  C   UNL     1     -41.969  59.449 -57.116  1.00  0.00     0.035 A 
HETATM    6  C   UNL     1     -42.470  58.861 -58.261  1.00  0.00     0.014 A 
HETATM    7  C   UNL     1     -42.300  59.349 -59.660  1.00  0.00     0.068 C 
ENDROOT
BRANCH   4   8
HETATM    8  C   UNL     1     -42.218  59.116 -54.562  1.00  0.00     0.165 C 
BRANCH   8   9
HETATM    9  N   UNL     1     -41.330  58.130 -53.993  1.00  0.00    -0.339 N 
HETATM   10  C   UNL     1     -41.787  57.259 -53.043  1.00  0.00     0.316 C 
HETATM   11  N   UNL     1     -40.912  56.225 -52.849  1.00  0.00    -0.339 N 
HETATM   12  O   UNL     1     -42.868  57.355 -52.480  1.00  0.00    -0.247 OA
HETATM   13  H   UNL     1     -39.934  56.428 -52.987  1.00  0.00     0.164 HD
HETATM   14  H   UNL     1     -40.568  57.817 -54.575  1.00  0.00     0.164 HD
BRANCH  11  15
HETATM   15  C   UNL     1     -41.241  55.152 -51.938  1.00  0.00     0.162 C 
BRANCH  15  16
HETATM   16  C   UNL     1     -40.715  53.825 -52.426  1.00  0.00    -0.040 A 
HETATM   17  C   UNL     1     -40.837  53.470 -53.777  1.00  0.00     0.009 A 
HETATM   18  C   UNL     1     -40.310  52.263 -54.244  1.00  0.00     0.001 A 
HETATM   19  C   UNL     1     -39.649  51.403 -53.368  1.00  0.00     0.000 A 
HETATM   20  C   UNL     1     -39.509  51.750 -52.026  1.00  0.00     0.001 A 
HETATM   21  C   UNL     1     -40.031  52.958 -51.560  1.00  0.00     0.009 A 
ENDBRANCH  15  16
ENDBRANCH  11  15
ENDBRANCH   8   9
ENDBRANCH   4   8
BRANCH   1  22
HETATM   22  C   UNL     1     -43.958  56.899 -58.769  1.00  0.00     0.040 A 
HETATM   23  C   UNL     1     -45.238  57.224 -59.236  1.00  0.00     0.036 A 
HETATM   24  C   UNL     1     -45.938  56.345 -60.075  1.00  0.00    -0.060 A 
HETATM   25  C   UNL     1     -47.302  56.706 -60.586  1.00  0.00     0.048 C 
HETATM   26  C   UNL     1     -45.324  55.153 -60.476  1.00  0.00     0.007 A 
HETATM   27  C   UNL     1     -44.044  54.831 -60.025  1.00  0.00     0.003 A 
HETATM   28  C   UNL     1     -43.363  55.698 -59.169  1.00  0.00     0.030 A 
ENDBRANCH   1  22
TORSDOF 5
ENDMDL
MODEL 6
REMARK VINA RESULT:      -8.0      4.754      9.186
REMARK  5 active torsions:
REMARK  status: ('A' for Active; 'I' for Inactive)
REMARK    1  A    between atoms: C_4  and  N_5 
REMARK    2  A    between atoms: C_8  and  C_9 
REMARK    3  A    between atoms: C_9  and  N_10 
REMARK       I    between atoms: N_10  and  C_11 
REMARK       I    between atoms: C_11  and  N_12 
REMARK    4  A    between atoms: N_12  and  C_13 
REMARK    5  A    between atoms: C_13  and  C_14 
ROOT
HETATM    1  N   UNL     1     -43.862  60.325 -50.781  1.00  0.00    -0.319 N 
HETATM    2  C   UNL     1     -44.805  59.720 -51.616  1.00  0.00     0.021 A 
HETATM    3  C   UNL     1     -46.234  60.157 -51.708  1.00  0.00     0.069 C 
HETATM    4  C   UNL     1     -44.171  58.727 -52.360  1.00  0.00    -0.016 A 
HETATM    5  C   UNL     1     -42.807  58.749 -51.986  1.00  0.00     0.035 A 
HETATM    6  C   UNL     1     -42.633  59.710 -51.010  1.00  0.00     0.014 A 
HETATM    7  C   UNL     1     -41.388  59.975 -50.233  1.00  0.00     0.068 C 
ENDROOT
BRANCH   4   8
HETATM    8  C   UNL     1     -44.781  57.791 -53.359  1.00  0.00     0.165 C 
BRANCH   8   9
HETATM    9  N   UNL     1     -44.267  56.462 -53.129  1.00  0.00    -0.339 N 
HETATM   10  C   UNL     1     -43.595  55.804 -54.121  1.00  0.00     0.316 C 
HETATM   11  N   UNL     1     -42.932  54.710 -53.636  1.00  0.00    -0.339 N 
HETATM   12  O   UNL     1     -43.541  56.175 -55.285  1.00  0.00    -0.247 OA
HETATM   13  H   UNL     1     -43.347  54.241 -52.846  1.00  0.00     0.164 HD
HETATM   14  H   UNL     1     -44.027  56.228 -52.178  1.00  0.00     0.164 HD
BRANCH  11  15
HETATM   15  C   UNL     1     -42.097  53.915 -54.509  1.00  0.00     0.162 C 
BRANCH  15  16
HETATM   16  C   UNL     1     -41.119  53.071 -53.731  1.00  0.00    -0.040 A 
HETATM   17  C   UNL     1     -40.788  53.408 -52.412  1.00  0.00     0.009 A 
HETATM   18  C   UNL     1     -39.919  52.604 -51.670  1.00  0.00     0.001 A 
HETATM   19  C   UNL     1     -39.380  51.450 -52.236  1.00  0.00     0.000 A 
HETATM   20  C   UNL     1     -39.712  51.095 -53.542  1.00  0.00     0.001 A 
HETATM   21  C   UNL     1     -40.584  51.895 -54.282  1.00  0.00     0.009 A 
ENDBRANCH  15  16
ENDBRANCH  11  15
ENDBRANCH   8   9
ENDBRANCH   4   8
BRANCH   1  22
HETATM   22  C   UNL     1     -44.109  61.388 -49.858  1.00  0.00     0.040 A 
HETATM   23  C   UNL     1     -44.592  61.108 -48.572  1.00  0.00     0.036 A 
HETATM   24  C   UNL     1     -44.873  62.147 -47.673  1.00  0.00    -0.060 A 
HETATM   25  C   UNL     1     -45.374  61.841 -46.292  1.00  0.00     0.048 C 
HETATM   26  C   UNL     1     -44.626  63.469 -48.060  1.00  0.00     0.007 A 
HETATM   27  C   UNL     1     -44.134  63.751 -49.334  1.00  0.00     0.003 A 
HETATM   28  C   UNL     1     -43.880  62.715 -50.234  1.00  0.00     0.030 A 
ENDBRANCH   1  22
TORSDOF 5
ENDMDL
MODEL 7
REMARK VINA RESULT:      -8.0      1.356      1.839
REMARK  5 active torsions:
REMARK  status: ('A' for Active; 'I' for Inactive)
REMARK    1  A    between atoms: C_4  and  N_5 
REMARK    2  A    between atoms: C_8  and  C_9 
REMARK    3  A    between atoms: C_9  and  N_10 
REMARK       I    between atoms: N_10  and  C_11 
REMARK       I    between atoms: C_11  and  N_12 
REMARK    4  A    between atoms: N_12  and  C_13 
REMARK    5  A    between atoms: C_13  and  C_14 
ROOT
HETATM    1  N   UNL     1     -42.100  55.240 -52.269  1.00  0.00    -0.319 N 
HETATM    2  C   UNL     1     -41.882  56.407 -53.008  1.00  0.00     0.021 A 
HETATM    3  C   UNL     1     -40.709  56.608 -53.915  1.00  0.00     0.069 C 
HETATM    4  C   UNL     1     -42.953  57.273 -52.799  1.00  0.00    -0.016 A 
HETATM    5  C   UNL     1     -43.853  56.605 -51.935  1.00  0.00     0.035 A 
HETATM    6  C   UNL     1     -43.314  55.379 -51.601  1.00  0.00     0.014 A 
HETATM    7  C   UNL     1     -43.857  54.409 -50.607  1.00  0.00     0.068 C 
ENDROOT
BRANCH   4   8
HETATM    8  C   UNL     1     -43.146  58.652 -53.352  1.00  0.00     0.165 C 
BRANCH   8   9
HETATM    9  N   UNL     1     -43.919  58.563 -54.569  1.00  0.00    -0.339 N 
HETATM   10  C   UNL     1     -43.302  58.677 -55.784  1.00  0.00     0.316 C 
HETATM   11  N   UNL     1     -44.123  58.271 -56.801  1.00  0.00    -0.339 N 
HETATM   12  O   UNL     1     -42.146  59.039 -55.942  1.00  0.00    -0.247 OA
HETATM   13  H   UNL     1     -45.112  58.411 -56.669  1.00  0.00     0.164 HD
HETATM   14  H   UNL     1     -44.761  58.011 -54.531  1.00  0.00     0.164 HD
BRANCH  11  15
HETATM   15  C   UNL     1     -43.638  58.242 -58.163  1.00  0.00     0.162 C 
BRANCH  15  16
HETATM   16  C   UNL     1     -44.247  57.107 -58.948  1.00  0.00    -0.040 A 
HETATM   17  C   UNL     1     -43.504  55.947 -59.205  1.00  0.00     0.009 A 
HETATM   18  C   UNL     1     -44.078  54.873 -59.890  1.00  0.00     0.001 A 
HETATM   19  C   UNL     1     -45.402  54.946 -60.320  1.00  0.00     0.000 A 
HETATM   20  C   UNL     1     -46.157  56.087 -60.060  1.00  0.00     0.001 A 
HETATM   21  C   UNL     1     -45.585  57.158 -59.370  1.00  0.00     0.009 A 
ENDBRANCH  15  16
ENDBRANCH  11  15
ENDBRANCH   8   9
ENDBRANCH   4   8
BRANCH   1  22
HETATM   22  C   UNL     1     -41.234  54.105 -52.209  1.00  0.00     0.040 A 
HETATM   23  C   UNL     1     -41.171  53.207 -53.284  1.00  0.00     0.036 A 
HETATM   24  C   UNL     1     -40.352  52.070 -53.219  1.00  0.00    -0.060 A 
HETATM   25  C   UNL     1     -40.276  51.122 -54.379  1.00  0.00     0.048 C 
HETATM   26  C   UNL     1     -39.565  51.862 -52.081  1.00  0.00     0.007 A 
HETATM   27  C   UNL     1     -39.614  52.759 -51.014  1.00  0.00     0.003 A 
HETATM   28  C   UNL     1     -40.450  53.876 -51.074  1.00  0.00     0.030 A 
ENDBRANCH   1  22
TORSDOF 5
ENDMDL
MODEL 8
REMARK VINA RESULT:      -7.9      2.889      9.565
REMARK  5 active torsions:
REMARK  status: ('A' for Active; 'I' for Inactive)
REMARK    1  A    between atoms: C_4  and  N_5 
REMARK    2  A    between atoms: C_8  and  C_9 
REMARK    3  A    between atoms: C_9  and  N_10 
REMARK       I    between atoms: N_10  and  C_11 
REMARK       I    between atoms: C_11  and  N_12 
REMARK    4  A    between atoms: N_12  and  C_13 
REMARK    5  A    between atoms: C_13  and  C_14 
ROOT
HETATM    1  N   UNL     1     -43.118  58.808 -58.773  1.00  0.00    -0.319 N 
HETATM    2  C   UNL     1     -42.771  57.455 -58.797  1.00  0.00     0.021 A 
HETATM    3  C   UNL     1     -42.120  56.785 -59.968  1.00  0.00     0.069 C 
HETATM    4  C   UNL     1     -43.071  56.895 -57.557  1.00  0.00    -0.016 A 
HETATM    5  C   UNL     1     -43.586  57.940 -56.754  1.00  0.00     0.035 A 
HETATM    6  C   UNL     1     -43.631  59.094 -57.510  1.00  0.00     0.014 A 
HETATM    7  C   UNL     1     -44.233  60.398 -57.107  1.00  0.00     0.068 C 
ENDROOT
BRANCH   4   8
HETATM    8  C   UNL     1     -42.906  55.470 -57.124  1.00  0.00     0.165 C 
BRANCH   8   9
HETATM    9  N   UNL     1     -41.749  55.374 -56.266  1.00  0.00    -0.339 N 
HETATM   10  C   UNL     1     -41.881  54.923 -54.981  1.00  0.00     0.316 C 
HETATM   11  N   UNL     1     -40.666  54.617 -54.431  1.00  0.00    -0.339 N 
HETATM   12  O   UNL     1     -42.950  54.757 -54.413  1.00  0.00    -0.247 OA
HETATM   13  H   UNL     1     -39.876  55.156 -54.748  1.00  0.00     0.164 HD
HETATM   14  H   UNL     1     -40.861  55.219 -56.718  1.00  0.00     0.164 HD
BRANCH  11  15
HETATM   15  C   UNL     1     -40.588  54.052 -53.103  1.00  0.00     0.162 C 
BRANCH  15  16
HETATM   16  C   UNL     1     -40.228  52.588 -53.138  1.00  0.00    -0.040 A 
HETATM   17  C   UNL     1     -39.789  51.940 -51.975  1.00  0.00     0.009 A 
HETATM   18  C   UNL     1     -39.500  50.573 -51.990  1.00  0.00     0.001 A 
HETATM   19  C   UNL     1     -39.653  49.839 -53.165  1.00  0.00     0.000 A 
HETATM   20  C   UNL     1     -40.101  50.467 -54.325  1.00  0.00     0.001 A 
HETATM   21  C   UNL     1     -40.396  51.832 -54.309  1.00  0.00     0.009 A 
ENDBRANCH  15  16
ENDBRANCH  11  15
ENDBRANCH   8   9
ENDBRANCH   4   8
BRANCH   1  22
HETATM   22  C   UNL     1     -42.971  59.738 -59.849  1.00  0.00     0.040 A 
HETATM   23  C   UNL     1     -41.857  60.586 -59.902  1.00  0.00     0.036 A 
HETATM   24  C   UNL     1     -41.723  61.527 -60.934  1.00  0.00    -0.060 A 
HETATM   25  C   UNL     1     -40.520  62.421 -60.995  1.00  0.00     0.048 C 
HETATM   26  C   UNL     1     -42.699  61.581 -61.936  1.00  0.00     0.007 A 
HETATM   27  C   UNL     1     -43.803  60.730 -61.894  1.00  0.00     0.003 A 
HETATM   28  C   UNL     1     -43.943  59.813 -60.851  1.00  0.00     0.030 A 
ENDBRANCH   1  22
TORSDOF 5
ENDMDL
MODEL 9
REMARK VINA RESULT:      -7.9     15.357     18.984
REMARK  5 active torsions:
REMARK  status: ('A' for Active; 'I' for Inactive)
REMARK    1  A    between atoms: C_4  and  N_5 
REMARK    2  A    between atoms: C_8  and  C_9 
REMARK    3  A    between atoms: C_9  and  N_10 
REMARK       I    between atoms: N_10  and  C_11 
REMARK       I    between atoms: C_11  and  N_12 
REMARK    4  A    between atoms: N_12  and  C_13 
REMARK    5  A    between atoms: C_13  and  C_14 
ROOT
HETATM    1  N   UNL     1     -36.574  39.777 -58.762  1.00  0.00    -0.319 N 
HETATM    2  C   UNL     1     -36.465  41.120 -58.389  1.00  0.00     0.021 A 
HETATM    3  C   UNL     1     -37.190  42.234 -59.077  1.00  0.00     0.069 C 
HETATM    4  C   UNL     1     -35.646  41.205 -57.264  1.00  0.00    -0.016 A 
HETATM    5  C   UNL     1     -35.273  39.881 -56.933  1.00  0.00     0.035 A 
HETATM    6  C   UNL     1     -35.824  39.023 -57.863  1.00  0.00     0.014 A 
HETATM    7  C   UNL     1     -35.574  37.557 -57.980  1.00  0.00     0.068 C 
ENDROOT
BRANCH   4   8
HETATM    8  C   UNL     1     -35.215  42.437 -56.529  1.00  0.00     0.165 C 
BRANCH   8   9
HETATM    9  N   UNL     1     -34.515  42.043 -55.329  1.00  0.00    -0.339 N 
HETATM   10  C   UNL     1     -35.161  42.045 -54.124  1.00  0.00     0.316 C 
HETATM   11  N   UNL     1     -34.449  41.367 -53.173  1.00  0.00    -0.339 N 
HETATM   12  O   UNL     1     -36.263  42.537 -53.931  1.00  0.00    -0.247 OA
HETATM   13  H   UNL     1     -33.445  41.384 -53.260  1.00  0.00     0.164 HD
HETATM   14  H   UNL     1     -33.755  41.390 -55.442  1.00  0.00     0.164 HD
BRANCH  11  15
HETATM   15  C   UNL     1     -34.991  41.187 -51.845  1.00  0.00     0.162 C 
BRANCH  15  16
HETATM   16  C   UNL     1     -34.028  40.457 -50.942  1.00  0.00    -0.040 A 
HETATM   17  C   UNL     1     -34.508  39.601 -49.942  1.00  0.00     0.009 A 
HETATM   18  C   UNL     1     -33.621  38.885 -49.134  1.00  0.00     0.001 A 
HETATM   19  C   UNL     1     -32.246  39.012 -49.323  1.00  0.00     0.000 A 
HETATM   20  C   UNL     1     -31.755  39.848 -50.323  1.00  0.00     0.001 A 
HETATM   21  C   UNL     1     -32.641  40.560 -51.134  1.00  0.00     0.009 A 
ENDBRANCH  15  16
ENDBRANCH  11  15
ENDBRANCH   8   9
ENDBRANCH   4   8
BRANCH   1  22
HETATM   22  C   UNL     1     -37.322  39.266 -59.868  1.00  0.00     0.040 A 
HETATM   23  C   UNL     1     -38.637  38.817 -59.682  1.00  0.00     0.036 A 
HETATM   24  C   UNL     1     -39.365  38.278 -60.753  1.00  0.00    -0.060 A 
HETATM   25  C   UNL     1     -40.778  37.814 -60.553  1.00  0.00     0.048 C 
HETATM   26  C   UNL     1     -38.778  38.233 -62.022  1.00  0.00     0.007 A 
HETATM   27  C   UNL     1     -37.475  38.691 -62.214  1.00  0.00     0.003 A 
HETATM   28  C   UNL     1     -36.745  39.202 -61.140  1.00  0.00     0.030 A 
ENDBRANCH   1  22
TORSDOF 5
ENDMDL
MODEL 10
REMARK VINA RESULT:      -7.9     15.133     18.740
REMARK  5 active torsions:
REMARK  status: ('A' for Active; 'I' for Inactive)
REMARK    1  A    between atoms: C_4  and  N_5 
REMARK    2  A    between atoms: C_8  and  C_9 
REMARK    3  A    between atoms: C_9  and  N_10 
REMARK       I    between atoms: N_10  and  C_11 
REMARK       I    between atoms: C_11  and  N_12 
REMARK    4  A    between atoms: N_12  and  C_13 
REMARK    5  A    between atoms: C_13  and  C_14 
ROOT
HETATM    1  N   UNL     1     -37.348  40.217 -58.911  1.00  0.00    -0.319 N 
HETATM    2  C   UNL     1     -37.431  39.743 -57.599  1.00  0.00     0.021 A 
HETATM    3  C   UNL     1     -37.444  38.290 -57.240  1.00  0.00     0.069 C 
HETATM    4  C   UNL     1     -37.428  40.833 -56.730  1.00  0.00    -0.016 A 
HETATM    5  C   UNL     1     -37.313  41.992 -57.534  1.00  0.00     0.035 A 
HETATM    6  C   UNL     1     -37.288  41.607 -58.860  1.00  0.00     0.014 A 
HETATM    7  C   UNL     1     -37.317  42.508 -60.049  1.00  0.00     0.068 C 
ENDROOT
BRANCH   4   8
HETATM    8  C   UNL     1     -37.534  40.822 -55.236  1.00  0.00     0.165 C 
BRANCH   8   9
HETATM    9  N   UNL     1     -36.412  41.543 -54.682  1.00  0.00    -0.339 N 
HETATM   10  C   UNL     1     -36.286  41.684 -53.328  1.00  0.00     0.316 C 
HETATM   11  N   UNL     1     -35.035  42.118 -52.985  1.00  0.00    -0.339 N 
HETATM   12  O   UNL     1     -37.158  41.403 -52.519  1.00  0.00    -0.247 OA
HETATM   13  H   UNL     1     -34.564  42.713 -53.648  1.00  0.00     0.164 HD
HETATM   14  H   UNL     1     -35.563  41.544 -55.226  1.00  0.00     0.164 HD
BRANCH  11  15
HETATM   15  C   UNL     1     -34.669  42.262 -51.594  1.00  0.00     0.162 C 
BRANCH  15  16
HETATM   16  C   UNL     1     -33.840  41.098 -51.110  1.00  0.00    -0.040 A 
HETATM   17  C   UNL     1     -34.399  40.140 -50.254  1.00  0.00     0.009 A 
HETATM   18  C   UNL     1     -33.652  39.034 -49.841  1.00  0.00     0.001 A 
HETATM   19  C   UNL     1     -32.342  38.870 -50.286  1.00  0.00     0.000 A 
HETATM   20  C   UNL     1     -31.778  39.807 -51.149  1.00  0.00     0.001 A 
HETATM   21  C   UNL     1     -32.525  40.910 -51.566  1.00  0.00     0.009 A 
ENDBRANCH  15  16
ENDBRANCH  11  15
ENDBRANCH   8   9
ENDBRANCH   4   8
BRANCH   1  22
HETATM   22  C   UNL     1     -37.326  39.419 -60.097  1.00  0.00     0.040 A 
HETATM   23  C   UNL     1     -38.526  39.024 -60.704  1.00  0.00     0.036 A 
HETATM   24  C   UNL     1     -38.514  38.209 -61.846  1.00  0.00    -0.060 A 
HETATM   25  C   UNL     1     -39.801  37.803 -62.501  1.00  0.00     0.048 C 
HETATM   26  C   UNL     1     -37.287  37.829 -62.399  1.00  0.00     0.007 A 
HETATM   27  C   UNL     1     -36.090  38.231 -61.806  1.00  0.00     0.003 A 
HETATM   28  C   UNL     1     -36.107  39.020 -60.655  1.00  0.00     0.030 A 
ENDBRANCH   1  22
TORSDOF 5
ENDMDL
