MODEL 1
REMARK VINA RESULT:      -6.8      0.000      0.000
REMARK  6 active torsions:
REMARK  status: ('A' for Active; 'I' for Inactive)
REMARK    1  A    between atoms: C_2  and  C_3 
REMARK    2  A    between atoms: C_3  and  N_4 
REMARK    3  A    between atoms: C_3  and  C_15 
REMARK       I    between atoms: N_4  and  C_5 
REMARK    4  A    between atoms: C_5  and  C_6 
REMARK    5  A    between atoms: C_6  and  C_7 
REMARK    6  A    between atoms: C_16  and  O_17 
ROOT
HETATM    1  C   UNL     1     -42.445  56.814 -53.659  1.00  0.00     0.128 C 
ENDROOT
BRANCH   1   2
HETATM    2  C   UNL     1     -41.741  57.708 -52.570  1.00  0.00    -0.026 C 
HETATM    3  C   UNL     1     -40.648  58.568 -53.248  1.00  0.00     0.016 C 
HETATM    4  C   UNL     1     -41.075  56.887 -51.449  1.00  0.00     0.016 C 
HETATM    5  C   UNL     1     -42.748  58.681 -51.920  1.00  0.00     0.016 C 
ENDBRANCH   1   2
BRANCH   1   6
HETATM    6  N   UNL     1     -42.665  57.565 -54.904  1.00  0.00    -0.351 N 
HETATM    7  C   UNL     1     -43.907  57.695 -55.484  1.00  0.00     0.222 C 
HETATM    8  O   UNL     1     -44.948  57.296 -54.974  1.00  0.00    -0.273 OA
HETATM    9  H   UNL     1     -41.854  57.897 -55.403  1.00  0.00     0.163 HD
BRANCH   7  10
HETATM   10  C   UNL     1     -43.902  58.420 -56.820  1.00  0.00     0.142 C 
BRANCH  10  11
HETATM   11  C   UNL     1     -44.115  57.524 -58.013  1.00  0.00    -0.032 A 
HETATM   12  C   UNL     1     -45.307  57.526 -58.738  1.00  0.00     0.126 A 
HETATM   13  N   UNL     1     -45.563  56.702 -59.781  1.00  0.00    -0.248 NA
HETATM   14  C   UNL     1     -44.596  55.825 -60.106  1.00  0.00     0.125 A 
HETATM   15 CL   UNL     1     -44.973  54.792 -61.422  1.00  0.00    -0.063 Cl
HETATM   16  C   UNL     1     -43.383  55.722 -59.449  1.00  0.00     0.045 A 
HETATM   17  C   UNL     1     -43.143  56.585 -58.382  1.00  0.00     0.012 A 
ENDBRANCH  10  11
ENDBRANCH   7  10
ENDBRANCH   1   6
BRANCH   1  18
HETATM   18  C   UNL     1     -41.744  55.484 -53.964  1.00  0.00    -0.001 A 
HETATM   19  C   UNL     1     -42.255  54.264 -53.463  1.00  0.00     0.076 A 
HETATM   20  C   UNL     1     -41.604  53.059 -53.760  1.00  0.00     0.037 A 
HETATM   21  C   UNL     1     -40.445  53.050 -54.537  1.00  0.00     0.003 A 
HETATM   22  C   UNL     1     -39.925  54.242 -55.024  1.00  0.00     0.001 A 
HETATM   23  C   UNL     1     -40.569  55.446 -54.741  1.00  0.00     0.012 A 
BRANCH  19  24
HETATM   24  O   UNL     1     -43.388  54.350 -52.698  1.00  0.00    -0.355 OA
HETATM   25  C   UNL     1     -43.300  53.951 -51.337  1.00  0.00     0.210 C 
ENDBRANCH  19  24
ENDBRANCH   1  18
TORSDOF 6
ENDMDL
MODEL 2
REMARK VINA RESULT:      -6.7      3.690      6.506
REMARK  6 active torsions:
REMARK  status: ('A' for Active; 'I' for Inactive)
REMARK    1  A    between atoms: C_2  and  C_3 
REMARK    2  A    between atoms: C_3  and  N_4 
REMARK    3  A    between atoms: C_3  and  C_15 
REMARK       I    between atoms: N_4  and  C_5 
REMARK    4  A    between atoms: C_5  and  C_6 
REMARK    5  A    between atoms: C_6  and  C_7 
REMARK    6  A    between atoms: C_16  and  O_17 
ROOT
HETATM    1  C   UNL     1     -42.375  57.299 -53.691  1.00  0.00     0.128 C 
ENDROOT
BRANCH   1   2
HETATM    2  C   UNL     1     -43.012  58.163 -54.844  1.00  0.00    -0.026 C 
HETATM    3  C   UNL     1     -44.540  57.920 -54.876  1.00  0.00     0.016 C 
HETATM    4  C   UNL     1     -42.446  57.830 -56.237  1.00  0.00     0.016 C 
HETATM    5  C   UNL     1     -42.797  59.670 -54.585  1.00  0.00     0.016 C 
ENDBRANCH   1   2
BRANCH   1   6
HETATM    6  N   UNL     1     -41.490  56.257 -54.234  1.00  0.00    -0.351 N 
HETATM    7  C   UNL     1     -41.867  54.937 -54.329  1.00  0.00     0.222 C 
HETATM    8  O   UNL     1     -42.995  54.525 -54.075  1.00  0.00    -0.273 OA
HETATM    9  H   UNL     1     -40.534  56.510 -54.435  1.00  0.00     0.163 HD
BRANCH   7  10
HETATM   10  C   UNL     1     -40.771  54.005 -54.819  1.00  0.00     0.142 C 
BRANCH  10  11
HETATM   11  C   UNL     1     -40.420  52.899 -53.856  1.00  0.00    -0.032 A 
HETATM   12  C   UNL     1     -40.245  53.133 -52.492  1.00  0.00     0.126 A 
HETATM   13  N   UNL     1     -39.878  52.183 -51.600  1.00  0.00    -0.248 NA
HETATM   14  C   UNL     1     -39.658  50.950 -52.091  1.00  0.00     0.125 A 
HETATM   15 CL   UNL     1     -39.179  49.786 -50.926  1.00  0.00    -0.063 Cl
HETATM   16  C   UNL     1     -39.784  50.607 -53.425  1.00  0.00     0.045 A 
HETATM   17  C   UNL     1     -40.168  51.603 -54.321  1.00  0.00     0.012 A 
ENDBRANCH  10  11
ENDBRANCH   7  10
ENDBRANCH   1   6
BRANCH   1  18
HETATM   18  C   UNL     1     -41.644  58.097 -52.605  1.00  0.00    -0.001 A 
HETATM   19  C   UNL     1     -42.319  58.517 -51.435  1.00  0.00     0.076 A 
HETATM   20  C   UNL     1     -41.630  59.238 -50.451  1.00  0.00     0.037 A 
HETATM   21  C   UNL     1     -40.283  59.561 -50.618  1.00  0.00     0.003 A 
HETATM   22  C   UNL     1     -39.611  59.167 -51.768  1.00  0.00     0.001 A 
HETATM   23  C   UNL     1     -40.284  58.442 -52.751  1.00  0.00     0.012 A 
BRANCH  19  24
HETATM   24  O   UNL     1     -43.642  58.176 -51.345  1.00  0.00    -0.355 OA
HETATM   25  C   UNL     1     -44.594  59.228 -51.271  1.00  0.00     0.210 C 
ENDBRANCH  19  24
ENDBRANCH   1  18
TORSDOF 6
ENDMDL
MODEL 3
REMARK VINA RESULT:      -6.7      3.742      6.734
REMARK  6 active torsions:
REMARK  status: ('A' for Active; 'I' for Inactive)
REMARK    1  A    between atoms: C_2  and  C_3 
REMARK    2  A    between atoms: C_3  and  N_4 
REMARK    3  A    between atoms: C_3  and  C_15 
REMARK       I    between atoms: N_4  and  C_5 
REMARK    4  A    between atoms: C_5  and  C_6 
REMARK    5  A    between atoms: C_6  and  C_7 
REMARK    6  A    between atoms: C_16  and  O_17 
ROOT
HETATM    1  C   UNL     1     -42.670  57.089 -52.541  1.00  0.00     0.128 C 
ENDROOT
BRANCH   1   2
HETATM    2  C   UNL     1     -42.717  57.293 -54.103  1.00  0.00    -0.026 C 
HETATM    3  C   UNL     1     -41.675  56.362 -54.768  1.00  0.00     0.016 C 
HETATM    4  C   UNL     1     -42.410  58.739 -54.536  1.00  0.00     0.016 C 
HETATM    5  C   UNL     1     -44.100  56.904 -54.668  1.00  0.00     0.016 C 
ENDBRANCH   1   2
BRANCH   1   6
HETATM    6  N   UNL     1     -41.655  56.093 -52.165  1.00  0.00    -0.351 N 
HETATM    7  C   UNL     1     -41.909  55.074 -51.275  1.00  0.00     0.222 C 
HETATM    8  O   UNL     1     -43.015  54.836 -50.800  1.00  0.00    -0.273 OA
HETATM    9  H   UNL     1     -40.711  56.238 -52.488  1.00  0.00     0.163 HD
BRANCH   7  10
HETATM   10  C   UNL     1     -40.699  54.217 -50.942  1.00  0.00     0.142 C 
BRANCH  10  11
HETATM   11  C   UNL     1     -40.449  53.091 -51.913  1.00  0.00    -0.032 A 
HETATM   12  C   UNL     1     -39.778  51.927 -51.541  1.00  0.00     0.126 A 
HETATM   13  N   UNL     1     -39.485  50.915 -52.391  1.00  0.00    -0.248 NA
HETATM   14  C   UNL     1     -39.860  51.077 -53.672  1.00  0.00     0.125 A 
HETATM   15 CL   UNL     1     -39.452  49.777 -54.713  1.00  0.00    -0.063 Cl
HETATM   16  C   UNL     1     -40.515  52.195 -54.157  1.00  0.00     0.045 A 
HETATM   17  C   UNL     1     -40.810  53.219 -53.260  1.00  0.00     0.012 A 
ENDBRANCH  10  11
ENDBRANCH   7  10
ENDBRANCH   1   6
BRANCH   1  18
HETATM   18  C   UNL     1     -42.479  58.371 -51.723  1.00  0.00    -0.001 A 
HETATM   19  C   UNL     1     -43.579  59.204 -51.411  1.00  0.00     0.076 A 
HETATM   20  C   UNL     1     -43.384  60.366 -50.654  1.00  0.00     0.037 A 
HETATM   21  C   UNL     1     -42.110  60.722 -50.213  1.00  0.00     0.003 A 
HETATM   22  C   UNL     1     -41.018  59.921 -50.522  1.00  0.00     0.001 A 
HETATM   23  C   UNL     1     -41.201  58.757 -51.268  1.00  0.00     0.012 A 
BRANCH  19  24
HETATM   24  O   UNL     1     -44.798  58.799 -51.888  1.00  0.00    -0.355 OA
HETATM   25  C   UNL     1     -45.662  59.792 -52.424  1.00  0.00     0.210 C 
ENDBRANCH  19  24
ENDBRANCH   1  18
TORSDOF 6
ENDMDL
MODEL 4
REMARK VINA RESULT:      -6.4      3.367      6.974
REMARK  6 active torsions:
REMARK  status: ('A' for Active; 'I' for Inactive)
REMARK    1  A    between atoms: C_2  and  C_3 
REMARK    2  A    between atoms: C_3  and  N_4 
REMARK    3  A    between atoms: C_3  and  C_15 
REMARK       I    between atoms: N_4  and  C_5 
REMARK    4  A    between atoms: C_5  and  C_6 
REMARK    5  A    between atoms: C_6  and  C_7 
REMARK    6  A    between atoms: C_16  and  O_17 
ROOT
HETATM    1  C   UNL     1     -43.278  56.526 -57.439  1.00  0.00     0.128 C 
ENDROOT
BRANCH   1   2
HETATM    2  C   UNL     1     -43.529  56.271 -58.973  1.00  0.00    -0.026 C 
HETATM    3  C   UNL     1     -44.135  54.860 -59.162  1.00  0.00     0.016 C 
HETATM    4  C   UNL     1     -42.245  56.357 -59.821  1.00  0.00     0.016 C 
HETATM    5  C   UNL     1     -44.548  57.283 -59.541  1.00  0.00     0.016 C 
ENDBRANCH   1   2
BRANCH   1   6
HETATM    6  N   UNL     1     -42.111  55.771 -56.958  1.00  0.00    -0.351 N 
HETATM    7  C   UNL     1     -42.190  54.855 -55.933  1.00  0.00     0.222 C 
HETATM    8  O   UNL     1     -43.240  54.506 -55.403  1.00  0.00    -0.273 OA
HETATM    9  H   UNL     1     -41.205  56.023 -57.321  1.00  0.00     0.163 HD
BRANCH   7  10
HETATM   10  C   UNL     1     -40.854  54.262 -55.519  1.00  0.00     0.142 C 
BRANCH  10  11
HETATM   11  C   UNL     1     -40.745  53.944 -54.048  1.00  0.00    -0.032 A 
HETATM   12  C   UNL     1     -40.973  54.905 -53.064  1.00  0.00     0.126 A 
HETATM   13  N   UNL     1     -40.835  54.680 -51.736  1.00  0.00    -0.248 NA
HETATM   14  C   UNL     1     -40.435  53.448 -51.374  1.00  0.00     0.125 A 
HETATM   15 CL   UNL     1     -40.260  53.216 -49.684  1.00  0.00    -0.063 Cl
HETATM   16  C   UNL     1     -40.166  52.422 -52.262  1.00  0.00     0.045 A 
HETATM   17  C   UNL     1     -40.321  52.680 -53.622  1.00  0.00     0.012 A 
ENDBRANCH  10  11
ENDBRANCH   7  10
ENDBRANCH   1   6
BRANCH   1  18
HETATM   18  C   UNL     1     -43.155  58.000 -57.035  1.00  0.00    -0.001 A 
HETATM   19  C   UNL     1     -44.049  58.574 -56.102  1.00  0.00     0.076 A 
HETATM   20  C   UNL     1     -43.914  59.920 -55.739  1.00  0.00     0.037 A 
HETATM   21  C   UNL     1     -42.911  60.710 -56.301  1.00  0.00     0.003 A 
HETATM   22  C   UNL     1     -42.033  60.164 -57.228  1.00  0.00     0.001 A 
HETATM   23  C   UNL     1     -42.153  58.822 -57.591  1.00  0.00     0.012 A 
BRANCH  19  24
HETATM   24  O   UNL     1     -45.017  57.743 -55.602  1.00  0.00    -0.355 OA
HETATM   25  C   UNL     1     -44.934  57.377 -54.231  1.00  0.00     0.210 C 
ENDBRANCH  19  24
ENDBRANCH   1  18
TORSDOF 6
ENDMDL
MODEL 5
REMARK VINA RESULT:      -6.2     15.706     17.644
REMARK  6 active torsions:
REMARK  status: ('A' for Active; 'I' for Inactive)
REMARK    1  A    between atoms: C_2  and  C_3 
REMARK    2  A    between atoms: C_3  and  N_4 
REMARK    3  A    between atoms: C_3  and  C_15 
REMARK       I    between atoms: N_4  and  C_5 
REMARK    4  A    between atoms: C_5  and  C_6 
REMARK    5  A    between atoms: C_6  and  C_7 
REMARK    6  A    between atoms: C_16  and  O_17 
ROOT
HETATM    1  C   UNL     1     -34.727  40.510 -54.010  1.00  0.00     0.128 C 
ENDROOT
BRANCH   1   2
HETATM    2  C   UNL     1     -33.832  39.445 -54.749  1.00  0.00    -0.026 C 
HETATM    3  C   UNL     1     -34.547  38.990 -56.043  1.00  0.00     0.016 C 
HETATM    4  C   UNL     1     -33.547  38.195 -53.895  1.00  0.00     0.016 C 
HETATM    5  C   UNL     1     -32.479  40.059 -55.169  1.00  0.00     0.016 C 
ENDBRANCH   1   2
BRANCH   1   6
HETATM    6  N   UNL     1     -35.902  40.870 -54.818  1.00  0.00    -0.351 N 
HETATM    7  C   UNL     1     -35.965  42.023 -55.567  1.00  0.00     0.222 C 
HETATM    8  O   UNL     1     -35.024  42.796 -55.717  1.00  0.00    -0.273 OA
HETATM    9  H   UNL     1     -36.730  40.301 -54.723  1.00  0.00     0.163 HD
BRANCH   7  10
HETATM   10  C   UNL     1     -37.305  42.259 -56.244  1.00  0.00     0.142 C 
BRANCH  10  11
HETATM   11  C   UNL     1     -37.455  41.573 -57.579  1.00  0.00    -0.032 A 
HETATM   12  C   UNL     1     -37.837  40.236 -57.686  1.00  0.00     0.126 A 
HETATM   13  N   UNL     1     -37.933  39.565 -58.857  1.00  0.00    -0.248 NA
HETATM   14  C   UNL     1     -37.617  40.251 -59.971  1.00  0.00     0.125 A 
HETATM   15 CL   UNL     1     -37.738  39.354 -61.427  1.00  0.00    -0.063 Cl
HETATM   16  C   UNL     1     -37.210  41.573 -59.984  1.00  0.00     0.045 A 
HETATM   17  C   UNL     1     -37.126  42.241 -58.764  1.00  0.00     0.012 A 
ENDBRANCH  10  11
ENDBRANCH   7  10
ENDBRANCH   1   6
BRANCH   1  18
HETATM   18  C   UNL     1     -35.161  40.125 -52.591  1.00  0.00    -0.001 A 
HETATM   19  C   UNL     1     -34.338  40.412 -51.477  1.00  0.00     0.076 A 
HETATM   20  C   UNL     1     -34.758  40.059 -50.188  1.00  0.00     0.037 A 
HETATM   21  C   UNL     1     -35.978  39.413 -49.989  1.00  0.00     0.003 A 
HETATM   22  C   UNL     1     -36.790  39.113 -51.075  1.00  0.00     0.001 A 
HETATM   23  C   UNL     1     -36.387  39.466 -52.362  1.00  0.00     0.012 A 
BRANCH  19  24
HETATM   24  O   UNL     1     -33.149  41.037 -51.749  1.00  0.00    -0.355 OA
HETATM   25  C   UNL     1     -31.950  40.351 -51.416  1.00  0.00     0.210 C 
ENDBRANCH  19  24
ENDBRANCH   1  18
TORSDOF 6
ENDMDL
MODEL 6
REMARK VINA RESULT:      -6.2      2.298      4.208
REMARK  6 active torsions:
REMARK  status: ('A' for Active; 'I' for Inactive)
REMARK    1  A    between atoms: C_2  and  C_3 
REMARK    2  A    between atoms: C_3  and  N_4 
REMARK    3  A    between atoms: C_3  and  C_15 
REMARK       I    between atoms: N_4  and  C_5 
REMARK    4  A    between atoms: C_5  and  C_6 
REMARK    5  A    between atoms: C_6  and  C_7 
REMARK    6  A    between atoms: C_16  and  O_17 
ROOT
HETATM    1  C   UNL     1     -41.460  56.104 -52.174  1.00  0.00     0.128 C 
ENDROOT
BRANCH   1   2
HETATM    2  C   UNL     1     -41.628  54.960 -51.104  1.00  0.00    -0.026 C 
HETATM    3  C   UNL     1     -40.545  53.880 -51.342  1.00  0.00     0.016 C 
HETATM    4  C   UNL     1     -43.006  54.274 -51.160  1.00  0.00     0.016 C 
HETATM    5  C   UNL     1     -41.420  55.505 -49.675  1.00  0.00     0.016 C 
ENDBRANCH   1   2
BRANCH   1   6
HETATM    6  N   UNL     1     -42.424  55.952 -53.273  1.00  0.00    -0.351 N 
HETATM    7  C   UNL     1     -42.043  55.643 -54.559  1.00  0.00     0.222 C 
HETATM    8  O   UNL     1     -40.894  55.364 -54.886  1.00  0.00    -0.273 OA
HETATM    9  H   UNL     1     -43.386  56.196 -53.092  1.00  0.00     0.163 HD
BRANCH   7  10
HETATM   10  C   UNL     1     -43.181  55.634 -55.566  1.00  0.00     0.142 C 
BRANCH  10  11
HETATM   11  C   UNL     1     -42.900  56.412 -56.827  1.00  0.00    -0.032 A 
HETATM   12  C   UNL     1     -42.974  55.826 -58.090  1.00  0.00     0.126 A 
HETATM   13  N   UNL     1     -42.679  56.470 -59.244  1.00  0.00    -0.248 NA
HETATM   14  C   UNL     1     -42.274  57.748 -59.133  1.00  0.00     0.125 A 
HETATM   15 CL   UNL     1     -41.896  58.515 -60.619  1.00  0.00    -0.063 Cl
HETATM   16  C   UNL     1     -42.148  58.425 -57.934  1.00  0.00     0.045 A 
HETATM   17  C   UNL     1     -42.464  57.741 -56.762  1.00  0.00     0.012 A 
ENDBRANCH  10  11
ENDBRANCH   7  10
ENDBRANCH   1   6
BRANCH   1  18
HETATM   18  C   UNL     1     -41.519  57.531 -51.615  1.00  0.00    -0.001 A 
HETATM   19  C   UNL     1     -42.758  58.190 -51.438  1.00  0.00     0.076 A 
HETATM   20  C   UNL     1     -42.790  59.491 -50.918  1.00  0.00     0.037 A 
HETATM   21  C   UNL     1     -41.609  60.153 -50.584  1.00  0.00     0.003 A 
HETATM   22  C   UNL     1     -40.384  59.522 -50.764  1.00  0.00     0.001 A 
HETATM   23  C   UNL     1     -40.340  58.225 -51.273  1.00  0.00     0.012 A 
BRANCH  19  24
HETATM   24  O   UNL     1     -43.875  57.485 -51.801  1.00  0.00    -0.355 OA
HETATM   25  C   UNL     1     -45.116  57.866 -51.221  1.00  0.00     0.210 C 
ENDBRANCH  19  24
ENDBRANCH   1  18
TORSDOF 6
ENDMDL
MODEL 7
REMARK VINA RESULT:      -6.1      2.376      4.440
REMARK  6 active torsions:
REMARK  status: ('A' for Active; 'I' for Inactive)
REMARK    1  A    between atoms: C_2  and  C_3 
REMARK    2  A    between atoms: C_3  and  N_4 
REMARK    3  A    between atoms: C_3  and  C_15 
REMARK       I    between atoms: N_4  and  C_5 
REMARK    4  A    between atoms: C_5  and  C_6 
REMARK    5  A    between atoms: C_6  and  C_7 
REMARK    6  A    between atoms: C_16  and  O_17 
ROOT
HETATM    1  C   UNL     1     -42.021  55.993 -52.439  1.00  0.00     0.128 C 
ENDROOT
BRANCH   1   2
HETATM    2  C   UNL     1     -41.903  54.835 -51.378  1.00  0.00    -0.026 C 
HETATM    3  C   UNL     1     -41.770  55.452 -49.965  1.00  0.00     0.016 C 
HETATM    4  C   UNL     1     -40.688  53.917 -51.614  1.00  0.00     0.016 C 
HETATM    5  C   UNL     1     -43.174  53.959 -51.374  1.00  0.00     0.016 C 
ENDBRANCH   1   2
BRANCH   1   6
HETATM    6  N   UNL     1     -42.676  55.524 -53.669  1.00  0.00    -0.351 N 
HETATM    7  C   UNL     1     -41.976  55.217 -54.814  1.00  0.00     0.222 C 
HETATM    8  O   UNL     1     -40.751  55.203 -54.886  1.00  0.00    -0.273 OA
HETATM    9  H   UNL     1     -43.684  55.539 -53.700  1.00  0.00     0.163 HD
BRANCH   7  10
HETATM   10  C   UNL     1     -42.848  54.852 -56.003  1.00  0.00     0.142 C 
BRANCH  10  11
HETATM   11  C   UNL     1     -42.803  55.847 -57.135  1.00  0.00    -0.032 A 
HETATM   12  C   UNL     1     -42.474  57.187 -56.930  1.00  0.00     0.126 A 
HETATM   13  N   UNL     1     -42.474  58.126 -57.905  1.00  0.00    -0.248 NA
HETATM   14  C   UNL     1     -42.833  57.717 -59.135  1.00  0.00     0.125 A 
HETATM   15 CL   UNL     1     -42.833  58.945 -60.331  1.00  0.00    -0.063 Cl
HETATM   16  C   UNL     1     -43.194  56.420 -59.451  1.00  0.00     0.045 A 
HETATM   17  C   UNL     1     -43.182  55.472 -58.430  1.00  0.00     0.012 A 
ENDBRANCH  10  11
ENDBRANCH   7  10
ENDBRANCH   1   6
BRANCH   1  18
HETATM   18  C   UNL     1     -42.701  57.272 -51.935  1.00  0.00    -0.001 A 
HETATM   19  C   UNL     1     -41.939  58.415 -51.598  1.00  0.00     0.076 A 
HETATM   20  C   UNL     1     -42.581  59.576 -51.148  1.00  0.00     0.037 A 
HETATM   21  C   UNL     1     -43.969  59.615 -51.014  1.00  0.00     0.003 A 
HETATM   22  C   UNL     1     -44.729  58.495 -51.329  1.00  0.00     0.001 A 
HETATM   23  C   UNL     1     -44.102  57.337 -51.786  1.00  0.00     0.012 A 
BRANCH  19  24
HETATM   24  O   UNL     1     -40.581  58.300 -51.742  1.00  0.00    -0.355 OA
HETATM   25  C   UNL     1     -39.758  59.144 -50.949  1.00  0.00     0.210 C 
ENDBRANCH  19  24
ENDBRANCH   1  18
TORSDOF 6
ENDMDL
MODEL 8
REMARK VINA RESULT:      -6.1      3.780      5.873
REMARK  6 active torsions:
REMARK  status: ('A' for Active; 'I' for Inactive)
REMARK    1  A    between atoms: C_2  and  C_3 
REMARK    2  A    between atoms: C_3  and  N_4 
REMARK    3  A    between atoms: C_3  and  C_15 
REMARK       I    between atoms: N_4  and  C_5 
REMARK    4  A    between atoms: C_5  and  C_6 
REMARK    5  A    between atoms: C_6  and  C_7 
REMARK    6  A    between atoms: C_16  and  O_17 
ROOT
HETATM    1  C   UNL     1     -41.648  55.975 -54.140  1.00  0.00     0.128 C 
ENDROOT
BRANCH   1   2
HETATM    2  C   UNL     1     -43.133  55.914 -54.660  1.00  0.00    -0.026 C 
HETATM    3  C   UNL     1     -43.194  56.495 -56.093  1.00  0.00     0.016 C 
HETATM    4  C   UNL     1     -44.118  56.709 -53.781  1.00  0.00     0.016 C 
HETATM    5  C   UNL     1     -43.630  54.455 -54.740  1.00  0.00     0.016 C 
ENDBRANCH   1   2
BRANCH   1   6
HETATM    6  N   UNL     1     -41.497  56.977 -53.075  1.00  0.00    -0.351 N 
HETATM    7  C   UNL     1     -41.149  58.285 -53.328  1.00  0.00     0.222 C 
HETATM    8  O   UNL     1     -41.037  58.760 -54.454  1.00  0.00    -0.273 OA
HETATM    9  H   UNL     1     -41.542  56.659 -52.119  1.00  0.00     0.163 HD
BRANCH   7  10
HETATM   10  C   UNL     1     -40.944  59.132 -52.083  1.00  0.00     0.142 C 
BRANCH  10  11
HETATM   11  C   UNL     1     -42.179  59.866 -51.622  1.00  0.00    -0.032 A 
HETATM   12  C   UNL     1     -43.307  59.997 -52.429  1.00  0.00     0.126 A 
HETATM   13  N   UNL     1     -44.416  60.692 -52.079  1.00  0.00    -0.248 NA
HETATM   14  C   UNL     1     -44.391  61.297 -50.878  1.00  0.00     0.125 A 
HETATM   15 CL   UNL     1     -45.809  62.177 -50.486  1.00  0.00    -0.063 Cl
HETATM   16  C   UNL     1     -43.321  61.249 -50.002  1.00  0.00     0.045 A 
HETATM   17  C   UNL     1     -42.196  60.523 -50.385  1.00  0.00     0.012 A 
ENDBRANCH  10  11
ENDBRANCH   7  10
ENDBRANCH   1   6
BRANCH   1  18
HETATM   18  C   UNL     1     -41.060  54.633 -53.687  1.00  0.00    -0.001 A 
HETATM   19  C   UNL     1     -41.192  54.198 -52.348  1.00  0.00     0.076 A 
HETATM   20  C   UNL     1     -40.656  52.964 -51.957  1.00  0.00     0.037 A 
HETATM   21  C   UNL     1     -39.977  52.162 -52.874  1.00  0.00     0.003 A 
HETATM   22  C   UNL     1     -39.828  52.582 -54.189  1.00  0.00     0.001 A 
HETATM   23  C   UNL     1     -40.365  53.805 -54.592  1.00  0.00     0.012 A 
BRANCH  19  24
HETATM   24  O   UNL     1     -41.859  55.043 -51.500  1.00  0.00    -0.355 OA
HETATM   25  C   UNL     1     -43.048  54.565 -50.887  1.00  0.00     0.210 C 
ENDBRANCH  19  24
ENDBRANCH   1  18
TORSDOF 6
ENDMDL
MODEL 9
REMARK VINA RESULT:      -6.0      1.529      2.054
REMARK  6 active torsions:
REMARK  status: ('A' for Active; 'I' for Inactive)
REMARK    1  A    between atoms: C_2  and  C_3 
REMARK    2  A    between atoms: C_3  and  N_4 
REMARK    3  A    between atoms: C_3  and  C_15 
REMARK       I    between atoms: N_4  and  C_5 
REMARK    4  A    between atoms: C_5  and  C_6 
REMARK    5  A    between atoms: C_6  and  C_7 
REMARK    6  A    between atoms: C_16  and  O_17 
ROOT
HETATM    1  C   UNL     1     -42.565  56.452 -54.721  1.00  0.00     0.128 C 
ENDROOT
BRANCH   1   2
HETATM    2  C   UNL     1     -42.109  57.755 -53.961  1.00  0.00    -0.026 C 
HETATM    3  C   UNL     1     -40.707  57.521 -53.348  1.00  0.00     0.016 C 
HETATM    4  C   UNL     1     -43.065  58.161 -52.824  1.00  0.00     0.016 C 
HETATM    5  C   UNL     1     -41.986  58.947 -54.935  1.00  0.00     0.016 C 
ENDBRANCH   1   2
BRANCH   1   6
HETATM    6  N   UNL     1     -42.595  56.667 -56.175  1.00  0.00    -0.351 N 
HETATM    7  C   UNL     1     -43.051  55.714 -57.058  1.00  0.00     0.222 C 
HETATM    8  O   UNL     1     -43.568  54.654 -56.717  1.00  0.00    -0.273 OA
HETATM    9  H   UNL     1     -42.157  57.500 -56.537  1.00  0.00     0.163 HD
BRANCH   7  10
HETATM   10  C   UNL     1     -42.900  56.091 -58.522  1.00  0.00     0.142 C 
BRANCH  10  11
HETATM   11  C   UNL     1     -44.202  56.170 -59.280  1.00  0.00    -0.032 A 
HETATM   12  C   UNL     1     -44.458  55.373 -60.395  1.00  0.00     0.126 A 
HETATM   13  N   UNL     1     -45.588  55.447 -61.138  1.00  0.00    -0.248 NA
HETATM   14  C   UNL     1     -46.495  56.367 -60.763  1.00  0.00     0.125 A 
HETATM   15 CL   UNL     1     -47.900  56.434 -61.743  1.00  0.00    -0.063 Cl
HETATM   16  C   UNL     1     -46.340  57.221 -59.685  1.00  0.00     0.045 A 
HETATM   17  C   UNL     1     -45.171  57.120 -58.935  1.00  0.00     0.012 A 
ENDBRANCH  10  11
ENDBRANCH   7  10
ENDBRANCH   1   6
BRANCH   1  18
HETATM   18  C   UNL     1     -41.760  55.190 -54.390  1.00  0.00    -0.001 A 
HETATM   19  C   UNL     1     -42.186  54.303 -53.375  1.00  0.00     0.076 A 
HETATM   20  C   UNL     1     -41.440  53.150 -53.095  1.00  0.00     0.037 A 
HETATM   21  C   UNL     1     -40.270  52.872 -53.800  1.00  0.00     0.003 A 
HETATM   22  C   UNL     1     -39.832  53.741 -54.791  1.00  0.00     0.001 A 
HETATM   23  C   UNL     1     -40.570  54.887 -55.084  1.00  0.00     0.012 A 
BRANCH  19  24
HETATM   24  O   UNL     1     -43.337  54.646 -52.715  1.00  0.00    -0.355 OA
HETATM   25  C   UNL     1     -43.396  54.405 -51.316  1.00  0.00     0.210 C 
ENDBRANCH  19  24
ENDBRANCH   1  18
TORSDOF 6
ENDMDL
MODEL 10
REMARK VINA RESULT:      -5.9      4.137      6.409
REMARK  6 active torsions:
REMARK  status: ('A' for Active; 'I' for Inactive)
REMARK    1  A    between atoms: C_2  and  C_3 
REMARK    2  A    between atoms: C_3  and  N_4 
REMARK    3  A    between atoms: C_3  and  C_15 
REMARK       I    between atoms: N_4  and  C_5 
REMARK    4  A    between atoms: C_5  and  C_6 
REMARK    5  A    between atoms: C_6  and  C_7 
REMARK    6  A    between atoms: C_16  and  O_17 
ROOT
HETATM    1  C   UNL     1     -41.935  56.892 -53.074  1.00  0.00     0.128 C 
ENDROOT
BRANCH   1   2
HETATM    2  C   UNL     1     -43.204  56.846 -54.006  1.00  0.00    -0.026 C 
HETATM    3  C   UNL     1     -44.327  57.708 -53.379  1.00  0.00     0.016 C 
HETATM    4  C   UNL     1     -43.755  55.422 -54.212  1.00  0.00     0.016 C 
HETATM    5  C   UNL     1     -42.892  57.447 -55.393  1.00  0.00     0.016 C 
ENDBRANCH   1   2
BRANCH   1   6
HETATM    6  N   UNL     1     -42.032  57.985 -52.095  1.00  0.00    -0.351 N 
HETATM    7  C   UNL     1     -41.150  59.042 -52.070  1.00  0.00     0.222 C 
HETATM    8  O   UNL     1     -40.278  59.228 -52.913  1.00  0.00    -0.273 OA
HETATM    9  H   UNL     1     -42.704  57.889 -51.348  1.00  0.00     0.163 HD
BRANCH   7  10
HETATM   10  C   UNL     1     -41.362  60.008 -50.917  1.00  0.00     0.142 C 
BRANCH  10  11
HETATM   11  C   UNL     1     -42.649  60.790 -50.990  1.00  0.00    -0.032 A 
HETATM   12  C   UNL     1     -43.100  61.365 -52.178  1.00  0.00     0.126 A 
HETATM   13  N   UNL     1     -44.219  62.119 -52.280  1.00  0.00    -0.248 NA
HETATM   14  C   UNL     1     -44.911  62.325 -51.145  1.00  0.00     0.125 A 
HETATM   15 CL   UNL     1     -46.311  63.300 -51.321  1.00  0.00    -0.063 Cl
HETATM   16  C   UNL     1     -44.550  61.820 -49.909  1.00  0.00     0.045 A 
HETATM   17  C   UNL     1     -43.396  61.042 -49.833  1.00  0.00     0.012 A 
ENDBRANCH  10  11
ENDBRANCH   7  10
ENDBRANCH   1   6
BRANCH   1  18
HETATM   18  C   UNL     1     -41.601  55.576 -52.362  1.00  0.00    -0.001 A 
HETATM   19  C   UNL     1     -40.749  54.621 -52.965  1.00  0.00     0.076 A 
HETATM   20  C   UNL     1     -40.450  53.428 -52.294  1.00  0.00     0.037 A 
HETATM   21  C   UNL     1     -40.995  53.163 -51.038  1.00  0.00     0.003 A 
HETATM   22  C   UNL     1     -41.844  54.085 -50.440  1.00  0.00     0.001 A 
HETATM   23  C   UNL     1     -42.143  55.280 -51.095  1.00  0.00     0.012 A 
BRANCH  19  24
HETATM   24  O   UNL     1     -40.260  54.943 -54.204  1.00  0.00    -0.355 OA
HETATM   25  C   UNL     1     -40.268  53.932 -55.202  1.00  0.00     0.210 C 
ENDBRANCH  19  24
ENDBRANCH   1  18
TORSDOF 6
ENDMDL
