MODEL 1
REMARK VINA RESULT:      -8.6      0.000      0.000
REMARK  4 active torsions:
REMARK  status: ('A' for Active; 'I' for Inactive)
REMARK    1  A    between atoms: C_5  and  C_6 
REMARK    2  A    between atoms: C_10  and  C_11 
REMARK       I    between atoms: C_11  and  N_12 
REMARK    3  A    between atoms: N_12  and  N_13 
REMARK       I    between atoms: N_13  and  C_14 
REMARK       I    between atoms: C_14  and  N_15 
REMARK    4  A    between atoms: N_15  and  C_16 
ROOT
HETATM    1  C   UNL     1     -41.359  58.658 -53.972  1.00  0.00     0.288 C 
HETATM    2  N   UNL     1     -42.303  58.917 -54.941  1.00  0.00    -0.261 N 
HETATM    3  O   UNL     1     -40.609  59.534 -53.542  1.00  0.00    -0.264 OA
HETATM    4  H   UNL     1     -42.889  58.204 -55.369  1.00  0.00     0.190 HD
ENDROOT
BRANCH   1   5
HETATM    5  C   UNL     1     -41.302  57.298 -53.515  1.00  0.00     0.121 A 
HETATM    6  N   UNL     1     -41.804  56.924 -52.301  1.00  0.00    -0.272 N 
HETATM    7  N   UNL     1     -41.634  55.626 -52.012  1.00  0.00    -0.174 NA
HETATM    8  H   UNL     1     -42.264  57.521 -51.621  1.00  0.00     0.189 HD
HETATM    9  C   UNL     1     -40.993  55.118 -53.077  1.00  0.00     0.089 A 
HETATM   10  C   UNL     1     -40.783  56.136 -54.052  1.00  0.00     0.071 A 
BRANCH   9  11
HETATM   11  C   UNL     1     -40.576  53.711 -53.130  1.00  0.00    -0.006 A 
HETATM   12  C   UNL     1     -40.161  53.030 -51.978  1.00  0.00     0.014 A 
HETATM   13  C   UNL     1     -39.803  51.678 -52.034  1.00  0.00     0.007 A 
HETATM   14  C   UNL     1     -39.840  50.983 -53.246  1.00  0.00    -0.062 A 
HETATM   15  C   UNL     1     -39.505  49.523 -53.304  1.00  0.00     0.048 C 
HETATM   16  C   UNL     1     -40.252  51.656 -54.400  1.00  0.00     0.007 A 
HETATM   17  C   UNL     1     -40.609  53.008 -54.342  1.00  0.00     0.014 A 
ENDBRANCH   9  11
ENDBRANCH   1   5
BRANCH   2  18
HETATM   18  N   UNL     1     -42.341  60.188 -55.543  1.00  0.00    -0.249 N 
HETATM   19  C   UNL     1     -41.928  60.247 -56.866  1.00  0.00     0.339 C 
HETATM   20  N   UNL     1     -41.871  61.550 -57.314  1.00  0.00    -0.306 N 
HETATM   21  O   UNL     1     -41.722  59.232 -57.524  1.00  0.00    -0.245 OA
HETATM   22  H   UNL     1     -42.595  62.129 -56.913  1.00  0.00     0.171 HD
HETATM   23  H   UNL     1     -42.088  60.956 -54.926  1.00  0.00     0.192 HD
BRANCH  20  24
HETATM   24  C   UNL     1     -41.402  61.930 -58.595  1.00  0.00     0.058 A 
HETATM   25  C   UNL     1     -42.100  61.739 -59.803  1.00  0.00     0.060 A 
HETATM   26 CL   UNL     1     -43.550  60.802 -59.928  1.00  0.00    -0.082 Cl
HETATM   27  C   UNL     1     -41.548  62.190 -61.009  1.00  0.00     0.026 A 
HETATM   28  C   UNL     1     -40.295  62.801 -61.030  1.00  0.00     0.002 A 
HETATM   29  C   UNL     1     -39.574  62.941 -59.849  1.00  0.00     0.002 A 
HETATM   30  C   UNL     1     -40.120  62.499 -58.641  1.00  0.00     0.031 A 
ENDBRANCH  20  24
ENDBRANCH   2  18
TORSDOF 4
ENDMDL
MODEL 2
REMARK VINA RESULT:      -8.5      6.224      7.321
REMARK  4 active torsions:
REMARK  status: ('A' for Active; 'I' for Inactive)
REMARK    1  A    between atoms: C_5  and  C_6 
REMARK    2  A    between atoms: C_10  and  C_11 
REMARK       I    between atoms: C_11  and  N_12 
REMARK    3  A    between atoms: N_12  and  N_13 
REMARK       I    between atoms: N_13  and  C_14 
REMARK       I    between atoms: C_14  and  N_15 
REMARK    4  A    between atoms: N_15  and  C_16 
ROOT
HETATM    1  C   UNL     1     -43.949  57.357 -51.094  1.00  0.00     0.288 C 
HETATM    2  N   UNL     1     -43.529  58.652 -51.295  1.00  0.00    -0.261 N 
HETATM    3  O   UNL     1     -45.104  57.090 -50.761  1.00  0.00    -0.264 OA
HETATM    4  H   UNL     1     -42.567  58.913 -51.501  1.00  0.00     0.190 HD
ENDROOT
BRANCH   1   5
HETATM    5  C   UNL     1     -42.945  56.346 -51.282  1.00  0.00     0.121 A 
HETATM    6  N   UNL     1     -41.747  56.391 -50.629  1.00  0.00    -0.272 N 
HETATM    7  N   UNL     1     -40.910  55.394 -50.948  1.00  0.00    -0.174 NA
HETATM    8  H   UNL     1     -41.442  57.092 -49.960  1.00  0.00     0.189 HD
HETATM    9  C   UNL     1     -41.581  54.657 -51.848  1.00  0.00     0.089 A 
HETATM   10  C   UNL     1     -42.872  55.215 -52.070  1.00  0.00     0.071 A 
BRANCH   9  11
HETATM   11  C   UNL     1     -40.978  53.481 -52.489  1.00  0.00    -0.006 A 
HETATM   12  C   UNL     1     -40.131  52.619 -51.779  1.00  0.00     0.014 A 
HETATM   13  C   UNL     1     -39.593  51.480 -52.389  1.00  0.00     0.007 A 
HETATM   14  C   UNL     1     -39.883  51.185 -53.724  1.00  0.00    -0.062 A 
HETATM   15  C   UNL     1     -39.351  49.940 -54.368  1.00  0.00     0.048 C 
HETATM   16  C   UNL     1     -40.728  52.040 -54.438  1.00  0.00     0.007 A 
HETATM   17  C   UNL     1     -41.263  53.179 -53.827  1.00  0.00     0.014 A 
ENDBRANCH   9  11
ENDBRANCH   1   5
BRANCH   2  18
HETATM   18  N   UNL     1     -44.405  59.714 -51.006  1.00  0.00    -0.249 N 
HETATM   19  C   UNL     1     -43.935  60.663 -50.109  1.00  0.00     0.339 C 
HETATM   20  N   UNL     1     -44.918  61.577 -49.789  1.00  0.00    -0.306 N 
HETATM   21  O   UNL     1     -42.765  60.678 -49.740  1.00  0.00    -0.245 OA
HETATM   22  H   UNL     1     -45.529  61.777 -50.568  1.00  0.00     0.171 HD
HETATM   23  H   UNL     1     -45.386  59.450 -50.956  1.00  0.00     0.192 HD
BRANCH  20  24
HETATM   24  C   UNL     1     -44.759  62.611 -48.835  1.00  0.00     0.058 A 
HETATM   25  C   UNL     1     -44.062  63.815 -49.052  1.00  0.00     0.060 A 
HETATM   26 CL   UNL     1     -43.097  64.117 -50.457  1.00  0.00    -0.082 Cl
HETATM   27  C   UNL     1     -44.003  64.782 -48.040  1.00  0.00     0.026 A 
HETATM   28  C   UNL     1     -44.603  64.551 -46.803  1.00  0.00     0.002 A 
HETATM   29  C   UNL     1     -45.244  63.341 -46.561  1.00  0.00     0.002 A 
HETATM   30  C   UNL     1     -45.312  62.373 -47.567  1.00  0.00     0.031 A 
ENDBRANCH  20  24
ENDBRANCH   2  18
TORSDOF 4
ENDMDL
MODEL 3
REMARK VINA RESULT:      -8.4      5.982      7.343
REMARK  4 active torsions:
REMARK  status: ('A' for Active; 'I' for Inactive)
REMARK    1  A    between atoms: C_5  and  C_6 
REMARK    2  A    between atoms: C_10  and  C_11 
REMARK       I    between atoms: C_11  and  N_12 
REMARK    3  A    between atoms: N_12  and  N_13 
REMARK       I    between atoms: N_13  and  C_14 
REMARK       I    between atoms: C_14  and  N_15 
REMARK    4  A    between atoms: N_15  and  C_16 
ROOT
HETATM    1  C   UNL     1     -42.309  58.643 -51.186  1.00  0.00     0.288 C 
HETATM    2  N   UNL     1     -43.472  59.041 -50.563  1.00  0.00    -0.261 N 
HETATM    3  O   UNL     1     -41.464  59.452 -51.566  1.00  0.00    -0.264 OA
HETATM    4  H   UNL     1     -44.222  58.407 -50.301  1.00  0.00     0.190 HD
ENDROOT
BRANCH   1   5
HETATM    5  C   UNL     1     -42.163  57.226 -51.373  1.00  0.00     0.121 A 
HETATM    6  N   UNL     1     -42.808  56.324 -50.576  1.00  0.00    -0.272 N 
HETATM    7  N   UNL     1     -42.532  55.044 -50.860  1.00  0.00    -0.174 NA
HETATM    8  H   UNL     1     -43.444  56.531 -49.811  1.00  0.00     0.189 HD
HETATM    9  C   UNL     1     -41.669  55.099 -51.887  1.00  0.00     0.089 A 
HETATM   10  C   UNL     1     -41.426  56.455 -52.249  1.00  0.00     0.071 A 
BRANCH   9  11
HETATM   11  C   UNL     1     -41.080  53.885 -52.468  1.00  0.00    -0.006 A 
HETATM   12  C   UNL     1     -40.247  53.047 -51.716  1.00  0.00     0.014 A 
HETATM   13  C   UNL     1     -39.723  51.872 -52.269  1.00  0.00     0.007 A 
HETATM   14  C   UNL     1     -40.013  51.519 -53.590  1.00  0.00    -0.062 A 
HETATM   15  C   UNL     1     -39.495  50.238 -54.172  1.00  0.00     0.048 C 
HETATM   16  C   UNL     1     -40.843  52.351 -54.347  1.00  0.00     0.007 A 
HETATM   17  C   UNL     1     -41.364  53.525 -53.793  1.00  0.00     0.014 A 
ENDBRANCH   9  11
ENDBRANCH   1   5
BRANCH   2  18
HETATM   18  N   UNL     1     -43.761  60.414 -50.457  1.00  0.00    -0.249 N 
HETATM   19  C   UNL     1     -45.049  60.733 -50.051  1.00  0.00     0.339 C 
HETATM   20  N   UNL     1     -45.269  62.094 -50.115  1.00  0.00    -0.306 N 
HETATM   21  O   UNL     1     -45.824  59.880 -49.631  1.00  0.00    -0.245 OA
HETATM   22  H   UNL     1     -44.445  62.631 -49.885  1.00  0.00     0.171 HD
HETATM   23  H   UNL     1     -43.324  60.994 -51.169  1.00  0.00     0.192 HD
BRANCH  20  24
HETATM   24  C   UNL     1     -46.515  62.710 -49.844  1.00  0.00     0.058 A 
HETATM   25  C   UNL     1     -47.040  62.946 -48.559  1.00  0.00     0.060 A 
HETATM   26 CL   UNL     1     -46.335  62.313 -47.110  1.00  0.00    -0.082 Cl
HETATM   27  C   UNL     1     -48.272  63.598 -48.415  1.00  0.00     0.026 A 
HETATM   28  C   UNL     1     -49.002  63.990 -49.536  1.00  0.00     0.002 A 
HETATM   29  C   UNL     1     -48.517  63.708 -50.810  1.00  0.00     0.002 A 
HETATM   30  C   UNL     1     -47.287  63.062 -50.961  1.00  0.00     0.031 A 
ENDBRANCH  20  24
ENDBRANCH   2  18
TORSDOF 4
ENDMDL
MODEL 4
REMARK VINA RESULT:      -8.4      5.807     10.785
REMARK  4 active torsions:
REMARK  status: ('A' for Active; 'I' for Inactive)
REMARK    1  A    between atoms: C_5  and  C_6 
REMARK    2  A    between atoms: C_10  and  C_11 
REMARK       I    between atoms: C_11  and  N_12 
REMARK    3  A    between atoms: N_12  and  N_13 
REMARK       I    between atoms: N_13  and  C_14 
REMARK       I    between atoms: C_14  and  N_15 
REMARK    4  A    between atoms: N_15  and  C_16 
ROOT
HETATM    1  C   UNL     1     -43.692  56.019 -59.171  1.00  0.00     0.288 C 
HETATM    2  N   UNL     1     -43.609  55.966 -57.798  1.00  0.00    -0.261 N 
HETATM    3  O   UNL     1     -42.716  55.814 -59.891  1.00  0.00    -0.264 OA
HETATM    4  H   UNL     1     -44.377  56.199 -57.172  1.00  0.00     0.190 HD
ENDROOT
BRANCH   1   5
HETATM    5  C   UNL     1     -44.988  56.346 -59.699  1.00  0.00     0.121 A 
HETATM    6  N   UNL     1     -45.990  55.421 -59.773  1.00  0.00    -0.272 N 
HETATM    7  N   UNL     1     -47.121  55.879 -60.327  1.00  0.00    -0.174 NA
HETATM    8  H   UNL     1     -45.951  54.454 -59.467  1.00  0.00     0.189 HD
HETATM    9  C   UNL     1     -46.858  57.160 -60.634  1.00  0.00     0.089 A 
HETATM   10  C   UNL     1     -45.532  57.495 -60.237  1.00  0.00     0.071 A 
BRANCH   9  11
HETATM   11  C   UNL     1     -47.844  58.011 -61.312  1.00  0.00    -0.006 A 
HETATM   12  C   UNL     1     -47.940  59.381 -61.033  1.00  0.00     0.014 A 
HETATM   13  C   UNL     1     -48.858  60.189 -61.715  1.00  0.00     0.007 A 
HETATM   14  C   UNL     1     -49.706  59.642 -62.681  1.00  0.00    -0.062 A 
HETATM   15  C   UNL     1     -50.656  60.511 -63.449  1.00  0.00     0.048 C 
HETATM   16  C   UNL     1     -49.617  58.276 -62.964  1.00  0.00     0.007 A 
HETATM   17  C   UNL     1     -48.700  57.469 -62.281  1.00  0.00     0.014 A 
ENDBRANCH   9  11
ENDBRANCH   1   5
BRANCH   2  18
HETATM   18  N   UNL     1     -42.354  55.785 -57.189  1.00  0.00    -0.249 N 
HETATM   19  C   UNL     1     -42.322  54.912 -56.111  1.00  0.00     0.339 C 
HETATM   20  N   UNL     1     -41.082  54.914 -55.505  1.00  0.00    -0.306 N 
HETATM   21  O   UNL     1     -43.281  54.203 -55.826  1.00  0.00    -0.245 OA
HETATM   22  H   UNL     1     -40.328  55.039 -56.165  1.00  0.00     0.171 HD
HETATM   23  H   UNL     1     -41.781  56.624 -57.147  1.00  0.00     0.192 HD
BRANCH  20  24
HETATM   24  C   UNL     1     -40.773  54.188 -54.329  1.00  0.00     0.058 A 
HETATM   25  C   UNL     1     -40.904  54.679 -53.016  1.00  0.00     0.060 A 
HETATM   26 CL   UNL     1     -41.255  56.333 -52.647  1.00  0.00    -0.082 Cl
HETATM   27  C   UNL     1     -40.600  53.852 -51.926  1.00  0.00     0.026 A 
HETATM   28  C   UNL     1     -40.137  52.553 -52.130  1.00  0.00     0.002 A 
HETATM   29  C   UNL     1     -39.949  52.081 -53.425  1.00  0.00     0.002 A 
HETATM   30  C   UNL     1     -40.256  52.898 -54.517  1.00  0.00     0.031 A 
ENDBRANCH  20  24
ENDBRANCH   2  18
TORSDOF 4
ENDMDL
MODEL 5
REMARK VINA RESULT:      -8.3      5.631     10.447
REMARK  4 active torsions:
REMARK  status: ('A' for Active; 'I' for Inactive)
REMARK    1  A    between atoms: C_5  and  C_6 
REMARK    2  A    between atoms: C_10  and  C_11 
REMARK       I    between atoms: C_11  and  N_12 
REMARK    3  A    between atoms: N_12  and  N_13 
REMARK       I    between atoms: N_13  and  C_14 
REMARK       I    between atoms: C_14  and  N_15 
REMARK    4  A    between atoms: N_15  and  C_16 
ROOT
HETATM    1  C   UNL     1     -42.920  56.578 -57.828  1.00  0.00     0.288 C 
HETATM    2  N   UNL     1     -42.624  55.431 -57.126  1.00  0.00    -0.261 N 
HETATM    3  O   UNL     1     -42.235  57.596 -57.731  1.00  0.00    -0.264 OA
HETATM    4  H   UNL     1     -43.207  54.597 -57.127  1.00  0.00     0.190 HD
ENDROOT
BRANCH   1   5
HETATM    5  C   UNL     1     -44.087  56.507 -58.662  1.00  0.00     0.121 A 
HETATM    6  N   UNL     1     -44.537  55.324 -59.173  1.00  0.00    -0.272 N 
HETATM    7  N   UNL     1     -45.613  55.439 -59.963  1.00  0.00    -0.174 NA
HETATM    8  H   UNL     1     -44.136  54.403 -59.023  1.00  0.00     0.189 HD
HETATM    9  C   UNL     1     -45.889  56.754 -59.976  1.00  0.00     0.089 A 
HETATM   10  C   UNL     1     -44.962  57.456 -59.155  1.00  0.00     0.071 A 
BRANCH   9  11
HETATM   11  C   UNL     1     -46.988  57.305 -60.779  1.00  0.00    -0.006 A 
HETATM   12  C   UNL     1     -47.770  56.486 -61.605  1.00  0.00     0.014 A 
HETATM   13  C   UNL     1     -48.839  57.017 -62.336  1.00  0.00     0.007 A 
HETATM   14  C   UNL     1     -49.142  58.379 -62.265  1.00  0.00    -0.062 A 
HETATM   15  C   UNL     1     -50.316  58.944 -63.007  1.00  0.00     0.048 C 
HETATM   16  C   UNL     1     -48.366  59.203 -61.444  1.00  0.00     0.007 A 
HETATM   17  C   UNL     1     -47.296  58.671 -60.715  1.00  0.00     0.014 A 
ENDBRANCH   9  11
ENDBRANCH   1   5
BRANCH   2  18
HETATM   18  N   UNL     1     -41.579  55.449 -56.184  1.00  0.00    -0.249 N 
HETATM   19  C   UNL     1     -41.729  54.605 -55.094  1.00  0.00     0.339 C 
HETATM   20  N   UNL     1     -40.724  54.802 -54.168  1.00  0.00    -0.306 N 
HETATM   21  O   UNL     1     -42.618  53.762 -55.048  1.00  0.00    -0.245 OA
HETATM   22  H   UNL     1     -39.840  55.031 -54.600  1.00  0.00     0.171 HD
HETATM   23  H   UNL     1     -41.166  56.366 -56.030  1.00  0.00     0.192 HD
BRANCH  20  24
HETATM   24  C   UNL     1     -40.660  54.146 -52.915  1.00  0.00     0.058 A 
HETATM   25  C   UNL     1     -40.185  52.837 -52.709  1.00  0.00     0.060 A 
HETATM   26 CL   UNL     1     -39.813  51.744 -53.999  1.00  0.00    -0.082 Cl
HETATM   27  C   UNL     1     -40.135  52.305 -51.414  1.00  0.00     0.026 A 
HETATM   28  C   UNL     1     -40.583  53.051 -50.324  1.00  0.00     0.002 A 
HETATM   29  C   UNL     1     -41.108  54.324 -50.527  1.00  0.00     0.002 A 
HETATM   30  C   UNL     1     -41.156  54.863 -51.816  1.00  0.00     0.031 A 
ENDBRANCH  20  24
ENDBRANCH   2  18
TORSDOF 4
ENDMDL
MODEL 6
REMARK VINA RESULT:      -8.2      3.152     10.052
REMARK  4 active torsions:
REMARK  status: ('A' for Active; 'I' for Inactive)
REMARK    1  A    between atoms: C_5  and  C_6 
REMARK    2  A    between atoms: C_10  and  C_11 
REMARK       I    between atoms: C_11  and  N_12 
REMARK    3  A    between atoms: N_12  and  N_13 
REMARK       I    between atoms: N_13  and  C_14 
REMARK       I    between atoms: C_14  and  N_15 
REMARK    4  A    between atoms: N_15  and  C_16 
ROOT
HETATM    1  C   UNL     1     -43.287  56.544 -57.597  1.00  0.00     0.288 C 
HETATM    2  N   UNL     1     -43.499  56.623 -56.238  1.00  0.00    -0.261 N 
HETATM    3  O   UNL     1     -43.252  55.467 -58.190  1.00  0.00    -0.264 OA
HETATM    4  H   UNL     1     -43.463  57.490 -55.706  1.00  0.00     0.190 HD
ENDROOT
BRANCH   1   5
HETATM    5  C   UNL     1     -43.094  57.801 -58.265  1.00  0.00     0.121 A 
HETATM    6  N   UNL     1     -44.104  58.418 -58.947  1.00  0.00    -0.272 N 
HETATM    7  N   UNL     1     -43.745  59.562 -59.545  1.00  0.00    -0.174 NA
HETATM    8  H   UNL     1     -45.060  58.092 -59.045  1.00  0.00     0.189 HD
HETATM    9  C   UNL     1     -42.444  59.711 -59.248  1.00  0.00     0.089 A 
HETATM   10  C   UNL     1     -42.003  58.632 -58.429  1.00  0.00     0.071 A 
BRANCH   9  11
HETATM   11  C   UNL     1     -41.656  60.838 -59.766  1.00  0.00    -0.006 A 
HETATM   12  C   UNL     1     -40.878  61.635 -58.915  1.00  0.00     0.014 A 
HETATM   13  C   UNL     1     -40.102  62.682 -59.425  1.00  0.00     0.007 A 
HETATM   14  C   UNL     1     -40.095  62.959 -60.795  1.00  0.00    -0.062 A 
HETATM   15  C   UNL     1     -39.227  64.047 -61.354  1.00  0.00     0.048 C 
HETATM   16  C   UNL     1     -40.869  62.168 -61.650  1.00  0.00     0.007 A 
HETATM   17  C   UNL     1     -41.646  61.123 -61.138  1.00  0.00     0.014 A 
ENDBRANCH   9  11
ENDBRANCH   1   5
BRANCH   2  18
HETATM   18  N   UNL     1     -43.566  55.440 -55.482  1.00  0.00    -0.249 N 
HETATM   19  C   UNL     1     -42.402  55.075 -54.820  1.00  0.00     0.339 C 
HETATM   20  N   UNL     1     -42.532  53.836 -54.227  1.00  0.00    -0.306 N 
HETATM   21  O   UNL     1     -41.438  55.830 -54.746  1.00  0.00    -0.245 OA
HETATM   22  H   UNL     1     -43.466  53.669 -53.879  1.00  0.00     0.171 HD
HETATM   23  H   UNL     1     -44.134  54.705 -55.896  1.00  0.00     0.192 HD
BRANCH  20  24
HETATM   24  C   UNL     1     -41.483  53.164 -53.554  1.00  0.00     0.058 A 
HETATM   25  C   UNL     1     -41.063  53.430 -52.237  1.00  0.00     0.060 A 
HETATM   26 CL   UNL     1     -41.625  54.782 -51.313  1.00  0.00    -0.082 Cl
HETATM   27  C   UNL     1     -40.034  52.672 -51.663  1.00  0.00     0.026 A 
HETATM   28  C   UNL     1     -39.396  51.673 -52.397  1.00  0.00     0.002 A 
HETATM   29  C   UNL     1     -39.766  51.443 -53.718  1.00  0.00     0.002 A 
HETATM   30  C   UNL     1     -40.796  52.191 -54.296  1.00  0.00     0.031 A 
ENDBRANCH  20  24
ENDBRANCH   2  18
TORSDOF 4
ENDMDL
MODEL 7
REMARK VINA RESULT:      -8.0      1.770      1.855
REMARK  4 active torsions:
REMARK  status: ('A' for Active; 'I' for Inactive)
REMARK    1  A    between atoms: C_5  and  C_6 
REMARK    2  A    between atoms: C_10  and  C_11 
REMARK       I    between atoms: C_11  and  N_12 
REMARK    3  A    between atoms: N_12  and  N_13 
REMARK       I    between atoms: N_13  and  C_14 
REMARK       I    between atoms: C_14  and  N_15 
REMARK    4  A    between atoms: N_15  and  C_16 
ROOT
HETATM    1  C   UNL     1     -42.493  57.616 -55.756  1.00  0.00     0.288 C 
HETATM    2  N   UNL     1     -43.093  57.762 -56.986  1.00  0.00    -0.261 N 
HETATM    3  O   UNL     1     -42.174  58.584 -55.066  1.00  0.00    -0.264 OA
HETATM    4  H   UNL     1     -43.304  56.988 -57.612  1.00  0.00     0.190 HD
ENDROOT
BRANCH   1   5
HETATM    5  C   UNL     1     -42.251  56.261 -55.344  1.00  0.00     0.121 A 
HETATM    6  N   UNL     1     -43.074  55.237 -55.718  1.00  0.00    -0.272 N 
HETATM    7  N   UNL     1     -42.729  54.043 -55.216  1.00  0.00    -0.174 NA
HETATM    8  H   UNL     1     -43.897  55.300 -56.309  1.00  0.00     0.189 HD
HETATM    9  C   UNL     1     -41.632  54.285 -54.479  1.00  0.00     0.089 A 
HETATM   10  C   UNL     1     -41.291  55.666 -54.550  1.00  0.00     0.071 A 
BRANCH   9  11
HETATM   11  C   UNL     1     -40.966  53.224 -53.713  1.00  0.00    -0.006 A 
HETATM   12  C   UNL     1     -40.761  53.341 -52.332  1.00  0.00     0.014 A 
HETATM   13  C   UNL     1     -40.159  52.306 -51.606  1.00  0.00     0.007 A 
HETATM   14  C   UNL     1     -39.740  51.138 -52.249  1.00  0.00    -0.062 A 
HETATM   15  C   UNL     1     -39.140  50.006 -51.469  1.00  0.00     0.048 C 
HETATM   16  C   UNL     1     -39.940  51.014 -53.627  1.00  0.00     0.007 A 
HETATM   17  C   UNL     1     -40.541  52.050 -54.351  1.00  0.00     0.014 A 
ENDBRANCH   9  11
ENDBRANCH   1   5
BRANCH   2  18
HETATM   18  N   UNL     1     -43.247  59.051 -57.529  1.00  0.00    -0.249 N 
HETATM   19  C   UNL     1     -42.240  59.475 -58.384  1.00  0.00     0.339 C 
HETATM   20  N   UNL     1     -42.415  60.794 -58.747  1.00  0.00    -0.306 N 
HETATM   21  O   UNL     1     -41.372  58.708 -58.789  1.00  0.00    -0.245 OA
HETATM   22  H   UNL     1     -43.390  61.044 -58.839  1.00  0.00     0.171 HD
HETATM   23  H   UNL     1     -43.655  59.731 -56.892  1.00  0.00     0.192 HD
BRANCH  20  24
HETATM   24  C   UNL     1     -41.502  61.527 -59.542  1.00  0.00     0.058 A 
HETATM   25  C   UNL     1     -41.518  61.586 -60.949  1.00  0.00     0.060 A 
HETATM   26 CL   UNL     1     -42.530  60.585 -61.933  1.00  0.00    -0.082 Cl
HETATM   27  C   UNL     1     -40.581  62.377 -61.627  1.00  0.00     0.026 A 
HETATM   28  C   UNL     1     -39.608  63.084 -60.922  1.00  0.00     0.002 A 
HETATM   29  C   UNL     1     -39.549  62.985 -59.535  1.00  0.00     0.002 A 
HETATM   30  C   UNL     1     -40.484  62.202 -58.852  1.00  0.00     0.031 A 
ENDBRANCH  20  24
ENDBRANCH   2  18
TORSDOF 4
ENDMDL
MODEL 8
REMARK VINA RESULT:      -8.0      4.839      5.552
REMARK  4 active torsions:
REMARK  status: ('A' for Active; 'I' for Inactive)
REMARK    1  A    between atoms: C_5  and  C_6 
REMARK    2  A    between atoms: C_10  and  C_11 
REMARK       I    between atoms: C_11  and  N_12 
REMARK    3  A    between atoms: N_12  and  N_13 
REMARK       I    between atoms: N_13  and  C_14 
REMARK       I    between atoms: C_14  and  N_15 
REMARK    4  A    between atoms: N_15  and  C_16 
ROOT
HETATM    1  C   UNL     1     -43.339  56.737 -57.370  1.00  0.00     0.288 C 
HETATM    2  N   UNL     1     -44.478  56.418 -58.075  1.00  0.00    -0.261 N 
HETATM    3  O   UNL     1     -42.611  57.674 -57.696  1.00  0.00    -0.264 OA
HETATM    4  H   UNL     1     -45.062  55.609 -57.877  1.00  0.00     0.190 HD
ENDROOT
BRANCH   1   5
HETATM    5  C   UNL     1     -43.054  55.891 -56.244  1.00  0.00     0.121 A 
HETATM    6  N   UNL     1     -43.874  55.843 -55.153  1.00  0.00    -0.272 N 
HETATM    7  N   UNL     1     -43.442  55.034 -54.176  1.00  0.00    -0.174 NA
HETATM    8  H   UNL     1     -44.741  56.354 -55.019  1.00  0.00     0.189 HD
HETATM    9  C   UNL     1     -42.288  54.525 -54.637  1.00  0.00     0.089 A 
HETATM   10  C   UNL     1     -42.020  55.027 -55.943  1.00  0.00     0.071 A 
BRANCH   9  11
HETATM   11  C   UNL     1     -41.466  53.615 -53.829  1.00  0.00    -0.006 A 
HETATM   12  C   UNL     1     -41.327  53.793 -52.446  1.00  0.00     0.014 A 
HETATM   13  C   UNL     1     -40.573  52.896 -51.680  1.00  0.00     0.007 A 
HETATM   14  C   UNL     1     -39.933  51.809 -52.283  1.00  0.00    -0.062 A 
HETATM   15  C   UNL     1     -39.165  50.818 -51.461  1.00  0.00     0.048 C 
HETATM   16  C   UNL     1     -40.068  51.625 -53.662  1.00  0.00     0.007 A 
HETATM   17  C   UNL     1     -40.821  52.523 -54.427  1.00  0.00     0.014 A 
ENDBRANCH   9  11
ENDBRANCH   1   5
BRANCH   2  18
HETATM   18  N   UNL     1     -44.765  57.106 -59.268  1.00  0.00    -0.249 N 
HETATM   19  C   UNL     1     -46.100  57.413 -59.486  1.00  0.00     0.339 C 
HETATM   20  N   UNL     1     -46.288  57.959 -60.740  1.00  0.00    -0.306 N 
HETATM   21  O   UNL     1     -46.948  57.264 -58.613  1.00  0.00    -0.245 OA
HETATM   22  H   UNL     1     -45.511  58.535 -61.032  1.00  0.00     0.171 HD
HETATM   23  H   UNL     1     -44.200  56.823 -60.065  1.00  0.00     0.192 HD
BRANCH  20  24
HETATM   24  C   UNL     1     -47.555  58.293 -61.278  1.00  0.00     0.058 A 
HETATM   25  C   UNL     1     -48.213  59.524 -61.096  1.00  0.00     0.060 A 
HETATM   26 CL   UNL     1     -47.668  60.743 -59.994  1.00  0.00    -0.082 Cl
HETATM   27  C   UNL     1     -49.452  59.753 -61.710  1.00  0.00     0.026 A 
HETATM   28  C   UNL     1     -50.057  58.758 -62.477  1.00  0.00     0.002 A 
HETATM   29  C   UNL     1     -49.439  57.518 -62.614  1.00  0.00     0.002 A 
HETATM   30  C   UNL     1     -48.201  57.285 -62.009  1.00  0.00     0.031 A 
ENDBRANCH  20  24
ENDBRANCH   2  18
TORSDOF 4
ENDMDL
MODEL 9
REMARK VINA RESULT:      -7.9      3.382      9.933
REMARK  4 active torsions:
REMARK  status: ('A' for Active; 'I' for Inactive)
REMARK    1  A    between atoms: C_5  and  C_6 
REMARK    2  A    between atoms: C_10  and  C_11 
REMARK       I    between atoms: C_11  and  N_12 
REMARK    3  A    between atoms: N_12  and  N_13 
REMARK       I    between atoms: N_13  and  C_14 
REMARK       I    between atoms: C_14  and  N_15 
REMARK    4  A    between atoms: N_15  and  C_16 
ROOT
HETATM    1  C   UNL     1     -43.339  56.169 -56.672  1.00  0.00     0.288 C 
HETATM    2  N   UNL     1     -43.974  56.459 -55.485  1.00  0.00    -0.261 N 
HETATM    3  O   UNL     1     -42.902  55.046 -56.920  1.00  0.00    -0.264 OA
HETATM    4  H   UNL     1     -44.284  57.391 -55.218  1.00  0.00     0.190 HD
ENDROOT
BRANCH   1   5
HETATM    5  C   UNL     1     -43.210  57.269 -57.587  1.00  0.00     0.121 A 
HETATM    6  N   UNL     1     -44.071  57.440 -58.634  1.00  0.00    -0.272 N 
HETATM    7  N   UNL     1     -43.786  58.493 -59.413  1.00  0.00    -0.174 NA
HETATM    8  H   UNL     1     -44.867  56.857 -58.870  1.00  0.00     0.189 HD
HETATM    9  C   UNL     1     -42.692  59.043 -58.861  1.00  0.00     0.089 A 
HETATM   10  C   UNL     1     -42.311  58.311 -57.699  1.00  0.00     0.071 A 
BRANCH   9  11
HETATM   11  C   UNL     1     -42.027  60.209 -59.456  1.00  0.00    -0.006 A 
HETATM   12  C   UNL     1     -41.320  61.127 -58.667  1.00  0.00     0.014 A 
HETATM   13  C   UNL     1     -40.659  62.214 -59.250  1.00  0.00     0.007 A 
HETATM   14  C   UNL     1     -40.700  62.412 -60.633  1.00  0.00    -0.062 A 
HETATM   15  C   UNL     1     -39.953  63.546 -61.269  1.00  0.00     0.048 C 
HETATM   16  C   UNL     1     -41.404  61.501 -61.427  1.00  0.00     0.007 A 
HETATM   17  C   UNL     1     -42.066  60.416 -60.842  1.00  0.00     0.014 A 
ENDBRANCH   9  11
ENDBRANCH   1   5
BRANCH   2  18
HETATM   18  N   UNL     1     -44.028  55.481 -54.475  1.00  0.00    -0.249 N 
HETATM   19  C   UNL     1     -43.000  55.510 -53.545  1.00  0.00     0.339 C 
HETATM   20  N   UNL     1     -43.070  54.431 -52.688  1.00  0.00    -0.306 N 
HETATM   21  O   UNL     1     -42.201  56.441 -53.494  1.00  0.00    -0.245 OA
HETATM   22  H   UNL     1     -44.022  54.161 -52.484  1.00  0.00     0.171 HD
HETATM   23  H   UNL     1     -44.372  54.575 -54.784  1.00  0.00     0.192 HD
BRANCH  20  24
HETATM   24  C   UNL     1     -42.108  54.146 -51.689  1.00  0.00     0.058 A 
HETATM   25  C   UNL     1     -40.932  53.398 -51.886  1.00  0.00     0.060 A 
HETATM   26 CL   UNL     1     -40.594  52.519 -53.338  1.00  0.00    -0.082 Cl
HETATM   27  C   UNL     1     -40.035  53.212 -50.826  1.00  0.00     0.026 A 
HETATM   28  C   UNL     1     -40.311  53.736 -49.564  1.00  0.00     0.002 A 
HETATM   29  C   UNL     1     -41.499  54.427 -49.347  1.00  0.00     0.002 A 
HETATM   30  C   UNL     1     -42.396  54.621 -50.401  1.00  0.00     0.031 A 
ENDBRANCH  20  24
ENDBRANCH   2  18
TORSDOF 4
ENDMDL
MODEL 10
REMARK VINA RESULT:      -7.9      4.518     10.160
REMARK  4 active torsions:
REMARK  status: ('A' for Active; 'I' for Inactive)
REMARK    1  A    between atoms: C_5  and  C_6 
REMARK    2  A    between atoms: C_10  and  C_11 
REMARK       I    between atoms: C_11  and  N_12 
REMARK    3  A    between atoms: N_12  and  N_13 
REMARK       I    between atoms: N_13  and  C_14 
REMARK       I    between atoms: C_14  and  N_15 
REMARK    4  A    between atoms: N_15  and  C_16 
ROOT
HETATM    1  C   UNL     1     -41.906  56.361 -55.284  1.00  0.00     0.288 C 
HETATM    2  N   UNL     1     -41.520  55.219 -55.949  1.00  0.00    -0.261 N 
HETATM    3  O   UNL     1     -41.282  56.794 -54.316  1.00  0.00    -0.264 OA
HETATM    4  H   UNL     1     -42.051  54.794 -56.706  1.00  0.00     0.190 HD
ENDROOT
BRANCH   1   5
HETATM    5  C   UNL     1     -43.092  56.997 -55.788  1.00  0.00     0.121 A 
HETATM    6  N   UNL     1     -44.067  57.466 -54.955  1.00  0.00    -0.272 N 
HETATM    7  N   UNL     1     -45.123  57.996 -55.589  1.00  0.00    -0.174 NA
HETATM    8  H   UNL     1     -44.068  57.440 -53.940  1.00  0.00     0.189 HD
HETATM    9  C   UNL     1     -44.837  57.872 -56.895  1.00  0.00     0.089 A 
HETATM   10  C   UNL     1     -43.559  57.265 -57.060  1.00  0.00     0.071 A 
BRANCH   9  11
HETATM   11  C   UNL     1     -45.780  58.298 -57.937  1.00  0.00    -0.006 A 
HETATM   12  C   UNL     1     -46.819  59.196 -57.657  1.00  0.00     0.014 A 
HETATM   13  C   UNL     1     -47.688  59.623 -58.668  1.00  0.00     0.007 A 
HETATM   14  C   UNL     1     -47.543  59.154 -59.976  1.00  0.00    -0.062 A 
HETATM   15  C   UNL     1     -48.440  59.646 -61.072  1.00  0.00     0.048 C 
HETATM   16  C   UNL     1     -46.509  58.257 -60.263  1.00  0.00     0.007 A 
HETATM   17  C   UNL     1     -45.642  57.829 -59.251  1.00  0.00     0.014 A 
ENDBRANCH   9  11
ENDBRANCH   1   5
BRANCH   2  18
HETATM   18  N   UNL     1     -40.450  54.457 -55.446  1.00  0.00    -0.249 N 
HETATM   19  C   UNL     1     -40.793  53.414 -54.598  1.00  0.00     0.339 C 
HETATM   20  N   UNL     1     -39.671  52.824 -54.053  1.00  0.00    -0.306 N 
HETATM   21  O   UNL     1     -41.958  53.061 -54.446  1.00  0.00    -0.245 OA
HETATM   22  H   UNL     1     -38.891  52.808 -54.696  1.00  0.00     0.171 HD
HETATM   23  H   UNL     1     -39.612  54.993 -55.234  1.00  0.00     0.192 HD
BRANCH  20  24
HETATM   24  C   UNL     1     -39.708  51.789 -53.087  1.00  0.00     0.058 A 
HETATM   25  C   UNL     1     -39.816  51.983 -51.697  1.00  0.00     0.060 A 
HETATM   26 CL   UNL     1     -39.695  53.535 -50.938  1.00  0.00    -0.082 Cl
HETATM   27  C   UNL     1     -39.879  50.877 -50.838  1.00  0.00     0.026 A 
HETATM   28  C   UNL     1     -39.804  49.581 -51.347  1.00  0.00     0.002 A 
HETATM   29  C   UNL     1     -39.639  49.383 -52.714  1.00  0.00     0.002 A 
HETATM   30  C   UNL     1     -39.580  50.481 -53.576  1.00  0.00     0.031 A 
ENDBRANCH  20  24
ENDBRANCH   2  18
TORSDOF 4
ENDMDL
