MODEL 1
REMARK VINA RESULT:      -8.6      0.000      0.000
REMARK  5 active torsions:
REMARK  status: ('A' for Active; 'I' for Inactive)
REMARK    1  A    between atoms: C_4  and  C_5 
REMARK    2  A    between atoms: C_5  and  N_6 
REMARK    3  A    between atoms: C_15  and  C_16 
REMARK    4  A    between atoms: C_16  and  N_17 
REMARK    5  A    between atoms: C_20  and  C_21 
REMARK       I    between atoms: C_21  and  N_22 
ROOT
HETATM    1  N   UNL     1     -42.719  56.348 -51.861  1.00  0.00    -0.061 N 
HETATM    2  H   UNL     1     -42.004  55.998 -51.214  1.00  0.00     0.280 HD
HETATM    3  C   UNL     1     -41.988  57.345 -52.735  1.00  0.00     0.276 C 
HETATM    4  C   UNL     1     -42.775  57.886 -53.893  1.00  0.00     0.002 A 
HETATM    5  C   UNL     1     -43.925  58.640 -53.663  1.00  0.00     0.076 A 
HETATM    6  O   UNL     1     -44.343  58.916 -52.392  1.00  0.00    -0.349 OA
HETATM    7  C   UNL     1     -44.856  57.749 -51.737  1.00  0.00     0.203 C 
HETATM    8  C   UNL     1     -43.758  57.007 -50.964  1.00  0.00     0.262 C 
HETATM    9  C   UNL     1     -42.357  57.679 -55.222  1.00  0.00     0.020 A 
HETATM   10  C   UNL     1     -43.077  58.218 -56.307  1.00  0.00    -0.032 A 
HETATM   11  C   UNL     1     -44.230  58.972 -56.035  1.00  0.00     0.011 A 
HETATM   12  C   UNL     1     -44.638  59.198 -54.720  1.00  0.00     0.038 A 
ENDROOT
BRANCH  10  13
HETATM   13  C   UNL     1     -42.643  57.935 -57.728  1.00  0.00     0.273 C 
BRANCH  13  14
HETATM   14  N   UNL     1     -43.594  57.100 -58.551  1.00  0.00    -0.066 N 
HETATM   15  H   UNL     1     -44.452  56.981 -57.980  1.00  0.00     0.280 HD
HETATM   16  C   UNL     1     -44.066  57.777 -59.824  1.00  0.00     0.249 C 
HETATM   17  C   UNL     1     -45.151  56.935 -60.504  1.00  0.00     0.103 C 
HETATM   18  C   UNL     1     -44.652  55.511 -60.765  1.00  0.00     0.017 C 
HETATM   19  C   UNL     1     -44.087  54.858 -59.503  1.00  0.00     0.029 C 
HETATM   20  C   UNL     1     -43.038  55.722 -58.816  1.00  0.00     0.235 C 
BRANCH  17  21
HETATM   21  C   UNL     1     -46.389  56.918 -59.626  1.00  0.00     0.221 C 
HETATM   22  N   UNL     1     -47.382  56.072 -59.999  1.00  0.00    -0.370 N 
HETATM   23  H   UNL     1     -47.372  55.510 -60.842  1.00  0.00     0.159 HD
HETATM   24  H   UNL     1     -48.220  56.017 -59.427  1.00  0.00     0.159 HD
HETATM   25  O   UNL     1     -46.446  57.578 -58.591  1.00  0.00    -0.273 OA
ENDBRANCH  17  21
ENDBRANCH  13  14
ENDBRANCH  10  13
BRANCH   1  26
HETATM   26  C   UNL     1     -43.243  55.112 -52.571  1.00  0.00     0.274 C 
BRANCH  26  27
HETATM   27  C   UNL     1     -42.190  54.125 -53.025  1.00  0.00    -0.026 A 
HETATM   28  C   UNL     1     -41.318  53.550 -52.076  1.00  0.00     0.016 A 
HETATM   29  C   UNL     1     -40.301  52.668 -52.459  1.00  0.00    -0.061 A 
HETATM   30  C   UNL     1     -39.395  52.045 -51.434  1.00  0.00     0.048 C 
HETATM   31  C   UNL     1     -40.184  52.310 -53.801  1.00  0.00     0.007 A 
HETATM   32  C   UNL     1     -41.069  52.826 -54.747  1.00  0.00     0.008 A 
HETATM   33  C   UNL     1     -42.085  53.720 -54.375  1.00  0.00    -0.054 A 
HETATM   34  C   UNL     1     -43.042  54.188 -55.441  1.00  0.00     0.049 C 
ENDBRANCH  26  27
ENDBRANCH   1  26
TORSDOF 5
ENDMDL
MODEL 2
REMARK VINA RESULT:      -8.1      1.729      2.423
REMARK  5 active torsions:
REMARK  status: ('A' for Active; 'I' for Inactive)
REMARK    1  A    between atoms: C_4  and  C_5 
REMARK    2  A    between atoms: C_5  and  N_6 
REMARK    3  A    between atoms: C_15  and  C_16 
REMARK    4  A    between atoms: C_16  and  N_17 
REMARK    5  A    between atoms: C_20  and  C_21 
REMARK       I    between atoms: C_21  and  N_22 
ROOT
HETATM    1  N   UNL     1     -41.096  56.602 -52.459  1.00  0.00    -0.061 N 
HETATM    2  H   UNL     1     -40.127  56.269 -52.510  1.00  0.00     0.280 HD
HETATM    3  C   UNL     1     -41.200  57.641 -53.556  1.00  0.00     0.276 C 
HETATM    4  C   UNL     1     -42.581  58.170 -53.813  1.00  0.00     0.002 A 
HETATM    5  C   UNL     1     -43.253  58.877 -52.816  1.00  0.00     0.076 A 
HETATM    6  O   UNL     1     -42.667  59.115 -51.605  1.00  0.00    -0.349 OA
HETATM    7  C   UNL     1     -42.557  57.919 -50.823  1.00  0.00     0.203 C 
HETATM    8  C   UNL     1     -41.221  57.206 -51.067  1.00  0.00     0.262 C 
HETATM    9  C   UNL     1     -43.209  58.002 -55.062  1.00  0.00     0.020 A 
HETATM   10  C   UNL     1     -44.490  58.531 -55.314  1.00  0.00    -0.032 A 
HETATM   11  C   UNL     1     -45.135  59.236 -54.285  1.00  0.00     0.011 A 
HETATM   12  C   UNL     1     -44.511  59.425 -53.051  1.00  0.00     0.038 A 
ENDROOT
BRANCH  10  13
HETATM   13  C   UNL     1     -45.170  58.289 -56.643  1.00  0.00     0.273 C 
BRANCH  13  14
HETATM   14  N   UNL     1     -44.263  58.259 -57.849  1.00  0.00    -0.066 N 
HETATM   15  H   UNL     1     -43.408  57.742 -57.563  1.00  0.00     0.280 HD
HETATM   16  C   UNL     1     -44.818  57.473 -59.021  1.00  0.00     0.249 C 
HETATM   17  C   UNL     1     -43.767  57.353 -60.129  1.00  0.00     0.103 C 
HETATM   18  C   UNL     1     -43.264  58.735 -60.555  1.00  0.00     0.017 C 
HETATM   19  C   UNL     1     -42.790  59.568 -59.363  1.00  0.00     0.029 C 
HETATM   20  C   UNL     1     -43.829  59.647 -58.253  1.00  0.00     0.235 C 
BRANCH  17  21
HETATM   21  C   UNL     1     -42.618  56.493 -59.633  1.00  0.00     0.221 C 
HETATM   22  N   UNL     1     -41.433  56.640 -60.276  1.00  0.00    -0.370 N 
HETATM   23  H   UNL     1     -41.288  57.229 -61.087  1.00  0.00     0.159 HD
HETATM   24  H   UNL     1     -40.635  56.096 -59.962  1.00  0.00     0.159 HD
HETATM   25  O   UNL     1     -42.744  55.767 -58.649  1.00  0.00    -0.273 OA
ENDBRANCH  17  21
ENDBRANCH  13  14
ENDBRANCH  10  13
BRANCH   1  26
HETATM   26  C   UNL     1     -41.947  55.359 -52.648  1.00  0.00     0.274 C 
BRANCH  26  27
HETATM   27  C   UNL     1     -41.190  54.097 -52.997  1.00  0.00    -0.026 A 
HETATM   28  C   UNL     1     -40.782  53.221 -51.969  1.00  0.00     0.016 A 
HETATM   29  C   UNL     1     -40.040  52.066 -52.244  1.00  0.00    -0.061 A 
HETATM   30  C   UNL     1     -39.635  51.130 -51.141  1.00  0.00     0.048 C 
HETATM   31  C   UNL     1     -39.746  51.750 -53.570  1.00  0.00     0.007 A 
HETATM   32  C   UNL     1     -40.185  52.574 -54.605  1.00  0.00     0.008 A 
HETATM   33  C   UNL     1     -40.919  53.741 -54.338  1.00  0.00    -0.054 A 
HETATM   34  C   UNL     1     -41.413  54.550 -55.510  1.00  0.00     0.049 C 
ENDBRANCH  26  27
ENDBRANCH   1  26
TORSDOF 5
ENDMDL
MODEL 3
REMARK VINA RESULT:      -8.0      3.095      6.697
REMARK  5 active torsions:
REMARK  status: ('A' for Active; 'I' for Inactive)
REMARK    1  A    between atoms: C_4  and  C_5 
REMARK    2  A    between atoms: C_5  and  N_6 
REMARK    3  A    between atoms: C_15  and  C_16 
REMARK    4  A    between atoms: C_16  and  N_17 
REMARK    5  A    between atoms: C_20  and  C_21 
REMARK       I    between atoms: C_21  and  N_22 
ROOT
HETATM    1  N   UNL     1     -42.659  54.576 -55.201  1.00  0.00    -0.061 N 
HETATM    2  H   UNL     1     -42.745  53.555 -55.261  1.00  0.00     0.280 HD
HETATM    3  C   UNL     1     -43.872  55.014 -54.409  1.00  0.00     0.276 C 
HETATM    4  C   UNL     1     -43.902  56.466 -54.026  1.00  0.00     0.002 A 
HETATM    5  C   UNL     1     -43.955  57.447 -55.017  1.00  0.00     0.076 A 
HETATM    6  O   UNL     1     -44.000  57.109 -56.340  1.00  0.00    -0.349 OA
HETATM    7  C   UNL     1     -42.751  56.575 -56.795  1.00  0.00     0.203 C 
HETATM    8  C   UNL     1     -42.702  55.049 -56.648  1.00  0.00     0.262 C 
HETATM    9  C   UNL     1     -43.913  56.867 -52.677  1.00  0.00     0.020 A 
HETATM   10  C   UNL     1     -43.978  58.229 -52.319  1.00  0.00    -0.032 A 
HETATM   11  C   UNL     1     -44.030  59.187 -53.344  1.00  0.00     0.011 A 
HETATM   12  C   UNL     1     -44.039  58.796 -54.684  1.00  0.00     0.038 A 
ENDROOT
BRANCH  10  13
HETATM   13  C   UNL     1     -43.931  58.640 -50.864  1.00  0.00     0.273 C 
BRANCH  13  14
HETATM   14  N   UNL     1     -44.281  60.080 -50.577  1.00  0.00    -0.066 N 
HETATM   15  H   UNL     1     -44.647  60.478 -51.464  1.00  0.00     0.280 HD
HETATM   16  C   UNL     1     -45.411  60.254 -49.580  1.00  0.00     0.249 C 
HETATM   17  C   UNL     1     -45.811  61.730 -49.479  1.00  0.00     0.103 C 
HETATM   18  C   UNL     1     -44.600  62.600 -49.129  1.00  0.00     0.017 C 
HETATM   19  C   UNL     1     -43.424  62.359 -50.076  1.00  0.00     0.029 C 
HETATM   20  C   UNL     1     -43.062  60.884 -50.197  1.00  0.00     0.235 C 
BRANCH  17  21
HETATM   21  C   UNL     1     -46.424  62.169 -50.797  1.00  0.00     0.221 C 
HETATM   22  N   UNL     1     -46.820  63.464 -50.876  1.00  0.00    -0.370 N 
HETATM   23  H   UNL     1     -46.789  64.124 -50.107  1.00  0.00     0.159 HD
HETATM   24  H   UNL     1     -47.219  63.803 -51.747  1.00  0.00     0.159 HD
HETATM   25  O   UNL     1     -46.480  61.408 -51.760  1.00  0.00    -0.273 OA
ENDBRANCH  17  21
ENDBRANCH  13  14
ENDBRANCH  10  13
BRANCH   1  26
HETATM   26  C   UNL     1     -41.316  54.818 -54.535  1.00  0.00     0.274 C 
BRANCH  26  27
HETATM   27  C   UNL     1     -40.773  53.661 -53.725  1.00  0.00    -0.026 A 
HETATM   28  C   UNL     1     -40.352  52.486 -54.382  1.00  0.00     0.016 A 
HETATM   29  C   UNL     1     -39.886  51.376 -53.667  1.00  0.00    -0.061 A 
HETATM   30  C   UNL     1     -39.419  50.140 -54.382  1.00  0.00     0.048 C 
HETATM   31  C   UNL     1     -39.785  51.458 -52.279  1.00  0.00     0.007 A 
HETATM   32  C   UNL     1     -40.145  52.630 -51.614  1.00  0.00     0.008 A 
HETATM   33  C   UNL     1     -40.625  53.743 -52.321  1.00  0.00    -0.054 A 
HETATM   34  C   UNL     1     -40.936  54.996 -51.542  1.00  0.00     0.049 C 
ENDBRANCH  26  27
ENDBRANCH   1  26
TORSDOF 5
ENDMDL
MODEL 4
REMARK VINA RESULT:      -7.8      1.968      3.064
REMARK  5 active torsions:
REMARK  status: ('A' for Active; 'I' for Inactive)
REMARK    1  A    between atoms: C_4  and  C_5 
REMARK    2  A    between atoms: C_5  and  N_6 
REMARK    3  A    between atoms: C_15  and  C_16 
REMARK    4  A    between atoms: C_16  and  N_17 
REMARK    5  A    between atoms: C_20  and  C_21 
REMARK       I    between atoms: C_21  and  N_22 
ROOT
HETATM    1  N   UNL     1     -40.775  57.594 -51.963  1.00  0.00    -0.061 N 
HETATM    2  H   UNL     1     -39.841  57.179 -51.879  1.00  0.00     0.280 HD
HETATM    3  C   UNL     1     -40.896  57.970 -53.425  1.00  0.00     0.276 C 
HETATM    4  C   UNL     1     -42.251  58.448 -53.858  1.00  0.00     0.002 A 
HETATM    5  C   UNL     1     -42.784  59.617 -53.315  1.00  0.00     0.076 A 
HETATM    6  O   UNL     1     -42.082  60.353 -52.403  1.00  0.00    -0.349 OA
HETATM    7  C   UNL     1     -41.994  59.686 -51.137  1.00  0.00     0.203 C 
HETATM    8  C   UNL     1     -40.738  58.810 -51.048  1.00  0.00     0.262 C 
HETATM    9  C   UNL     1     -42.993  57.758 -54.836  1.00  0.00     0.020 A 
HETATM   10  C   UNL     1     -44.249  58.229 -55.268  1.00  0.00    -0.032 A 
HETATM   11  C   UNL     1     -44.752  59.409 -54.698  1.00  0.00     0.011 A 
HETATM   12  C   UNL     1     -44.014  60.109 -53.743  1.00  0.00     0.038 A 
ENDROOT
BRANCH  10  13
HETATM   13  C   UNL     1     -45.055  57.441 -56.278  1.00  0.00     0.273 C 
BRANCH  13  14
HETATM   14  N   UNL     1     -44.528  57.454 -57.692  1.00  0.00    -0.066 N 
HETATM   15  H   UNL     1     -43.882  58.265 -57.759  1.00  0.00     0.280 HD
HETATM   16  C   UNL     1     -43.677  56.250 -58.046  1.00  0.00     0.249 C 
HETATM   17  C   UNL     1     -43.049  56.429 -59.432  1.00  0.00     0.103 C 
HETATM   18  C   UNL     1     -44.126  56.697 -60.487  1.00  0.00     0.017 C 
HETATM   19  C   UNL     1     -45.047  57.851 -60.090  1.00  0.00     0.029 C 
HETATM   20  C   UNL     1     -45.633  57.680 -58.695  1.00  0.00     0.235 C 
BRANCH  17  21
HETATM   21  C   UNL     1     -42.051  57.572 -59.381  1.00  0.00     0.221 C 
HETATM   22  N   UNL     1     -41.501  57.946 -60.564  1.00  0.00    -0.370 N 
HETATM   23  H   UNL     1     -41.666  57.479 -61.448  1.00  0.00     0.159 HD
HETATM   24  H   UNL     1     -40.843  58.718 -60.575  1.00  0.00     0.159 HD
HETATM   25  O   UNL     1     -41.821  58.172 -58.334  1.00  0.00    -0.273 OA
ENDBRANCH  17  21
ENDBRANCH  13  14
ENDBRANCH  10  13
BRANCH   1  26
HETATM   26  C   UNL     1     -41.728  56.514 -51.481  1.00  0.00     0.274 C 
BRANCH  26  27
HETATM   27  C   UNL     1     -41.186  55.102 -51.519  1.00  0.00    -0.026 A 
HETATM   28  C   UNL     1     -40.919  54.491 -52.763  1.00  0.00     0.016 A 
HETATM   29  C   UNL     1     -40.459  53.171 -52.844  1.00  0.00    -0.061 A 
HETATM   30  C   UNL     1     -40.156  52.542 -54.175  1.00  0.00     0.048 C 
HETATM   31  C   UNL     1     -40.209  52.467 -51.667  1.00  0.00     0.007 A 
HETATM   32  C   UNL     1     -40.415  53.071 -50.428  1.00  0.00     0.008 A 
HETATM   33  C   UNL     1     -40.888  54.389 -50.336  1.00  0.00    -0.054 A 
HETATM   34  C   UNL     1     -41.028  54.996 -48.963  1.00  0.00     0.049 C 
ENDBRANCH  26  27
ENDBRANCH   1  26
TORSDOF 5
ENDMDL
MODEL 5
REMARK VINA RESULT:      -7.7     16.199     19.824
REMARK  5 active torsions:
REMARK  status: ('A' for Active; 'I' for Inactive)
REMARK    1  A    between atoms: C_4  and  C_5 
REMARK    2  A    between atoms: C_5  and  N_6 
REMARK    3  A    between atoms: C_15  and  C_16 
REMARK    4  A    between atoms: C_16  and  N_17 
REMARK    5  A    between atoms: C_20  and  C_21 
REMARK       I    between atoms: C_21  and  N_22 
ROOT
HETATM    1  N   UNL     1     -32.973  39.184 -57.551  1.00  0.00    -0.061 N 
HETATM    2  H   UNL     1     -32.988  39.723 -58.423  1.00  0.00     0.280 HD
HETATM    3  C   UNL     1     -32.165  40.032 -56.592  1.00  0.00     0.276 C 
HETATM    4  C   UNL     1     -32.133  39.546 -55.172  1.00  0.00     0.002 A 
HETATM    5  C   UNL     1     -31.554  38.314 -54.870  1.00  0.00     0.076 A 
HETATM    6  O   UNL     1     -30.994  37.541 -55.848  1.00  0.00    -0.349 OA
HETATM    7  C   UNL     1     -31.987  36.976 -56.713  1.00  0.00     0.203 C 
HETATM    8  C   UNL     1     -32.269  37.884 -57.917  1.00  0.00     0.262 C 
HETATM    9  C   UNL     1     -32.645  40.328 -54.119  1.00  0.00     0.020 A 
HETATM   10  C   UNL     1     -32.580  39.887 -52.782  1.00  0.00    -0.032 A 
HETATM   11  C   UNL     1     -31.991  38.640 -52.518  1.00  0.00     0.011 A 
HETATM   12  C   UNL     1     -31.462  37.869 -53.554  1.00  0.00     0.038 A 
ENDROOT
BRANCH  10  13
HETATM   13  C   UNL     1     -33.189  40.716 -51.673  1.00  0.00     0.273 C 
BRANCH  13  14
HETATM   14  N   UNL     1     -34.684  40.592 -51.504  1.00  0.00    -0.066 N 
HETATM   15  H   UNL     1     -35.066  41.558 -51.533  1.00  0.00     0.280 HD
HETATM   16  C   UNL     1     -35.376  39.869 -52.644  1.00  0.00     0.249 C 
HETATM   17  C   UNL     1     -36.897  39.939 -52.474  1.00  0.00     0.103 C 
HETATM   18  C   UNL     1     -37.319  39.391 -51.108  1.00  0.00     0.017 C 
HETATM   19  C   UNL     1     -36.555  40.052 -49.960  1.00  0.00     0.029 C 
HETATM   20  C   UNL     1     -35.046  40.009 -50.161  1.00  0.00     0.235 C 
BRANCH  17  21
HETATM   21  C   UNL     1     -37.349  41.379 -52.638  1.00  0.00     0.221 C 
HETATM   22  N   UNL     1     -38.672  41.620 -52.462  1.00  0.00    -0.370 N 
HETATM   23  H   UNL     1     -39.370  40.905 -52.294  1.00  0.00     0.159 HD
HETATM   24  H   UNL     1     -39.011  42.574 -52.545  1.00  0.00     0.159 HD
HETATM   25  O   UNL     1     -36.539  42.283 -52.838  1.00  0.00    -0.273 OA
ENDBRANCH  17  21
ENDBRANCH  13  14
ENDBRANCH  10  13
BRANCH   1  26
HETATM   26  C   UNL     1     -34.434  38.987 -57.185  1.00  0.00     0.274 C 
BRANCH  26  27
HETATM   27  C   UNL     1     -35.419  39.832 -57.963  1.00  0.00    -0.026 A 
HETATM   28  C   UNL     1     -36.046  39.297 -59.108  1.00  0.00     0.016 A 
HETATM   29  C   UNL     1     -36.928  40.060 -59.882  1.00  0.00    -0.061 A 
HETATM   30  C   UNL     1     -37.606  39.468 -61.085  1.00  0.00     0.048 C 
HETATM   31  C   UNL     1     -37.234  41.359 -59.477  1.00  0.00     0.007 A 
HETATM   32  C   UNL     1     -36.668  41.888 -58.319  1.00  0.00     0.008 A 
HETATM   33  C   UNL     1     -35.772  41.135 -57.543  1.00  0.00    -0.054 A 
HETATM   34  C   UNL     1     -35.247  41.751 -56.272  1.00  0.00     0.049 C 
ENDBRANCH  26  27
ENDBRANCH   1  26
TORSDOF 5
ENDMDL
MODEL 6
REMARK VINA RESULT:      -7.7      2.448      5.798
REMARK  5 active torsions:
REMARK  status: ('A' for Active; 'I' for Inactive)
REMARK    1  A    between atoms: C_4  and  C_5 
REMARK    2  A    between atoms: C_5  and  N_6 
REMARK    3  A    between atoms: C_15  and  C_16 
REMARK    4  A    between atoms: C_16  and  N_17 
REMARK    5  A    between atoms: C_20  and  C_21 
REMARK       I    between atoms: C_21  and  N_22 
ROOT
HETATM    1  N   UNL     1     -42.318  56.275 -50.358  1.00  0.00    -0.061 N 
HETATM    2  H   UNL     1     -42.923  56.776 -49.698  1.00  0.00     0.280 HD
HETATM    3  C   UNL     1     -43.244  55.308 -51.065  1.00  0.00     0.276 C 
HETATM    4  C   UNL     1     -42.637  54.561 -52.218  1.00  0.00     0.002 A 
HETATM    5  C   UNL     1     -41.574  53.685 -51.999  1.00  0.00     0.076 A 
HETATM    6  O   UNL     1     -41.083  53.476 -50.741  1.00  0.00    -0.349 OA
HETATM    7  C   UNL     1     -40.371  54.619 -50.252  1.00  0.00     0.203 C 
HETATM    8  C   UNL     1     -41.294  55.570 -49.480  1.00  0.00     0.262 C 
HETATM    9  C   UNL     1     -43.142  54.698 -53.525  1.00  0.00     0.020 A 
HETATM   10  C   UNL     1     -42.596  53.968 -54.600  1.00  0.00    -0.032 A 
HETATM   11  C   UNL     1     -41.527  53.096 -54.340  1.00  0.00     0.011 A 
HETATM   12  C   UNL     1     -41.034  52.940 -53.043  1.00  0.00     0.038 A 
ENDROOT
BRANCH  10  13
HETATM   13  C   UNL     1     -43.116  54.173 -56.006  1.00  0.00     0.273 C 
BRANCH  13  14
HETATM   14  N   UNL     1     -43.232  55.608 -56.460  1.00  0.00    -0.066 N 
HETATM   15  H   UNL     1     -44.142  55.959 -56.101  1.00  0.00     0.280 HD
HETATM   16  C   UNL     1     -42.195  56.534 -55.855  1.00  0.00     0.249 C 
HETATM   17  C   UNL     1     -42.491  57.988 -56.234  1.00  0.00     0.103 C 
HETATM   18  C   UNL     1     -42.582  58.147 -57.755  1.00  0.00     0.017 C 
HETATM   19  C   UNL     1     -43.558  57.151 -58.381  1.00  0.00     0.029 C 
HETATM   20  C   UNL     1     -43.275  55.713 -57.965  1.00  0.00     0.235 C 
BRANCH  17  21
HETATM   21  C   UNL     1     -43.788  58.420 -55.571  1.00  0.00     0.221 C 
HETATM   22  N   UNL     1     -44.165  59.708 -55.766  1.00  0.00    -0.370 N 
HETATM   23  H   UNL     1     -43.616  60.400 -56.263  1.00  0.00     0.159 HD
HETATM   24  H   UNL     1     -45.036  60.031 -55.355  1.00  0.00     0.159 HD
HETATM   25  O   UNL     1     -44.490  57.617 -54.961  1.00  0.00    -0.273 OA
ENDBRANCH  17  21
ENDBRANCH  13  14
ENDBRANCH  10  13
BRANCH   1  26
HETATM   26  C   UNL     1     -41.708  57.359 -51.231  1.00  0.00     0.274 C 
BRANCH  26  27
HETATM   27  C   UNL     1     -42.426  58.691 -51.212  1.00  0.00    -0.026 A 
HETATM   28  C   UNL     1     -43.727  58.790 -51.750  1.00  0.00     0.016 A 
HETATM   29  C   UNL     1     -44.408  60.012 -51.794  1.00  0.00    -0.061 A 
HETATM   30  C   UNL     1     -45.802  60.097 -52.349  1.00  0.00     0.048 C 
HETATM   31  C   UNL     1     -43.807  61.143 -51.243  1.00  0.00     0.007 A 
HETATM   32  C   UNL     1     -42.545  61.055 -50.657  1.00  0.00     0.008 A 
HETATM   33  C   UNL     1     -41.848  59.837 -50.620  1.00  0.00    -0.054 A 
HETATM   34  C   UNL     1     -40.515  59.805 -49.917  1.00  0.00     0.049 C 
ENDBRANCH  26  27
ENDBRANCH   1  26
TORSDOF 5
ENDMDL
MODEL 7
REMARK VINA RESULT:      -7.4      1.664      2.338
REMARK  5 active torsions:
REMARK  status: ('A' for Active; 'I' for Inactive)
REMARK    1  A    between atoms: C_4  and  C_5 
REMARK    2  A    between atoms: C_5  and  N_6 
REMARK    3  A    between atoms: C_15  and  C_16 
REMARK    4  A    between atoms: C_16  and  N_17 
REMARK    5  A    between atoms: C_20  and  C_21 
REMARK       I    between atoms: C_21  and  N_22 
ROOT
HETATM    1  N   UNL     1     -41.816  58.443 -52.065  1.00  0.00    -0.061 N 
HETATM    2  H   UNL     1     -41.060  58.054 -51.490  1.00  0.00     0.280 HD
HETATM    3  C   UNL     1     -41.106  59.233 -53.145  1.00  0.00     0.276 C 
HETATM    4  C   UNL     1     -41.989  59.772 -54.233  1.00  0.00     0.002 A 
HETATM    5  C   UNL     1     -42.977  60.709 -53.930  1.00  0.00     0.076 A 
HETATM    6  O   UNL     1     -43.147  61.163 -52.652  1.00  0.00    -0.349 OA
HETATM    7  C   UNL     1     -43.700  60.154 -51.798  1.00  0.00     0.203 C 
HETATM    8  C   UNL     1     -42.602  59.333 -51.111  1.00  0.00     0.262 C 
HETATM    9  C   UNL     1     -41.819  59.380 -55.575  1.00  0.00     0.020 A 
HETATM   10  C   UNL     1     -42.623  59.915 -56.600  1.00  0.00    -0.032 A 
HETATM   11  C   UNL     1     -43.608  60.855 -56.255  1.00  0.00     0.011 A 
HETATM   12  C   UNL     1     -43.768  61.264 -54.930  1.00  0.00     0.038 A 
ENDROOT
BRANCH  10  13
HETATM   13  C   UNL     1     -42.463  59.437 -58.026  1.00  0.00     0.273 C 
BRANCH  13  14
HETATM   14  N   UNL     1     -43.266  58.216 -58.404  1.00  0.00    -0.066 N 
HETATM   15  H   UNL     1     -44.140  58.252 -57.843  1.00  0.00     0.280 HD
HETATM   16  C   UNL     1     -43.731  58.205 -59.847  1.00  0.00     0.249 C 
HETATM   17  C   UNL     1     -44.675  57.023 -60.094  1.00  0.00     0.103 C 
HETATM   18  C   UNL     1     -44.010  55.702 -59.697  1.00  0.00     0.017 C 
HETATM   19  C   UNL     1     -43.454  55.741 -58.273  1.00  0.00     0.029 C 
HETATM   20  C   UNL     1     -42.549  56.941 -58.031  1.00  0.00     0.235 C 
BRANCH  17  21
HETATM   21  C   UNL     1     -45.955  57.237 -59.306  1.00  0.00     0.221 C 
HETATM   22  N   UNL     1     -46.910  56.282 -59.435  1.00  0.00    -0.370 N 
HETATM   23  H   UNL     1     -46.847  55.486 -60.058  1.00  0.00     0.159 HD
HETATM   24  H   UNL     1     -47.774  56.379 -58.910  1.00  0.00     0.159 HD
HETATM   25  O   UNL     1     -46.077  58.185 -58.533  1.00  0.00    -0.273 OA
ENDBRANCH  17  21
ENDBRANCH  13  14
ENDBRANCH  10  13
BRANCH   1  26
HETATM   26  C   UNL     1     -42.606  57.238 -52.542  1.00  0.00     0.274 C 
BRANCH  26  27
HETATM   27  C   UNL     1     -41.836  55.937 -52.605  1.00  0.00    -0.026 A 
HETATM   28  C   UNL     1     -41.354  55.471 -53.846  1.00  0.00     0.016 A 
HETATM   29  C   UNL     1     -40.676  54.250 -53.954  1.00  0.00    -0.061 A 
HETATM   30  C   UNL     1     -40.148  53.778 -55.280  1.00  0.00     0.048 C 
HETATM   31  C   UNL     1     -40.426  53.509 -52.800  1.00  0.00     0.007 A 
HETATM   32  C   UNL     1     -40.847  53.979 -51.557  1.00  0.00     0.008 A 
HETATM   33  C   UNL     1     -41.538  55.195 -51.439  1.00  0.00    -0.054 A 
HETATM   34  C   UNL     1     -41.907  55.668 -50.056  1.00  0.00     0.049 C 
ENDBRANCH  26  27
ENDBRANCH   1  26
TORSDOF 5
ENDMDL
MODEL 8
REMARK VINA RESULT:      -7.4      3.176      6.562
REMARK  5 active torsions:
REMARK  status: ('A' for Active; 'I' for Inactive)
REMARK    1  A    between atoms: C_4  and  C_5 
REMARK    2  A    between atoms: C_5  and  N_6 
REMARK    3  A    between atoms: C_15  and  C_16 
REMARK    4  A    between atoms: C_16  and  N_17 
REMARK    5  A    between atoms: C_20  and  C_21 
REMARK       I    between atoms: C_21  and  N_22 
ROOT
HETATM    1  N   UNL     1     -42.636  54.535 -54.694  1.00  0.00    -0.061 N 
HETATM    2  H   UNL     1     -42.810  53.534 -54.553  1.00  0.00     0.280 HD
HETATM    3  C   UNL     1     -43.725  55.227 -53.902  1.00  0.00     0.276 C 
HETATM    4  C   UNL     1     -43.598  56.719 -53.799  1.00  0.00     0.002 A 
HETATM    5  C   UNL     1     -43.669  57.506 -54.949  1.00  0.00     0.076 A 
HETATM    6  O   UNL     1     -43.874  56.940 -56.176  1.00  0.00    -0.349 OA
HETATM    7  C   UNL     1     -42.723  56.213 -56.624  1.00  0.00     0.203 C 
HETATM    8  C   UNL     1     -42.785  54.741 -56.196  1.00  0.00     0.262 C 
HETATM    9  C   UNL     1     -43.442  57.357 -52.553  1.00  0.00     0.020 A 
HETATM   10  C   UNL     1     -43.360  58.760 -52.455  1.00  0.00    -0.032 A 
HETATM   11  C   UNL     1     -43.436  59.518 -53.635  1.00  0.00     0.011 A 
HETATM   12  C   UNL     1     -43.611  58.894 -54.872  1.00  0.00     0.038 A 
ENDROOT
BRANCH  10  13
HETATM   13  C   UNL     1     -43.135  59.421 -51.113  1.00  0.00     0.273 C 
BRANCH  13  14
HETATM   14  N   UNL     1     -43.959  60.657 -50.843  1.00  0.00    -0.066 N 
HETATM   15  H   UNL     1     -44.335  60.967 -51.760  1.00  0.00     0.280 HD
HETATM   16  C   UNL     1     -45.185  60.407 -49.986  1.00  0.00     0.249 C 
HETATM   17  C   UNL     1     -46.046  61.671 -49.905  1.00  0.00     0.103 C 
HETATM   18  C   UNL     1     -45.225  62.860 -49.397  1.00  0.00     0.017 C 
HETATM   19  C   UNL     1     -43.939  63.058 -50.200  1.00  0.00     0.029 C 
HETATM   20  C   UNL     1     -43.111  61.783 -50.304  1.00  0.00     0.235 C 
BRANCH  17  21
HETATM   21  C   UNL     1     -46.623  61.967 -51.279  1.00  0.00     0.221 C 
HETATM   22  N   UNL     1     -47.364  63.097 -51.392  1.00  0.00    -0.370 N 
HETATM   23  H   UNL     1     -47.601  63.709 -50.619  1.00  0.00     0.159 HD
HETATM   24  H   UNL     1     -47.752  63.340 -52.298  1.00  0.00     0.159 HD
HETATM   25  O   UNL     1     -46.360  61.257 -52.247  1.00  0.00    -0.273 OA
ENDBRANCH  17  21
ENDBRANCH  13  14
ENDBRANCH  10  13
BRANCH   1  26
HETATM   26  C   UNL     1     -41.218  54.760 -54.200  1.00  0.00     0.274 C 
BRANCH  26  27
HETATM   27  C   UNL     1     -40.855  54.048 -52.916  1.00  0.00    -0.026 A 
HETATM   28  C   UNL     1     -41.062  54.694 -51.678  1.00  0.00     0.016 A 
HETATM   29  C   UNL     1     -40.698  54.089 -50.469  1.00  0.00    -0.061 A 
HETATM   30  C   UNL     1     -40.947  54.779 -49.157  1.00  0.00     0.048 C 
HETATM   31  C   UNL     1     -40.171  52.798 -50.489  1.00  0.00     0.007 A 
HETATM   32  C   UNL     1     -40.009  52.122 -51.697  1.00  0.00     0.008 A 
HETATM   33  C   UNL     1     -40.359  52.724 -52.916  1.00  0.00    -0.054 A 
HETATM   34  C   UNL     1     -40.213  51.910 -54.175  1.00  0.00     0.049 C 
ENDBRANCH  26  27
ENDBRANCH   1  26
TORSDOF 5
ENDMDL
MODEL 9
REMARK VINA RESULT:      -7.2      3.103      6.991
REMARK  5 active torsions:
REMARK  status: ('A' for Active; 'I' for Inactive)
REMARK    1  A    between atoms: C_4  and  C_5 
REMARK    2  A    between atoms: C_5  and  N_6 
REMARK    3  A    between atoms: C_15  and  C_16 
REMARK    4  A    between atoms: C_16  and  N_17 
REMARK    5  A    between atoms: C_20  and  C_21 
REMARK       I    between atoms: C_21  and  N_22 
ROOT
HETATM    1  N   UNL     1     -42.546  54.654 -54.695  1.00  0.00    -0.061 N 
HETATM    2  H   UNL     1     -42.755  53.656 -54.583  1.00  0.00     0.280 HD
HETATM    3  C   UNL     1     -43.616  55.361 -53.891  1.00  0.00     0.276 C 
HETATM    4  C   UNL     1     -43.439  56.845 -53.746  1.00  0.00     0.002 A 
HETATM    5  C   UNL     1     -43.475  57.665 -54.874  1.00  0.00     0.076 A 
HETATM    6  O   UNL     1     -43.690  57.140 -56.118  1.00  0.00    -0.349 OA
HETATM    7  C   UNL     1     -42.562  56.386 -56.579  1.00  0.00     0.203 C 
HETATM    8  C   UNL     1     -42.677  54.907 -56.192  1.00  0.00     0.262 C 
HETATM    9  C   UNL     1     -43.271  57.442 -52.482  1.00  0.00     0.020 A 
HETATM   10  C   UNL     1     -43.142  58.839 -52.345  1.00  0.00    -0.032 A 
HETATM   11  C   UNL     1     -43.183  59.631 -53.503  1.00  0.00     0.011 A 
HETATM   12  C   UNL     1     -43.369  59.047 -54.758  1.00  0.00     0.038 A 
ENDROOT
BRANCH  10  13
HETATM   13  C   UNL     1     -42.904  59.454 -50.983  1.00  0.00     0.273 C 
BRANCH  13  14
HETATM   14  N   UNL     1     -44.046  60.264 -50.420  1.00  0.00    -0.066 N 
HETATM   15  H   UNL     1     -44.509  59.667 -49.707  1.00  0.00     0.280 HD
HETATM   16  C   UNL     1     -43.610  61.504 -49.663  1.00  0.00     0.249 C 
HETATM   17  C   UNL     1     -44.814  62.167 -48.986  1.00  0.00     0.103 C 
HETATM   18  C   UNL     1     -45.911  62.478 -50.009  1.00  0.00     0.017 C 
HETATM   19  C   UNL     1     -46.288  61.251 -50.840  1.00  0.00     0.029 C 
HETATM   20  C   UNL     1     -45.078  60.580 -51.475  1.00  0.00     0.235 C 
BRANCH  17  21
HETATM   21  C   UNL     1     -45.340  61.248 -47.898  1.00  0.00     0.221 C 
HETATM   22  N   UNL     1     -44.415  60.708 -47.065  1.00  0.00    -0.370 N 
HETATM   23  H   UNL     1     -43.414  60.828 -47.162  1.00  0.00     0.159 HD
HETATM   24  H   UNL     1     -44.728  60.102 -46.312  1.00  0.00     0.159 HD
HETATM   25  O   UNL     1     -46.546  61.074 -47.738  1.00  0.00    -0.273 OA
ENDBRANCH  17  21
ENDBRANCH  13  14
ENDBRANCH  10  13
BRANCH   1  26
HETATM   26  C   UNL     1     -41.125  54.817 -54.186  1.00  0.00     0.274 C 
BRANCH  26  27
HETATM   27  C   UNL     1     -40.797  54.059 -52.918  1.00  0.00    -0.026 A 
HETATM   28  C   UNL     1     -40.994  54.679 -51.665  1.00  0.00     0.016 A 
HETATM   29  C   UNL     1     -40.661  54.031 -50.470  1.00  0.00    -0.061 A 
HETATM   30  C   UNL     1     -40.898  54.694 -49.142  1.00  0.00     0.048 C 
HETATM   31  C   UNL     1     -40.176  52.724 -50.520  1.00  0.00     0.007 A 
HETATM   32  C   UNL     1     -40.025  52.075 -51.744  1.00  0.00     0.008 A 
HETATM   33  C   UNL     1     -40.344  52.721 -52.949  1.00  0.00    -0.054 A 
HETATM   34  C   UNL     1     -40.214  51.935 -54.229  1.00  0.00     0.049 C 
ENDBRANCH  26  27
ENDBRANCH   1  26
TORSDOF 5
ENDMDL
MODEL 10
REMARK VINA RESULT:      -7.1      2.147      7.680
REMARK  5 active torsions:
REMARK  status: ('A' for Active; 'I' for Inactive)
REMARK    1  A    between atoms: C_4  and  C_5 
REMARK    2  A    between atoms: C_5  and  N_6 
REMARK    3  A    between atoms: C_15  and  C_16 
REMARK    4  A    between atoms: C_16  and  N_17 
REMARK    5  A    between atoms: C_20  and  C_21 
REMARK       I    between atoms: C_21  and  N_22 
ROOT
HETATM    1  N   UNL     1     -44.685  59.143 -57.355  1.00  0.00    -0.061 N 
HETATM    2  H   UNL     1     -45.613  59.274 -57.773  1.00  0.00     0.280 HD
HETATM    3  C   UNL     1     -44.940  58.316 -56.113  1.00  0.00     0.276 C 
HETATM    4  C   UNL     1     -43.712  57.832 -55.398  1.00  0.00     0.002 A 
HETATM    5  C   UNL     1     -42.824  58.750 -54.838  1.00  0.00     0.076 A 
HETATM    6  O   UNL     1     -43.063  60.094 -54.911  1.00  0.00    -0.349 OA
HETATM    7  C   UNL     1     -42.893  60.592 -56.244  1.00  0.00     0.203 C 
HETATM    8  C   UNL     1     -44.208  60.553 -57.032  1.00  0.00     0.262 C 
HETATM    9  C   UNL     1     -43.447  56.457 -55.245  1.00  0.00     0.020 A 
HETATM   10  C   UNL     1     -42.313  56.005 -54.542  1.00  0.00    -0.032 A 
HETATM   11  C   UNL     1     -41.443  56.960 -53.992  1.00  0.00     0.011 A 
HETATM   12  C   UNL     1     -41.709  58.324 -54.122  1.00  0.00     0.038 A 
ENDROOT
BRANCH  10  13
HETATM   13  C   UNL     1     -42.018  54.525 -54.440  1.00  0.00     0.273 C 
BRANCH  13  14
HETATM   14  N   UNL     1     -41.376  54.070 -53.151  1.00  0.00    -0.066 N 
HETATM   15  H   UNL     1     -40.707  54.816 -52.875  1.00  0.00     0.280 HD
HETATM   16  C   UNL     1     -42.339  53.963 -51.985  1.00  0.00     0.249 C 
HETATM   17  C   UNL     1     -41.578  53.664 -50.690  1.00  0.00     0.103 C 
HETATM   18  C   UNL     1     -40.720  52.405 -50.840  1.00  0.00     0.017 C 
HETATM   19  C   UNL     1     -39.814  52.468 -52.070  1.00  0.00     0.029 C 
HETATM   20  C   UNL     1     -40.578  52.804 -53.344  1.00  0.00     0.235 C 
BRANCH  17  21
HETATM   21  C   UNL     1     -40.716  54.862 -50.333  1.00  0.00     0.221 C 
HETATM   22  N   UNL     1     -39.700  54.637 -49.463  1.00  0.00    -0.370 N 
HETATM   23  H   UNL     1     -39.525  53.752 -49.000  1.00  0.00     0.159 HD
HETATM   24  H   UNL     1     -39.088  55.408 -49.213  1.00  0.00     0.159 HD
HETATM   25  O   UNL     1     -40.886  55.954 -50.871  1.00  0.00    -0.273 OA
ENDBRANCH  17  21
ENDBRANCH  13  14
ENDBRANCH  10  13
BRANCH   1  26
HETATM   26  C   UNL     1     -43.860  58.469 -58.437  1.00  0.00     0.274 C 
BRANCH  26  27
HETATM   27  C   UNL     1     -44.535  57.318 -59.150  1.00  0.00    -0.026 A 
HETATM   28  C   UNL     1     -45.719  57.550 -59.883  1.00  0.00     0.016 A 
HETATM   29  C   UNL     1     -46.400  56.505 -60.519  1.00  0.00    -0.061 A 
HETATM   30  C   UNL     1     -47.646  56.772 -61.316  1.00  0.00     0.048 C 
HETATM   31  C   UNL     1     -45.865  55.219 -60.471  1.00  0.00     0.007 A 
HETATM   32  C   UNL     1     -44.669  54.978 -59.798  1.00  0.00     0.008 A 
HETATM   33  C   UNL     1     -43.984  56.016 -59.146  1.00  0.00    -0.054 A 
HETATM   34  C   UNL     1     -42.666  55.692 -58.491  1.00  0.00     0.049 C 
ENDBRANCH  26  27
ENDBRANCH   1  26
TORSDOF 5
ENDMDL
