MODEL 1
REMARK VINA RESULT:      -7.8      0.000      0.000
REMARK  3 active torsions:
REMARK  status: ('A' for Active; 'I' for Inactive)
REMARK    1  A    between atoms: C_4  and  C_5 
REMARK    2  A    between atoms: C_11  and  C_12 
REMARK    3  A    between atoms: C_21  and  N_22 
ROOT
HETATM    1  C   UNL     1     -41.754  54.818 -55.030  1.00  0.00     0.098 A 
HETATM    2  N   UNL     1     -42.409  54.874 -56.208  1.00  0.00    -0.172 NA
HETATM    3  N   UNL     1     -42.750  56.168 -56.351  1.00  0.00    -0.256 N 
HETATM    4  H   UNL     1     -43.206  56.463 -57.206  1.00  0.00     0.191 HD
HETATM    5  C   UNL     1     -42.361  56.929 -55.300  1.00  0.00     0.175 A 
HETATM    6  C   UNL     1     -41.789  56.088 -54.384  1.00  0.00     0.036 A 
HETATM    7  C   UNL     1     -41.302  56.637 -53.078  1.00  0.00     0.077 C 
HETATM    8  C   UNL     1     -41.040  58.155 -53.285  1.00  0.00     0.076 C 
HETATM    9  C   UNL     1     -40.101  58.791 -52.422  1.00  0.00     0.100 C 
HETATM   10  N   UNL     1     -39.349  59.310 -51.706  1.00  0.00    -0.192 NA
HETATM   11  C   UNL     1     -41.632  58.868 -54.285  1.00  0.00     0.140 C 
HETATM   12  O   UNL     1     -42.458  58.251 -55.242  1.00  0.00    -0.279 OA
ENDROOT
BRANCH   7  13
HETATM   13  C   UNL     1     -42.324  56.452 -51.891  1.00  0.00     0.003 C 
HETATM   14  C   UNL     1     -43.204  55.179 -51.934  1.00  0.00     0.032 C 
HETATM   15  C   UNL     1     -42.503  53.942 -51.462  1.00  0.00    -0.030 C 
HETATM   16  C   UNL     1     -41.383  53.972 -50.726  1.00  0.00    -0.031 C 
HETATM   17  C   UNL     1     -40.744  55.247 -50.263  1.00  0.00     0.027 C 
HETATM   18  C   UNL     1     -41.629  56.477 -50.507  1.00  0.00     0.009 C 
ENDBRANCH   7  13
BRANCH  11  19
HETATM   19  N   UNL     1     -41.487  60.219 -54.504  1.00  0.00    -0.282 NA
HETATM   20  H   UNL     1     -41.065  60.745 -53.742  1.00  0.00     0.126 HD
HETATM   21  H   UNL     1     -42.341  60.643 -54.859  1.00  0.00     0.126 HD
ENDBRANCH  11  19
BRANCH   1  22
HETATM   22  C   UNL     1     -41.141  53.571 -54.579  1.00  0.00    -0.005 A 
HETATM   23  C   UNL     1     -41.802  52.345 -54.734  1.00  0.00     0.014 A 
HETATM   24  C   UNL     1     -41.198  51.156 -54.316  1.00  0.00     0.001 A 
HETATM   25  C   UNL     1     -39.933  51.184 -53.729  1.00  0.00     0.000 A 
HETATM   26  C   UNL     1     -39.276  52.400 -53.549  1.00  0.00     0.001 A 
HETATM   27  C   UNL     1     -39.880  53.589 -53.967  1.00  0.00     0.014 A 
ENDBRANCH   1  22
TORSDOF 3
ENDMDL
MODEL 2
REMARK VINA RESULT:      -7.7      1.972      2.434
REMARK  3 active torsions:
REMARK  status: ('A' for Active; 'I' for Inactive)
REMARK    1  A    between atoms: C_4  and  C_5 
REMARK    2  A    between atoms: C_11  and  C_12 
REMARK    3  A    between atoms: C_21  and  N_22 
ROOT
HETATM    1  C   UNL     1     -43.104  55.716 -53.882  1.00  0.00     0.098 A 
HETATM    2  N   UNL     1     -44.228  55.829 -54.620  1.00  0.00    -0.172 NA
HETATM    3  N   UNL     1     -44.899  56.858 -54.070  1.00  0.00    -0.256 N 
HETATM    4  H   UNL     1     -45.759  57.169 -54.503  1.00  0.00     0.191 HD
HETATM    5  C   UNL     1     -44.258  57.385 -52.999  1.00  0.00     0.175 A 
HETATM    6  C   UNL     1     -43.137  56.627 -52.788  1.00  0.00     0.036 A 
HETATM    7  C   UNL     1     -42.242  56.937 -51.627  1.00  0.00     0.077 C 
HETATM    8  C   UNL     1     -42.485  58.423 -51.242  1.00  0.00     0.076 C 
HETATM    9  C   UNL     1     -41.436  59.116 -50.570  1.00  0.00     0.100 C 
HETATM   10  N   UNL     1     -40.587  59.671 -50.007  1.00  0.00    -0.192 NA
HETATM   11  C   UNL     1     -43.631  59.085 -51.571  1.00  0.00     0.140 C 
HETATM   12  O   UNL     1     -44.633  58.481 -52.352  1.00  0.00    -0.279 OA
ENDROOT
BRANCH   7  13
HETATM   13  C   UNL     1     -42.505  56.032 -50.363  1.00  0.00     0.003 C 
HETATM   14  C   UNL     1     -43.039  54.605 -50.638  1.00  0.00     0.032 C 
HETATM   15  C   UNL     1     -41.979  53.632 -51.058  1.00  0.00    -0.030 C 
HETATM   16  C   UNL     1     -40.671  53.843 -50.853  1.00  0.00    -0.031 C 
HETATM   17  C   UNL     1     -40.141  55.053 -50.145  1.00  0.00     0.027 C 
HETATM   18  C   UNL     1     -41.244  55.881 -49.475  1.00  0.00     0.009 C 
ENDBRANCH   7  13
BRANCH  11  19
HETATM   19  N   UNL     1     -43.938  60.382 -51.228  1.00  0.00    -0.282 NA
HETATM   20  H   UNL     1     -43.205  61.067 -51.397  1.00  0.00     0.126 HD
HETATM   21  H   UNL     1     -44.338  60.446 -50.294  1.00  0.00     0.126 HD
ENDBRANCH  11  19
BRANCH   1  22
HETATM   22  C   UNL     1     -42.070  54.751 -54.248  1.00  0.00    -0.005 A 
HETATM   23  C   UNL     1     -40.795  55.175 -54.644  1.00  0.00     0.014 A 
HETATM   24  C   UNL     1     -39.808  54.242 -54.974  1.00  0.00     0.001 A 
HETATM   25  C   UNL     1     -40.091  52.878 -54.921  1.00  0.00     0.000 A 
HETATM   26  C   UNL     1     -41.363  52.444 -54.550  1.00  0.00     0.001 A 
HETATM   27  C   UNL     1     -42.350  53.378 -54.220  1.00  0.00     0.014 A 
ENDBRANCH   1  22
TORSDOF 3
ENDMDL
MODEL 3
REMARK VINA RESULT:      -7.2      1.798      4.397
REMARK  3 active torsions:
REMARK  status: ('A' for Active; 'I' for Inactive)
REMARK    1  A    between atoms: C_4  and  C_5 
REMARK    2  A    between atoms: C_11  and  C_12 
REMARK    3  A    between atoms: C_21  and  N_22 
ROOT
HETATM    1  C   UNL     1     -41.277  57.332 -51.928  1.00  0.00     0.098 A 
HETATM    2  N   UNL     1     -40.450  58.196 -51.305  1.00  0.00    -0.172 NA
HETATM    3  N   UNL     1     -40.270  59.198 -52.185  1.00  0.00    -0.256 N 
HETATM    4  H   UNL     1     -39.724  60.003 -51.906  1.00  0.00     0.191 HD
HETATM    5  C   UNL     1     -40.929  58.992 -53.351  1.00  0.00     0.175 A 
HETATM    6  C   UNL     1     -41.525  57.762 -53.264  1.00  0.00     0.036 A 
HETATM    7  C   UNL     1     -42.292  57.227 -54.435  1.00  0.00     0.077 C 
HETATM    8  C   UNL     1     -42.722  58.445 -55.299  1.00  0.00     0.076 C 
HETATM    9  C   UNL     1     -43.870  58.298 -56.131  1.00  0.00     0.100 C 
HETATM   10  N   UNL     1     -44.794  58.168 -56.821  1.00  0.00    -0.192 NA
HETATM   11  C   UNL     1     -42.076  59.645 -55.243  1.00  0.00     0.140 C 
HETATM   12  O   UNL     1     -41.026  59.875 -54.336  1.00  0.00    -0.279 OA
ENDROOT
BRANCH   7  13
HETATM   13  C   UNL     1     -41.467  56.229 -55.333  1.00  0.00     0.003 C 
HETATM   14  C   UNL     1     -40.410  55.363 -54.605  1.00  0.00     0.032 C 
HETATM   15  C   UNL     1     -40.985  54.175 -53.895  1.00  0.00    -0.030 C 
HETATM   16  C   UNL     1     -42.203  53.684 -54.163  1.00  0.00    -0.031 C 
HETATM   17  C   UNL     1     -43.094  54.245 -55.228  1.00  0.00     0.027 C 
HETATM   18  C   UNL     1     -42.378  55.260 -56.128  1.00  0.00     0.009 C 
ENDBRANCH   7  13
BRANCH  11  19
HETATM   19  N   UNL     1     -42.367  60.752 -56.007  1.00  0.00    -0.282 NA
HETATM   20  H   UNL     1     -43.288  61.158 -55.859  1.00  0.00     0.126 HD
HETATM   21  H   UNL     1     -42.147  60.606 -56.990  1.00  0.00     0.126 HD
ENDBRANCH  11  19
BRANCH   1  22
HETATM   22  C   UNL     1     -41.779  56.150 -51.232  1.00  0.00    -0.005 A 
HETATM   23  C   UNL     1     -43.131  55.789 -51.306  1.00  0.00     0.014 A 
HETATM   24  C   UNL     1     -43.596  54.645 -50.651  1.00  0.00     0.001 A 
HETATM   25  C   UNL     1     -42.716  53.860 -49.907  1.00  0.00     0.000 A 
HETATM   26  C   UNL     1     -41.374  54.222 -49.808  1.00  0.00     0.001 A 
HETATM   27  C   UNL     1     -40.909  55.366 -50.463  1.00  0.00     0.014 A 
ENDBRANCH   1  22
TORSDOF 3
ENDMDL
MODEL 4
REMARK VINA RESULT:      -7.1      2.994      6.223
REMARK  3 active torsions:
REMARK  status: ('A' for Active; 'I' for Inactive)
REMARK    1  A    between atoms: C_4  and  C_5 
REMARK    2  A    between atoms: C_11  and  C_12 
REMARK    3  A    between atoms: C_21  and  N_22 
ROOT
HETATM    1  C   UNL     1     -41.295  56.294 -50.803  1.00  0.00     0.098 A 
HETATM    2  N   UNL     1     -41.265  56.339 -49.455  1.00  0.00    -0.172 NA
HETATM    3  N   UNL     1     -41.082  55.062 -49.071  1.00  0.00    -0.256 N 
HETATM    4  H   UNL     1     -40.966  54.859 -48.086  1.00  0.00     0.191 HD
HETATM    5  C   UNL     1     -41.021  54.207 -50.119  1.00  0.00     0.175 A 
HETATM    6  C   UNL     1     -41.237  54.943 -51.253  1.00  0.00     0.036 A 
HETATM    7  C   UNL     1     -41.281  54.257 -52.585  1.00  0.00     0.077 C 
HETATM    8  C   UNL     1     -40.500  52.921 -52.440  1.00  0.00     0.076 C 
HETATM    9  C   UNL     1     -39.933  52.351 -53.617  1.00  0.00     0.100 C 
HETATM   10  N   UNL     1     -39.489  51.881 -54.581  1.00  0.00    -0.192 NA
HETATM   11  C   UNL     1     -40.299  52.319 -51.232  1.00  0.00     0.140 C 
HETATM   12  O   UNL     1     -40.722  52.917 -50.031  1.00  0.00    -0.279 OA
ENDROOT
BRANCH   7  13
HETATM   13  C   UNL     1     -42.741  53.943 -53.090  1.00  0.00     0.003 C 
HETATM   14  C   UNL     1     -43.823  55.001 -52.763  1.00  0.00     0.032 C 
HETATM   15  C   UNL     1     -43.810  56.185 -53.681  1.00  0.00    -0.030 C 
HETATM   16  C   UNL     1     -43.205  56.175 -54.877  1.00  0.00    -0.031 C 
HETATM   17  C   UNL     1     -42.519  54.965 -55.435  1.00  0.00     0.027 C 
HETATM   18  C   UNL     1     -42.794  53.697 -54.619  1.00  0.00     0.009 C 
ENDBRANCH   7  13
BRANCH  11  19
HETATM   19  N   UNL     1     -39.660  51.118 -51.029  1.00  0.00    -0.282 NA
HETATM   20  H   UNL     1     -38.682  51.088 -51.306  1.00  0.00     0.126 HD
HETATM   21  H   UNL     1     -40.201  50.332 -51.385  1.00  0.00     0.126 HD
ENDBRANCH  11  19
BRANCH   1  22
HETATM   22  C   UNL     1     -41.384  57.524 -51.586  1.00  0.00    -0.005 A 
HETATM   23  C   UNL     1     -40.594  57.711 -52.728  1.00  0.00     0.014 A 
HETATM   24  C   UNL     1     -40.701  58.885 -53.479  1.00  0.00     0.001 A 
HETATM   25  C   UNL     1     -41.591  59.885 -53.090  1.00  0.00     0.000 A 
HETATM   26  C   UNL     1     -42.365  59.719 -51.942  1.00  0.00     0.001 A 
HETATM   27  C   UNL     1     -42.258  58.546 -51.191  1.00  0.00     0.014 A 
ENDBRANCH   1  22
TORSDOF 3
ENDMDL
MODEL 5
REMARK VINA RESULT:      -7.1      3.225      6.059
REMARK  3 active torsions:
REMARK  status: ('A' for Active; 'I' for Inactive)
REMARK    1  A    between atoms: C_4  and  C_5 
REMARK    2  A    between atoms: C_11  and  C_12 
REMARK    3  A    between atoms: C_21  and  N_22 
ROOT
HETATM    1  C   UNL     1     -44.400  57.312 -53.175  1.00  0.00     0.098 A 
HETATM    2  N   UNL     1     -44.888  56.655 -54.247  1.00  0.00    -0.172 NA
HETATM    3  N   UNL     1     -44.174  55.516 -54.307  1.00  0.00    -0.256 N 
HETATM    4  H   UNL     1     -44.410  54.826 -55.010  1.00  0.00     0.191 HD
HETATM    5  C   UNL     1     -43.236  55.436 -53.333  1.00  0.00     0.175 A 
HETATM    6  C   UNL     1     -43.287  56.609 -52.628  1.00  0.00     0.036 A 
HETATM    7  C   UNL     1     -42.322  56.842 -51.506  1.00  0.00     0.077 C 
HETATM    8  C   UNL     1     -41.838  55.447 -51.019  1.00  0.00     0.076 C 
HETATM    9  C   UNL     1     -41.367  55.338 -49.678  1.00  0.00     0.100 C 
HETATM   10  N   UNL     1     -40.968  55.257 -48.592  1.00  0.00    -0.192 NA
HETATM   11  C   UNL     1     -41.901  54.336 -51.807  1.00  0.00     0.140 C 
HETATM   12  O   UNL     1     -42.485  54.371 -53.087  1.00  0.00    -0.279 OA
ENDROOT
BRANCH   7  13
HETATM   13  C   UNL     1     -41.067  57.703 -51.917  1.00  0.00     0.003 C 
HETATM   14  C   UNL     1     -41.286  58.745 -53.041  1.00  0.00     0.032 C 
HETATM   15  C   UNL     1     -41.944  60.008 -52.576  1.00  0.00    -0.030 C 
HETATM   16  C   UNL     1     -41.994  60.375 -51.288  1.00  0.00    -0.031 C 
HETATM   17  C   UNL     1     -41.359  59.579 -50.188  1.00  0.00     0.027 C 
HETATM   18  C   UNL     1     -40.452  58.459 -50.712  1.00  0.00     0.009 C 
ENDBRANCH   7  13
BRANCH  11  19
HETATM   19  N   UNL     1     -41.452  53.081 -51.465  1.00  0.00    -0.282 NA
HETATM   20  H   UNL     1     -40.717  52.700 -52.057  1.00  0.00     0.126 HD
HETATM   21  H   UNL     1     -42.218  52.430 -51.309  1.00  0.00     0.126 HD
ENDBRANCH  11  19
BRANCH   1  22
HETATM   22  C   UNL     1     -45.005  58.566 -52.733  1.00  0.00    -0.005 A 
HETATM   23  C   UNL     1     -45.280  59.595 -53.644  1.00  0.00     0.014 A 
HETATM   24  C   UNL     1     -45.877  60.783 -53.212  1.00  0.00     0.001 A 
HETATM   25  C   UNL     1     -46.193  60.957 -51.866  1.00  0.00     0.000 A 
HETATM   26  C   UNL     1     -45.903  59.949 -50.947  1.00  0.00     0.001 A 
HETATM   27  C   UNL     1     -45.307  58.761 -51.378  1.00  0.00     0.014 A 
ENDBRANCH   1  22
TORSDOF 3
ENDMDL
MODEL 6
REMARK VINA RESULT:      -6.9     15.200     17.752
REMARK  3 active torsions:
REMARK  status: ('A' for Active; 'I' for Inactive)
REMARK    1  A    between atoms: C_4  and  C_5 
REMARK    2  A    between atoms: C_11  and  C_12 
REMARK    3  A    between atoms: C_21  and  N_22 
ROOT
HETATM    1  C   UNL     1     -34.184  38.682 -57.600  1.00  0.00     0.098 A 
HETATM    2  N   UNL     1     -33.001  38.327 -58.143  1.00  0.00    -0.172 NA
HETATM    3  N   UNL     1     -32.074  38.918 -57.367  1.00  0.00    -0.256 N 
HETATM    4  H   UNL     1     -31.095  38.740 -57.553  1.00  0.00     0.191 HD
HETATM    5  C   UNL     1     -32.621  39.654 -56.370  1.00  0.00     0.175 A 
HETATM    6  C   UNL     1     -33.980  39.600 -56.530  1.00  0.00     0.036 A 
HETATM    7  C   UNL     1     -34.866  40.369 -55.597  1.00  0.00     0.077 C 
HETATM    8  C   UNL     1     -34.059  40.611 -54.291  1.00  0.00     0.076 C 
HETATM    9  C   UNL     1     -34.792  40.822 -53.087  1.00  0.00     0.100 C 
HETATM   10  N   UNL     1     -35.393  41.011 -52.112  1.00  0.00    -0.192 NA
HETATM   11  C   UNL     1     -32.696  40.574 -54.256  1.00  0.00     0.140 C 
HETATM   12  O   UNL     1     -31.939  40.235 -55.392  1.00  0.00    -0.279 OA
ENDROOT
BRANCH   7  13
HETATM   13  C   UNL     1     -35.337  41.760 -56.171  1.00  0.00     0.003 C 
HETATM   14  C   UNL     1     -35.571  41.828 -57.700  1.00  0.00     0.032 C 
HETATM   15  C   UNL     1     -36.884  41.254 -58.139  1.00  0.00    -0.030 C 
HETATM   16  C   UNL     1     -37.911  41.054 -57.300  1.00  0.00    -0.031 C 
HETATM   17  C   UNL     1     -37.863  41.425 -55.849  1.00  0.00     0.027 C 
HETATM   18  C   UNL     1     -36.633  42.269 -55.491  1.00  0.00     0.009 C 
ENDBRANCH   7  13
BRANCH  11  19
HETATM   19  N   UNL     1     -31.913  40.822 -53.152  1.00  0.00    -0.282 NA
HETATM   20  H   UNL     1     -32.416  40.959 -52.278  1.00  0.00     0.126 HD
HETATM   21  H   UNL     1     -31.218  41.544 -53.331  1.00  0.00     0.126 HD
ENDBRANCH  11  19
BRANCH   1  22
HETATM   22  C   UNL     1     -35.435  38.141 -58.125  1.00  0.00    -0.005 A 
HETATM   23  C   UNL     1     -36.415  37.624 -57.267  1.00  0.00     0.014 A 
HETATM   24  C   UNL     1     -37.616  37.127 -57.779  1.00  0.00     0.001 A 
HETATM   25  C   UNL     1     -37.843  37.130 -59.155  1.00  0.00     0.000 A 
HETATM   26  C   UNL     1     -36.866  37.620 -60.020  1.00  0.00     0.001 A 
HETATM   27  C   UNL     1     -35.665  38.118 -59.507  1.00  0.00     0.014 A 
ENDBRANCH   1  22
TORSDOF 3
ENDMDL
MODEL 7
REMARK VINA RESULT:      -6.9     15.543     17.743
REMARK  3 active torsions:
REMARK  status: ('A' for Active; 'I' for Inactive)
REMARK    1  A    between atoms: C_4  and  C_5 
REMARK    2  A    between atoms: C_11  and  C_12 
REMARK    3  A    between atoms: C_21  and  N_22 
ROOT
HETATM    1  C   UNL     1     -33.667  40.323 -54.728  1.00  0.00     0.098 A 
HETATM    2  N   UNL     1     -32.424  40.540 -55.205  1.00  0.00    -0.172 NA
HETATM    3  N   UNL     1     -31.602  40.051 -54.258  1.00  0.00    -0.256 N 
HETATM    4  H   UNL     1     -30.604  40.050 -54.428  1.00  0.00     0.191 HD
HETATM    5  C   UNL     1     -32.273  39.557 -53.189  1.00  0.00     0.175 A 
HETATM    6  C   UNL     1     -33.605  39.787 -53.410  1.00  0.00     0.036 A 
HETATM    7  C   UNL     1     -34.607  39.394 -52.367  1.00  0.00     0.077 C 
HETATM    8  C   UNL     1     -33.953  38.284 -51.496  1.00  0.00     0.076 C 
HETATM    9  C   UNL     1     -34.818  37.380 -50.812  1.00  0.00     0.100 C 
HETATM   10  N   UNL     1     -35.525  36.658 -50.243  1.00  0.00    -0.192 NA
HETATM   11  C   UNL     1     -32.601  38.123 -51.413  1.00  0.00     0.140 C 
HETATM   12  O   UNL     1     -31.717  38.905 -52.177  1.00  0.00    -0.279 OA
ENDROOT
BRANCH   7  13
HETATM   13  C   UNL     1     -35.050  40.583 -51.432  1.00  0.00     0.003 C 
HETATM   14  C   UNL     1     -35.121  41.983 -52.088  1.00  0.00     0.032 C 
HETATM   15  C   UNL     1     -36.364  42.213 -52.892  1.00  0.00    -0.030 C 
HETATM   16  C   UNL     1     -37.469  41.465 -52.759  1.00  0.00    -0.031 C 
HETATM   17  C   UNL     1     -37.586  40.352 -51.762  1.00  0.00     0.027 C 
HETATM   18  C   UNL     1     -36.423  40.325 -50.763  1.00  0.00     0.009 C 
ENDBRANCH   7  13
BRANCH  11  19
HETATM   19  N   UNL     1     -31.949  37.197 -50.630  1.00  0.00    -0.282 NA
HETATM   20  H   UNL     1     -31.670  36.341 -51.103  1.00  0.00     0.126 HD
HETATM   21  H   UNL     1     -32.434  37.030 -49.752  1.00  0.00     0.126 HD
ENDBRANCH  11  19
BRANCH   1  22
HETATM   22  C   UNL     1     -34.839  40.642 -55.540  1.00  0.00    -0.005 A 
HETATM   23  C   UNL     1     -35.905  39.739 -55.655  1.00  0.00     0.014 A 
HETATM   24  C   UNL     1     -37.029  40.063 -56.419  1.00  0.00     0.001 A 
HETATM   25  C   UNL     1     -37.093  41.286 -57.084  1.00  0.00     0.000 A 
HETATM   26  C   UNL     1     -36.029  42.183 -56.996  1.00  0.00     0.001 A 
HETATM   27  C   UNL     1     -34.905  41.859 -56.231  1.00  0.00     0.014 A 
ENDBRANCH   1  22
TORSDOF 3
ENDMDL
MODEL 8
REMARK VINA RESULT:      -6.6     15.168     17.752
REMARK  3 active torsions:
REMARK  status: ('A' for Active; 'I' for Inactive)
REMARK    1  A    between atoms: C_4  and  C_5 
REMARK    2  A    between atoms: C_11  and  C_12 
REMARK    3  A    between atoms: C_21  and  N_22 
ROOT
HETATM    1  C   UNL     1     -35.671  40.518 -52.352  1.00  0.00     0.098 A 
HETATM    2  N   UNL     1     -36.486  41.565 -52.108  1.00  0.00    -0.172 NA
HETATM    3  N   UNL     1     -36.373  42.350 -53.195  1.00  0.00    -0.256 N 
HETATM    4  H   UNL     1     -36.951  43.179 -53.263  1.00  0.00     0.191 HD
HETATM    5  C   UNL     1     -35.500  41.857 -54.106  1.00  0.00     0.175 A 
HETATM    6  C   UNL     1     -34.958  40.720 -53.570  1.00  0.00     0.036 A 
HETATM    7  C   UNL     1     -33.907  39.970 -54.331  1.00  0.00     0.077 C 
HETATM    8  C   UNL     1     -34.072  40.343 -55.831  1.00  0.00     0.076 C 
HETATM    9  C   UNL     1     -33.598  39.413 -56.802  1.00  0.00     0.100 C 
HETATM   10  N   UNL     1     -33.195  38.663 -57.590  1.00  0.00    -0.192 NA
HETATM   11  C   UNL     1     -34.694  41.487 -56.236  1.00  0.00     0.140 C 
HETATM   12  O   UNL     1     -35.297  42.364 -55.315  1.00  0.00    -0.279 OA
ENDROOT
BRANCH   7  13
HETATM   13  C   UNL     1     -32.435  40.307 -53.880  1.00  0.00     0.003 C 
HETATM   14  C   UNL     1     -32.219  40.550 -52.366  1.00  0.00     0.032 C 
HETATM   15  C   UNL     1     -32.130  39.291 -51.557  1.00  0.00    -0.030 C 
HETATM   16  C   UNL     1     -31.877  38.091 -52.099  1.00  0.00    -0.031 C 
HETATM   17  C   UNL     1     -31.614  37.894 -53.561  1.00  0.00     0.027 C 
HETATM   18  C   UNL     1     -31.423  39.217 -54.314  1.00  0.00     0.009 C 
ENDBRANCH   7  13
BRANCH  11  19
HETATM   19  N   UNL     1     -34.838  41.906 -57.538  1.00  0.00    -0.282 NA
HETATM   20  H   UNL     1     -35.772  41.812 -57.930  1.00  0.00     0.126 HD
HETATM   21  H   UNL     1     -34.111  41.532 -58.143  1.00  0.00     0.126 HD
ENDBRANCH  11  19
BRANCH   1  22
HETATM   22  C   UNL     1     -35.605  39.395 -51.421  1.00  0.00    -0.005 A 
HETATM   23  C   UNL     1     -35.703  38.073 -51.876  1.00  0.00     0.014 A 
HETATM   24  C   UNL     1     -35.620  37.006 -50.977  1.00  0.00     0.001 A 
HETATM   25  C   UNL     1     -35.449  37.251 -49.616  1.00  0.00     0.000 A 
HETATM   26  C   UNL     1     -35.373  38.562 -49.149  1.00  0.00     0.001 A 
HETATM   27  C   UNL     1     -35.456  39.629 -50.047  1.00  0.00     0.014 A 
ENDBRANCH   1  22
TORSDOF 3
ENDMDL
MODEL 9
REMARK VINA RESULT:      -6.6     15.312     17.229
REMARK  3 active torsions:
REMARK  status: ('A' for Active; 'I' for Inactive)
REMARK    1  A    between atoms: C_4  and  C_5 
REMARK    2  A    between atoms: C_11  and  C_12 
REMARK    3  A    between atoms: C_21  and  N_22 
ROOT
HETATM    1  C   UNL     1     -37.637  40.930 -55.671  1.00  0.00     0.098 A 
HETATM    2  N   UNL     1     -38.721  41.328 -54.974  1.00  0.00    -0.172 NA
HETATM    3  N   UNL     1     -38.348  41.254 -53.684  1.00  0.00    -0.256 N 
HETATM    4  H   UNL     1     -38.993  41.567 -52.968  1.00  0.00     0.191 HD
HETATM    5  C   UNL     1     -37.080  40.800 -53.533  1.00  0.00     0.175 A 
HETATM    6  C   UNL     1     -36.610  40.499 -54.783  1.00  0.00     0.036 A 
HETATM    7  C   UNL     1     -35.236  39.919 -54.937  1.00  0.00     0.077 C 
HETATM    8  C   UNL     1     -34.424  40.319 -53.673  1.00  0.00     0.076 C 
HETATM    9  C   UNL     1     -33.004  40.376 -53.787  1.00  0.00     0.100 C 
HETATM   10  N   UNL     1     -31.848  40.404 -53.878  1.00  0.00    -0.192 NA
HETATM   11  C   UNL     1     -35.024  40.662 -52.497  1.00  0.00     0.140 C 
HETATM   12  O   UNL     1     -36.423  40.752 -52.382  1.00  0.00    -0.279 OA
ENDROOT
BRANCH   7  13
HETATM   13  C   UNL     1     -35.222  38.349 -55.077  1.00  0.00     0.003 C 
HETATM   14  C   UNL     1     -36.237  37.739 -56.074  1.00  0.00     0.032 C 
HETATM   15  C   UNL     1     -35.807  37.826 -57.507  1.00  0.00    -0.030 C 
HETATM   16  C   UNL     1     -34.537  38.047 -57.876  1.00  0.00    -0.031 C 
HETATM   17  C   UNL     1     -33.414  38.185 -56.894  1.00  0.00     0.027 C 
HETATM   18  C   UNL     1     -33.823  37.806 -55.465  1.00  0.00     0.009 C 
ENDBRANCH   7  13
BRANCH  11  19
HETATM   19  N   UNL     1     -34.374  40.982 -51.327  1.00  0.00    -0.282 NA
HETATM   20  H   UNL     1     -34.575  40.378 -50.534  1.00  0.00     0.126 HD
HETATM   21  H   UNL     1     -34.451  41.972 -51.105  1.00  0.00     0.126 HD
ENDBRANCH  11  19
BRANCH   1  22
HETATM   22  C   UNL     1     -37.635  40.973 -57.131  1.00  0.00    -0.005 A 
HETATM   23  C   UNL     1     -36.938  41.972 -57.823  1.00  0.00     0.014 A 
HETATM   24  C   UNL     1     -36.928  41.991 -59.221  1.00  0.00     0.001 A 
HETATM   25  C   UNL     1     -37.624  41.019 -59.937  1.00  0.00     0.000 A 
HETATM   26  C   UNL     1     -38.340  40.034 -59.260  1.00  0.00     0.001 A 
HETATM   27  C   UNL     1     -38.350  40.014 -57.862  1.00  0.00     0.014 A 
ENDBRANCH   1  22
TORSDOF 3
ENDMDL
MODEL 10
REMARK VINA RESULT:      -6.6      2.680      4.305
REMARK  3 active torsions:
REMARK  status: ('A' for Active; 'I' for Inactive)
REMARK    1  A    between atoms: C_4  and  C_5 
REMARK    2  A    between atoms: C_11  and  C_12 
REMARK    3  A    between atoms: C_21  and  N_22 
ROOT
HETATM    1  C   UNL     1     -42.788  55.218 -54.293  1.00  0.00     0.098 A 
HETATM    2  N   UNL     1     -42.999  54.004 -54.842  1.00  0.00    -0.172 NA
HETATM    3  N   UNL     1     -43.207  54.249 -56.149  1.00  0.00    -0.256 N 
HETATM    4  H   UNL     1     -43.330  53.467 -56.781  1.00  0.00     0.191 HD
HETATM    5  C   UNL     1     -43.162  55.570 -56.446  1.00  0.00     0.175 A 
HETATM    6  C   UNL     1     -42.977  56.241 -55.266  1.00  0.00     0.036 A 
HETATM    7  C   UNL     1     -42.938  57.739 -55.265  1.00  0.00     0.077 C 
HETATM    8  C   UNL     1     -42.547  58.191 -56.700  1.00  0.00     0.076 C 
HETATM    9  C   UNL     1     -41.927  59.465 -56.850  1.00  0.00     0.100 C 
HETATM   10  N   UNL     1     -41.440  60.511 -56.970  1.00  0.00    -0.192 NA
HETATM   11  C   UNL     1     -42.727  57.393 -57.792  1.00  0.00     0.140 C 
HETATM   12  O   UNL     1     -43.207  56.076 -57.671  1.00  0.00    -0.279 OA
ENDROOT
BRANCH   7  13
HETATM   13  C   UNL     1     -44.310  58.410 -54.875  1.00  0.00     0.003 C 
HETATM   14  C   UNL     1     -45.165  57.664 -53.822  1.00  0.00     0.032 C 
HETATM   15  C   UNL     1     -44.712  57.879 -52.410  1.00  0.00    -0.030 C 
HETATM   16  C   UNL     1     -43.912  58.892 -52.046  1.00  0.00    -0.031 C 
HETATM   17  C   UNL     1     -43.427  59.935 -53.007  1.00  0.00     0.027 C 
HETATM   18  C   UNL     1     -44.132  59.863 -54.367  1.00  0.00     0.009 C 
ENDBRANCH   7  13
BRANCH  11  19
HETATM   19  N   UNL     1     -42.449  57.738 -59.094  1.00  0.00    -0.282 NA
HETATM   20  H   UNL     1     -41.849  57.092 -59.602  1.00  0.00     0.126 HD
HETATM   21  H   UNL     1     -42.154  58.708 -59.179  1.00  0.00     0.126 HD
ENDBRANCH  11  19
BRANCH   1  22
HETATM   22  C   UNL     1     -42.427  55.343 -52.883  1.00  0.00    -0.005 A 
HETATM   23  C   UNL     1     -41.414  56.219 -52.471  1.00  0.00     0.014 A 
HETATM   24  C   UNL     1     -41.091  56.343 -51.117  1.00  0.00     0.001 A 
HETATM   25  C   UNL     1     -41.770  55.585 -50.165  1.00  0.00     0.000 A 
HETATM   26  C   UNL     1     -42.764  54.693 -50.564  1.00  0.00     0.001 A 
HETATM   27  C   UNL     1     -43.087  54.569 -51.918  1.00  0.00     0.014 A 
ENDBRANCH   1  22
TORSDOF 3
ENDMDL
