MODEL 1
REMARK VINA RESULT:      -8.3      0.000      0.000
REMARK  5 active torsions:
REMARK  status: ('A' for Active; 'I' for Inactive)
REMARK    1  A    between atoms: C_11  and  N_12 
REMARK       I    between atoms: N_12  and  C_13 
REMARK       I    between atoms: C_13  and  N_14 
REMARK    2  A    between atoms: N_14  and  C_15 
REMARK    3  A    between atoms: C_15  and  C_16 
REMARK    4  A    between atoms: C_16  and  N_17 
REMARK    5  A    between atoms: C_16  and  C_21 
ROOT
HETATM    1  N   UNL     1     -41.348  57.090 -53.558  1.00  0.00    -0.314 N 
HETATM    2  C   UNL     1     -42.105  57.470 -54.616  1.00  0.00     0.298 C 
HETATM    3  N   UNL     1     -42.691  56.512 -55.381  1.00  0.00    -0.242 NA
HETATM    4  O   UNL     1     -42.284  58.667 -54.828  1.00  0.00    -0.254 OA
HETATM    5  H   UNL     1     -40.909  57.904 -53.134  1.00  0.00     0.170 HD
HETATM    6  H   UNL     1     -42.045  55.749 -55.545  1.00  0.00     0.132 HD
ENDROOT
BRANCH   1   7
HETATM    7  C   UNL     1     -41.137  55.876 -52.872  1.00  0.00     0.038 A 
HETATM    8  C   UNL     1     -41.200  55.699 -51.495  1.00  0.00     0.032 A 
HETATM    9  C   UNL     1     -40.913  54.450 -50.930  1.00  0.00     0.036 A 
HETATM   10  C   UNL     1     -40.543  53.367 -51.712  1.00  0.00     0.086 A 
HETATM   11  N   UNL     1     -40.242  52.198 -51.124  1.00  0.00    -0.250 NA
HETATM   12  C   UNL     1     -40.476  53.531 -53.108  1.00  0.00     0.088 A 
HETATM   13  C   UNL     1     -39.862  51.177 -51.934  1.00  0.00     0.055 A 
HETATM   14  C   UNL     1     -39.511  49.884 -51.261  1.00  0.00     0.072 C 
HETATM   15  C   UNL     1     -39.790  51.338 -53.319  1.00  0.00     0.055 A 
HETATM   16  N   UNL     1     -40.102  52.520 -53.910  1.00  0.00    -0.250 NA
HETATM   17  C   UNL     1     -39.355  50.228 -54.227  1.00  0.00     0.072 C 
HETATM   18  C   UNL     1     -40.782  54.772 -53.660  1.00  0.00     0.063 A 
ENDBRANCH   1   7
BRANCH   3  19
HETATM   19  C   UNL     1     -43.474  56.885 -56.559  1.00  0.00     0.135 C 
BRANCH  19  20
HETATM   20  C   UNL     1     -42.901  56.537 -57.969  1.00  0.00     0.240 C 
BRANCH  20  21
HETATM   21  N   UNL     1     -41.963  57.560 -58.605  1.00  0.00    -0.069 N 
HETATM   22  H   UNL     1     -41.048  57.307 -58.210  1.00  0.00     0.279 HD
HETATM   23  C   UNL     1     -41.756  57.484 -60.087  1.00  0.00     0.270 C 
HETATM   24  C   UNL     1     -42.213  58.969 -58.149  1.00  0.00     0.270 C 
ENDBRANCH  20  21
BRANCH  20  25
HETATM   25  C   UNL     1     -43.948  56.053 -58.955  1.00  0.00     0.014 A 
HETATM   26  S   UNL     1     -45.299  57.067 -59.293  1.00  0.00    -0.104 SA
HETATM   27  C   UNL     1     -45.970  55.935 -60.379  1.00  0.00     0.050 A 
HETATM   28  C   UNL     1     -45.202  54.798 -60.477  1.00  0.00     0.008 A 
HETATM   29  C   UNL     1     -44.042  54.864 -59.655  1.00  0.00     0.017 A 
ENDBRANCH  20  25
ENDBRANCH  19  20
ENDBRANCH   3  19
TORSDOF 5
ENDMDL
MODEL 2
REMARK VINA RESULT:      -7.9      3.142      3.768
REMARK  5 active torsions:
REMARK  status: ('A' for Active; 'I' for Inactive)
REMARK    1  A    between atoms: C_11  and  N_12 
REMARK       I    between atoms: N_12  and  C_13 
REMARK       I    between atoms: C_13  and  N_14 
REMARK    2  A    between atoms: N_14  and  C_15 
REMARK    3  A    between atoms: C_15  and  C_16 
REMARK    4  A    between atoms: C_16  and  N_17 
REMARK    5  A    between atoms: C_16  and  C_21 
ROOT
HETATM    1  N   UNL     1     -41.521  57.189 -49.996  1.00  0.00    -0.314 N 
HETATM    2  C   UNL     1     -41.497  58.146 -50.955  1.00  0.00     0.298 C 
HETATM    3  N   UNL     1     -40.905  57.866 -52.147  1.00  0.00    -0.242 NA
HETATM    4  O   UNL     1     -42.052  59.222 -50.745  1.00  0.00    -0.254 OA
HETATM    5  H   UNL     1     -41.917  57.567 -49.138  1.00  0.00     0.170 HD
HETATM    6  H   UNL     1     -40.040  57.360 -51.999  1.00  0.00     0.132 HD
ENDROOT
BRANCH   1   7
HETATM    7  C   UNL     1     -41.238  55.808 -49.963  1.00  0.00     0.038 A 
HETATM    8  C   UNL     1     -41.110  55.032 -48.818  1.00  0.00     0.032 A 
HETATM    9  C   UNL     1     -40.769  53.677 -48.917  1.00  0.00     0.036 A 
HETATM   10  C   UNL     1     -40.530  53.077 -50.144  1.00  0.00     0.086 A 
HETATM   11  N   UNL     1     -40.170  51.784 -50.190  1.00  0.00    -0.250 NA
HETATM   12  C   UNL     1     -40.655  53.851 -51.313  1.00  0.00     0.088 A 
HETATM   13  C   UNL     1     -39.924  51.252 -51.414  1.00  0.00     0.055 A 
HETATM   14  C   UNL     1     -39.505  49.813 -51.446  1.00  0.00     0.072 C 
HETATM   15  C   UNL     1     -40.043  52.018 -52.575  1.00  0.00     0.055 A 
HETATM   16  N   UNL     1     -40.414  53.324 -52.524  1.00  0.00    -0.250 NA
HETATM   17  C   UNL     1     -39.758  51.455 -53.934  1.00  0.00     0.072 C 
HETATM   18  C   UNL     1     -41.014  55.191 -51.202  1.00  0.00     0.063 A 
ENDBRANCH   1   7
BRANCH   3  19
HETATM   19  C   UNL     1     -40.817  58.892 -53.186  1.00  0.00     0.135 C 
BRANCH  19  20
HETATM   20  C   UNL     1     -41.573  58.650 -54.530  1.00  0.00     0.240 C 
BRANCH  20  21
HETATM   21  N   UNL     1     -42.583  59.712 -54.956  1.00  0.00    -0.069 N 
HETATM   22  H   UNL     1     -43.444  59.167 -55.091  1.00  0.00     0.279 HD
HETATM   23  C   UNL     1     -42.962  60.753 -53.947  1.00  0.00     0.270 C 
HETATM   24  C   UNL     1     -42.287  60.319 -56.297  1.00  0.00     0.270 C 
ENDBRANCH  20  21
BRANCH  20  25
HETATM   25  C   UNL     1     -42.143  57.251 -54.670  1.00  0.00     0.014 A 
HETATM   26  S   UNL     1     -43.758  56.959 -54.146  1.00  0.00    -0.104 SA
HETATM   27  C   UNL     1     -43.678  55.310 -54.578  1.00  0.00     0.050 A 
HETATM   28  C   UNL     1     -42.448  54.972 -55.093  1.00  0.00     0.008 A 
HETATM   29  C   UNL     1     -41.565  56.087 -55.142  1.00  0.00     0.017 A 
ENDBRANCH  20  25
ENDBRANCH  19  20
ENDBRANCH   3  19
TORSDOF 5
ENDMDL
MODEL 3
REMARK VINA RESULT:      -7.6      1.135      2.036
REMARK  5 active torsions:
REMARK  status: ('A' for Active; 'I' for Inactive)
REMARK    1  A    between atoms: C_11  and  N_12 
REMARK       I    between atoms: N_12  and  C_13 
REMARK       I    between atoms: C_13  and  N_14 
REMARK    2  A    between atoms: N_14  and  C_15 
REMARK    3  A    between atoms: C_15  and  C_16 
REMARK    4  A    between atoms: C_16  and  N_17 
REMARK    5  A    between atoms: C_16  and  C_21 
ROOT
HETATM    1  N   UNL     1     -41.459  56.791 -53.950  1.00  0.00    -0.314 N 
HETATM    2  C   UNL     1     -42.298  57.518 -54.727  1.00  0.00     0.298 C 
HETATM    3  N   UNL     1     -42.671  57.019 -55.935  1.00  0.00    -0.242 NA
HETATM    4  O   UNL     1     -42.739  58.583 -54.302  1.00  0.00    -0.254 OA
HETATM    5  H   UNL     1     -41.204  57.323 -53.121  1.00  0.00     0.170 HD
HETATM    6  H   UNL     1     -41.875  56.603 -56.404  1.00  0.00     0.132 HD
ENDROOT
BRANCH   1   7
HETATM    7  C   UNL     1     -40.975  55.466 -53.978  1.00  0.00     0.038 A 
HETATM    8  C   UNL     1     -40.602  54.762 -55.116  1.00  0.00     0.032 A 
HETATM    9  C   UNL     1     -40.190  53.427 -55.017  1.00  0.00     0.036 A 
HETATM   10  C   UNL     1     -40.160  52.765 -53.800  1.00  0.00     0.086 A 
HETATM   11  N   UNL     1     -39.794  51.474 -53.757  1.00  0.00    -0.250 NA
HETATM   12  C   UNL     1     -40.536  53.466 -52.638  1.00  0.00     0.088 A 
HETATM   13  C   UNL     1     -39.805  50.866 -52.543  1.00  0.00     0.055 A 
HETATM   14  C   UNL     1     -39.411  49.421 -52.515  1.00  0.00     0.072 C 
HETATM   15  C   UNL     1     -40.181  51.557 -51.390  1.00  0.00     0.055 A 
HETATM   16  N   UNL     1     -40.544  52.865 -51.437  1.00  0.00    -0.250 NA
HETATM   17  C   UNL     1     -40.218  50.899 -50.044  1.00  0.00     0.072 C 
HETATM   18  C   UNL     1     -40.924  54.798 -52.747  1.00  0.00     0.063 A 
ENDBRANCH   1   7
BRANCH   3  19
HETATM   19  C   UNL     1     -43.536  57.799 -56.820  1.00  0.00     0.135 C 
BRANCH  19  20
HETATM   20  C   UNL     1     -43.232  57.786 -58.352  1.00  0.00     0.240 C 
BRANCH  20  21
HETATM   21  N   UNL     1     -43.285  59.127 -59.079  1.00  0.00    -0.069 N 
HETATM   22  H   UNL     1     -44.241  59.144 -59.456  1.00  0.00     0.279 HD
HETATM   23  C   UNL     1     -43.196  60.370 -58.248  1.00  0.00     0.270 C 
HETATM   24  C   UNL     1     -42.386  59.194 -60.279  1.00  0.00     0.270 C 
ENDBRANCH  20  21
BRANCH  20  25
HETATM   25  C   UNL     1     -43.979  56.708 -59.115  1.00  0.00     0.014 A 
HETATM   26  S   UNL     1     -45.570  57.045 -59.681  1.00  0.00    -0.104 SA
HETATM   27  C   UNL     1     -45.735  55.492 -60.368  1.00  0.00     0.050 A 
HETATM   28  C   UNL     1     -44.617  54.717 -60.162  1.00  0.00     0.008 A 
HETATM   29  C   UNL     1     -43.610  55.415 -59.438  1.00  0.00     0.017 A 
ENDBRANCH  20  25
ENDBRANCH  19  20
ENDBRANCH   3  19
TORSDOF 5
ENDMDL
MODEL 4
REMARK VINA RESULT:      -7.6      1.742      2.130
REMARK  5 active torsions:
REMARK  status: ('A' for Active; 'I' for Inactive)
REMARK    1  A    between atoms: C_11  and  N_12 
REMARK       I    between atoms: N_12  and  C_13 
REMARK       I    between atoms: C_13  and  N_14 
REMARK    2  A    between atoms: N_14  and  C_15 
REMARK    3  A    between atoms: C_15  and  C_16 
REMARK    4  A    between atoms: C_16  and  N_17 
REMARK    5  A    between atoms: C_16  and  C_21 
ROOT
HETATM    1  N   UNL     1     -44.791  56.662 -54.310  1.00  0.00    -0.314 N 
HETATM    2  C   UNL     1     -44.752  57.462 -55.404  1.00  0.00     0.298 C 
HETATM    3  N   UNL     1     -43.545  57.876 -55.872  1.00  0.00    -0.242 NA
HETATM    4  O   UNL     1     -45.802  57.752 -55.974  1.00  0.00    -0.254 OA
HETATM    5  H   UNL     1     -45.756  56.505 -54.029  1.00  0.00     0.170 HD
HETATM    6  H   UNL     1     -42.943  58.142 -55.102  1.00  0.00     0.132 HD
ENDROOT
BRANCH   1   7
HETATM    7  C   UNL     1     -43.831  55.935 -53.577  1.00  0.00     0.038 A 
HETATM    8  C   UNL     1     -43.338  56.274 -52.324  1.00  0.00     0.032 A 
HETATM    9  C   UNL     1     -42.339  55.496 -51.723  1.00  0.00     0.036 A 
HETATM   10  C   UNL     1     -41.802  54.388 -52.359  1.00  0.00     0.086 A 
HETATM   11  N   UNL     1     -40.821  53.693 -51.762  1.00  0.00    -0.250 NA
HETATM   12  C   UNL     1     -42.292  54.032 -53.630  1.00  0.00     0.088 A 
HETATM   13  C   UNL     1     -40.313  52.631 -52.439  1.00  0.00     0.055 A 
HETATM   14  C   UNL     1     -39.206  51.877 -51.766  1.00  0.00     0.072 C 
HETATM   15  C   UNL     1     -40.793  52.279 -53.701  1.00  0.00     0.055 A 
HETATM   16  N   UNL     1     -41.791  52.980 -54.298  1.00  0.00    -0.250 NA
HETATM   17  C   UNL     1     -40.233  51.122 -54.472  1.00  0.00     0.072 C 
HETATM   18  C   UNL     1     -43.298  54.801 -54.208  1.00  0.00     0.063 A 
ENDBRANCH   1   7
BRANCH   3  19
HETATM   19  C   UNL     1     -43.469  58.780 -57.020  1.00  0.00     0.135 C 
BRANCH  19  20
HETATM   20  C   UNL     1     -42.861  58.236 -58.351  1.00  0.00     0.240 C 
BRANCH  20  21
HETATM   21  N   UNL     1     -42.538  59.262 -59.433  1.00  0.00    -0.069 N 
HETATM   22  H   UNL     1     -43.469  59.551 -59.759  1.00  0.00     0.279 HD
HETATM   23  C   UNL     1     -41.887  60.542 -59.003  1.00  0.00     0.270 C 
HETATM   24  C   UNL     1     -41.863  58.673 -60.637  1.00  0.00     0.270 C 
ENDBRANCH  20  21
BRANCH  20  25
HETATM   25  C   UNL     1     -43.602  57.041 -58.920  1.00  0.00     0.014 A 
HETATM   26  S   UNL     1     -45.192  57.271 -59.541  1.00  0.00    -0.104 SA
HETATM   27  C   UNL     1     -45.351  55.623 -59.951  1.00  0.00     0.050 A 
HETATM   28  C   UNL     1     -44.232  54.897 -59.610  1.00  0.00     0.008 A 
HETATM   29  C   UNL     1     -43.229  55.713 -59.013  1.00  0.00     0.017 A 
ENDBRANCH  20  25
ENDBRANCH  19  20
ENDBRANCH   3  19
TORSDOF 5
ENDMDL
MODEL 5
REMARK VINA RESULT:      -7.4      2.909      4.624
REMARK  5 active torsions:
REMARK  status: ('A' for Active; 'I' for Inactive)
REMARK    1  A    between atoms: C_11  and  N_12 
REMARK       I    between atoms: N_12  and  C_13 
REMARK       I    between atoms: C_13  and  N_14 
REMARK    2  A    between atoms: N_14  and  C_15 
REMARK    3  A    between atoms: C_15  and  C_16 
REMARK    4  A    between atoms: C_16  and  N_17 
REMARK    5  A    between atoms: C_16  and  C_21 
ROOT
HETATM    1  N   UNL     1     -41.633  56.047 -55.751  1.00  0.00    -0.314 N 
HETATM    2  C   UNL     1     -42.622  56.943 -55.990  1.00  0.00     0.298 C 
HETATM    3  N   UNL     1     -43.704  56.961 -55.168  1.00  0.00    -0.242 NA
HETATM    4  O   UNL     1     -42.495  57.746 -56.911  1.00  0.00    -0.254 OA
HETATM    5  H   UNL     1     -40.936  56.093 -56.490  1.00  0.00     0.170 HD
HETATM    6  H   UNL     1     -43.999  56.015 -54.954  1.00  0.00     0.132 HD
ENDROOT
BRANCH   1   7
HETATM    7  C   UNL     1     -41.312  55.183 -54.683  1.00  0.00     0.038 A 
HETATM    8  C   UNL     1     -41.248  55.539 -53.342  1.00  0.00     0.032 A 
HETATM    9  C   UNL     1     -40.860  54.597 -52.380  1.00  0.00     0.036 A 
HETATM   10  C   UNL     1     -40.512  53.303 -52.730  1.00  0.00     0.086 A 
HETATM   11  N   UNL     1     -40.110  52.444 -51.779  1.00  0.00    -0.250 NA
HETATM   12  C   UNL     1     -40.572  52.928 -54.086  1.00  0.00     0.088 A 
HETATM   13  C   UNL     1     -39.757  51.196 -52.179  1.00  0.00     0.055 A 
HETATM   14  C   UNL     1     -39.295  50.256 -51.107  1.00  0.00     0.072 C 
HETATM   15  C   UNL     1     -39.812  50.823 -53.523  1.00  0.00     0.055 A 
HETATM   16  N   UNL     1     -40.225  51.692 -54.481  1.00  0.00    -0.250 NA
HETATM   17  C   UNL     1     -39.409  49.456 -53.987  1.00  0.00     0.072 C 
HETATM   18  C   UNL     1     -40.978  53.866 -55.030  1.00  0.00     0.063 A 
ENDBRANCH   1   7
BRANCH   3  19
HETATM   19  C   UNL     1     -44.812  57.880 -55.426  1.00  0.00     0.135 C 
BRANCH  19  20
HETATM   20  C   UNL     1     -45.135  58.970 -54.356  1.00  0.00     0.240 C 
BRANCH  20  21
HETATM   21  N   UNL     1     -45.798  60.252 -54.853  1.00  0.00    -0.069 N 
HETATM   22  H   UNL     1     -46.748  59.939 -55.091  1.00  0.00     0.279 HD
HETATM   23  C   UNL     1     -46.014  61.352 -53.858  1.00  0.00     0.270 C 
HETATM   24  C   UNL     1     -45.219  60.769 -56.137  1.00  0.00     0.270 C 
ENDBRANCH  20  21
BRANCH  20  25
HETATM   25  C   UNL     1     -43.981  59.268 -53.417  1.00  0.00     0.014 A 
HETATM   26  S   UNL     1     -44.102  58.770 -51.772  1.00  0.00    -0.104 SA
HETATM   27  C   UNL     1     -42.568  59.409 -51.389  1.00  0.00     0.050 A 
HETATM   28  C   UNL     1     -41.973  60.008 -52.475  1.00  0.00     0.008 A 
HETATM   29  C   UNL     1     -42.788  59.930 -53.640  1.00  0.00     0.017 A 
ENDBRANCH  20  25
ENDBRANCH  19  20
ENDBRANCH   3  19
TORSDOF 5
ENDMDL
MODEL 6
REMARK VINA RESULT:      -7.4      2.572      4.238
REMARK  5 active torsions:
REMARK  status: ('A' for Active; 'I' for Inactive)
REMARK    1  A    between atoms: C_11  and  N_12 
REMARK       I    between atoms: N_12  and  C_13 
REMARK       I    between atoms: C_13  and  N_14 
REMARK    2  A    between atoms: N_14  and  C_15 
REMARK    3  A    between atoms: C_15  and  C_16 
REMARK    4  A    between atoms: C_16  and  N_17 
REMARK    5  A    between atoms: C_16  and  C_21 
ROOT
HETATM    1  N   UNL     1     -43.292  55.055 -56.880  1.00  0.00    -0.314 N 
HETATM    2  C   UNL     1     -43.031  55.880 -57.922  1.00  0.00     0.298 C 
HETATM    3  N   UNL     1     -42.439  57.079 -57.678  1.00  0.00    -0.242 NA
HETATM    4  O   UNL     1     -43.289  55.507 -59.064  1.00  0.00    -0.254 OA
HETATM    5  H   UNL     1     -43.808  54.240 -57.202  1.00  0.00     0.170 HD
HETATM    6  H   UNL     1     -42.846  57.511 -56.856  1.00  0.00     0.132 HD
ENDROOT
BRANCH   1   7
HETATM    7  C   UNL     1     -42.917  55.022 -55.520  1.00  0.00     0.038 A 
HETATM    8  C   UNL     1     -43.254  55.969 -54.562  1.00  0.00     0.032 A 
HETATM    9  C   UNL     1     -42.770  55.852 -53.252  1.00  0.00     0.036 A 
HETATM   10  C   UNL     1     -41.933  54.813 -52.878  1.00  0.00     0.086 A 
HETATM   11  N   UNL     1     -41.463  54.761 -51.622  1.00  0.00    -0.250 NA
HETATM   12  C   UNL     1     -41.583  53.846 -53.839  1.00  0.00     0.088 A 
HETATM   13  C   UNL     1     -40.627  53.736 -51.314  1.00  0.00     0.055 A 
HETATM   14  C   UNL     1     -40.097  53.702 -49.913  1.00  0.00     0.072 C 
HETATM   15  C   UNL     1     -40.275  52.778 -52.266  1.00  0.00     0.055 A 
HETATM   16  N   UNL     1     -40.758  52.830 -53.534  1.00  0.00    -0.250 NA
HETATM   17  C   UNL     1     -39.339  51.650 -51.952  1.00  0.00     0.072 C 
HETATM   18  C   UNL     1     -42.086  53.962 -55.132  1.00  0.00     0.063 A 
ENDBRANCH   1   7
BRANCH   3  19
HETATM   19  C   UNL     1     -42.188  58.016 -58.774  1.00  0.00     0.135 C 
BRANCH  19  20
HETATM   20  C   UNL     1     -42.872  59.418 -58.719  1.00  0.00     0.240 C 
BRANCH  20  21
HETATM   21  N   UNL     1     -44.168  59.586 -59.508  1.00  0.00    -0.069 N 
HETATM   22  H   UNL     1     -43.906  60.261 -60.237  1.00  0.00     0.279 HD
HETATM   23  C   UNL     1     -44.674  58.400 -60.271  1.00  0.00     0.270 C 
HETATM   24  C   UNL     1     -45.263  60.254 -58.727  1.00  0.00     0.270 C 
ENDBRANCH  20  21
BRANCH  20  25
HETATM   25  C   UNL     1     -41.920  60.574 -58.960  1.00  0.00     0.014 A 
HETATM   26  S   UNL     1     -41.705  61.149 -60.569  1.00  0.00    -0.104 SA
HETATM   27  C   UNL     1     -40.585  62.337 -60.074  1.00  0.00     0.050 A 
HETATM   28  C   UNL     1     -40.355  62.296 -58.719  1.00  0.00     0.008 A 
HETATM   29  C   UNL     1     -41.120  61.279 -58.079  1.00  0.00     0.017 A 
ENDBRANCH  20  25
ENDBRANCH  19  20
ENDBRANCH   3  19
TORSDOF 5
ENDMDL
MODEL 7
REMARK VINA RESULT:      -7.4     14.929     17.757
REMARK  5 active torsions:
REMARK  status: ('A' for Active; 'I' for Inactive)
REMARK    1  A    between atoms: C_11  and  N_12 
REMARK       I    between atoms: N_12  and  C_13 
REMARK       I    between atoms: C_13  and  N_14 
REMARK    2  A    between atoms: N_14  and  C_15 
REMARK    3  A    between atoms: C_15  and  C_16 
REMARK    4  A    between atoms: C_16  and  N_17 
REMARK    5  A    between atoms: C_16  and  C_21 
ROOT
HETATM    1  N   UNL     1     -37.786  41.486 -55.232  1.00  0.00    -0.314 N 
HETATM    2  C   UNL     1     -37.131  41.128 -54.100  1.00  0.00     0.298 C 
HETATM    3  N   UNL     1     -36.165  40.174 -54.175  1.00  0.00    -0.242 NA
HETATM    4  O   UNL     1     -37.390  41.705 -53.047  1.00  0.00    -0.254 OA
HETATM    5  H   UNL     1     -38.531  42.141 -55.009  1.00  0.00     0.170 HD
HETATM    6  H   UNL     1     -36.465  39.416 -54.777  1.00  0.00     0.132 HD
ENDROOT
BRANCH   1   7
HETATM    7  C   UNL     1     -37.592  41.250 -56.609  1.00  0.00     0.038 A 
HETATM    8  C   UNL     1     -37.054  42.150 -57.519  1.00  0.00     0.032 A 
HETATM    9  C   UNL     1     -36.967  41.815 -58.877  1.00  0.00     0.036 A 
HETATM   10  C   UNL     1     -37.427  40.598 -59.354  1.00  0.00     0.086 A 
HETATM   11  N   UNL     1     -37.358  40.333 -60.669  1.00  0.00    -0.250 NA
HETATM   12  C   UNL     1     -37.975  39.676 -58.443  1.00  0.00     0.088 A 
HETATM   13  C   UNL     1     -37.844  39.137 -61.087  1.00  0.00     0.055 A 
HETATM   14  C   UNL     1     -37.775  38.865 -62.559  1.00  0.00     0.072 C 
HETATM   15  C   UNL     1     -38.392  38.222 -60.187  1.00  0.00     0.055 A 
HETATM   16  N   UNL     1     -38.454  38.491 -58.857  1.00  0.00    -0.250 NA
HETATM   17  C   UNL     1     -38.951  36.904 -60.631  1.00  0.00     0.072 C 
HETATM   18  C   UNL     1     -38.038  40.012 -57.094  1.00  0.00     0.063 A 
ENDBRANCH   1   7
BRANCH   3  19
HETATM   19  C   UNL     1     -35.473  39.728 -52.966  1.00  0.00     0.135 C 
BRANCH  19  20
HETATM   20  C   UNL     1     -33.913  39.770 -52.947  1.00  0.00     0.240 C 
BRANCH  20  21
HETATM   21  N   UNL     1     -33.262  40.899 -52.152  1.00  0.00    -0.069 N 
HETATM   22  H   UNL     1     -33.009  41.577 -52.883  1.00  0.00     0.279 HD
HETATM   23  C   UNL     1     -34.132  41.679 -51.214  1.00  0.00     0.270 C 
HETATM   24  C   UNL     1     -31.962  40.509 -51.510  1.00  0.00     0.270 C 
ENDBRANCH  20  21
BRANCH  20  25
HETATM   25  C   UNL     1     -33.279  39.616 -54.317  1.00  0.00     0.014 A 
HETATM   26  S   UNL     1     -33.109  38.034 -54.977  1.00  0.00    -0.104 SA
HETATM   27  C   UNL     1     -32.373  38.625 -56.397  1.00  0.00     0.050 A 
HETATM   28  C   UNL     1     -32.236  39.994 -56.375  1.00  0.00     0.008 A 
HETATM   29  C   UNL     1     -32.753  40.562 -55.176  1.00  0.00     0.017 A 
ENDBRANCH  20  25
ENDBRANCH  19  20
ENDBRANCH   3  19
TORSDOF 5
ENDMDL
MODEL 8
REMARK VINA RESULT:      -7.3      2.229      3.167
REMARK  5 active torsions:
REMARK  status: ('A' for Active; 'I' for Inactive)
REMARK    1  A    between atoms: C_11  and  N_12 
REMARK       I    between atoms: N_12  and  C_13 
REMARK       I    between atoms: C_13  and  N_14 
REMARK    2  A    between atoms: N_14  and  C_15 
REMARK    3  A    between atoms: C_15  and  C_16 
REMARK    4  A    between atoms: C_16  and  N_17 
REMARK    5  A    between atoms: C_16  and  C_21 
ROOT
HETATM    1  N   UNL     1     -43.313  54.975 -56.781  1.00  0.00    -0.314 N 
HETATM    2  C   UNL     1     -43.093  55.744 -57.875  1.00  0.00     0.298 C 
HETATM    3  N   UNL     1     -42.488  56.951 -57.718  1.00  0.00    -0.242 NA
HETATM    4  O   UNL     1     -43.400  55.313 -58.984  1.00  0.00    -0.254 OA
HETATM    5  H   UNL     1     -43.845  54.148 -57.039  1.00  0.00     0.170 HD
HETATM    6  H   UNL     1     -42.858  57.427 -56.904  1.00  0.00     0.132 HD
ENDROOT
BRANCH   1   7
HETATM    7  C   UNL     1     -42.882  55.011 -55.438  1.00  0.00     0.038 A 
HETATM    8  C   UNL     1     -43.116  56.042 -54.537  1.00  0.00     0.032 A 
HETATM    9  C   UNL     1     -42.583  55.983 -53.243  1.00  0.00     0.036 A 
HETATM   10  C   UNL     1     -41.799  54.918 -52.828  1.00  0.00     0.086 A 
HETATM   11  N   UNL     1     -41.278  54.921 -51.591  1.00  0.00    -0.250 NA
HETATM   12  C   UNL     1     -41.554  53.866 -53.731  1.00  0.00     0.088 A 
HETATM   13  C   UNL     1     -40.497  53.866 -51.244  1.00  0.00     0.055 A 
HETATM   14  C   UNL     1     -39.910  53.893 -49.866  1.00  0.00     0.072 C 
HETATM   15  C   UNL     1     -40.249  52.823 -52.138  1.00  0.00     0.055 A 
HETATM   16  N   UNL     1     -40.783  52.821 -53.387  1.00  0.00    -0.250 NA
HETATM   17  C   UNL     1     -39.375  51.659 -51.781  1.00  0.00     0.072 C 
HETATM   18  C   UNL     1     -42.105  53.926 -55.008  1.00  0.00     0.063 A 
ENDBRANCH   1   7
BRANCH   3  19
HETATM   19  C   UNL     1     -42.280  57.828 -58.870  1.00  0.00     0.135 C 
BRANCH  19  20
HETATM   20  C   UNL     1     -43.300  58.984 -59.114  1.00  0.00     0.240 C 
BRANCH  20  21
HETATM   21  N   UNL     1     -42.985  60.331 -58.469  1.00  0.00    -0.069 N 
HETATM   22  H   UNL     1     -43.636  60.360 -57.673  1.00  0.00     0.279 HD
HETATM   23  C   UNL     1     -41.634  60.502 -57.843  1.00  0.00     0.270 C 
HETATM   24  C   UNL     1     -43.355  61.508 -59.325  1.00  0.00     0.270 C 
ENDBRANCH  20  21
BRANCH  20  25
HETATM   25  C   UNL     1     -44.746  58.583 -58.891  1.00  0.00     0.014 A 
HETATM   26  S   UNL     1     -45.480  58.941 -57.374  1.00  0.00    -0.104 SA
HETATM   27  C   UNL     1     -46.962  58.239 -57.842  1.00  0.00     0.050 A 
HETATM   28  C   UNL     1     -46.909  57.723 -59.116  1.00  0.00     0.008 A 
HETATM   29  C   UNL     1     -45.632  57.917 -59.717  1.00  0.00     0.017 A 
ENDBRANCH  20  25
ENDBRANCH  19  20
ENDBRANCH   3  19
TORSDOF 5
ENDMDL
MODEL 9
REMARK VINA RESULT:      -7.3      2.229      3.240
REMARK  5 active torsions:
REMARK  status: ('A' for Active; 'I' for Inactive)
REMARK    1  A    between atoms: C_11  and  N_12 
REMARK       I    between atoms: N_12  and  C_13 
REMARK       I    between atoms: C_13  and  N_14 
REMARK    2  A    between atoms: N_14  and  C_15 
REMARK    3  A    between atoms: C_15  and  C_16 
REMARK    4  A    between atoms: C_16  and  N_17 
REMARK    5  A    between atoms: C_16  and  C_21 
ROOT
HETATM    1  N   UNL     1     -44.678  56.424 -54.636  1.00  0.00    -0.314 N 
HETATM    2  C   UNL     1     -44.781  57.568 -55.355  1.00  0.00     0.298 C 
HETATM    3  N   UNL     1     -43.654  58.116 -55.881  1.00  0.00    -0.242 NA
HETATM    4  O   UNL     1     -45.892  58.055 -55.554  1.00  0.00    -0.254 OA
HETATM    5  H   UNL     1     -45.582  56.181 -54.237  1.00  0.00     0.170 HD
HETATM    6  H   UNL     1     -42.897  58.076 -55.209  1.00  0.00     0.132 HD
ENDROOT
BRANCH   1   7
HETATM    7  C   UNL     1     -43.660  55.470 -54.425  1.00  0.00     0.038 A 
HETATM    8  C   UNL     1     -43.256  54.500 -55.333  1.00  0.00     0.032 A 
HETATM    9  C   UNL     1     -42.268  53.571 -54.981  1.00  0.00     0.036 A 
HETATM   10  C   UNL     1     -41.682  53.576 -53.725  1.00  0.00     0.086 A 
HETATM   11  N   UNL     1     -40.766  52.644 -53.418  1.00  0.00    -0.250 NA
HETATM   12  C   UNL     1     -42.083  54.554 -52.795  1.00  0.00     0.088 A 
HETATM   13  C   UNL     1     -40.241  52.678 -52.167  1.00  0.00     0.055 A 
HETATM   14  C   UNL     1     -39.233  51.620 -51.835  1.00  0.00     0.072 C 
HETATM   15  C   UNL     1     -40.639  53.644 -51.241  1.00  0.00     0.055 A 
HETATM   16  N   UNL     1     -41.561  54.589 -51.557  1.00  0.00    -0.250 NA
HETATM   17  C   UNL     1     -40.086  53.687 -49.848  1.00  0.00     0.072 C 
HETATM   18  C   UNL     1     -43.051  55.483 -53.163  1.00  0.00     0.063 A 
ENDBRANCH   1   7
BRANCH   3  19
HETATM   19  C   UNL     1     -43.721  59.377 -56.620  1.00  0.00     0.135 C 
BRANCH  19  20
HETATM   20  C   UNL     1     -43.911  59.318 -58.168  1.00  0.00     0.240 C 
BRANCH  20  21
HETATM   21  N   UNL     1     -45.193  59.927 -58.731  1.00  0.00    -0.069 N 
HETATM   22  H   UNL     1     -45.772  59.101 -58.925  1.00  0.00     0.279 HD
HETATM   23  C   UNL     1     -46.032  60.754 -57.805  1.00  0.00     0.270 C 
HETATM   24  C   UNL     1     -45.005  60.599 -60.060  1.00  0.00     0.270 C 
ENDBRANCH  20  21
BRANCH  20  25
HETATM   25  C   UNL     1     -43.632  57.954 -58.769  1.00  0.00     0.014 A 
HETATM   26  S   UNL     1     -44.963  56.924 -59.140  1.00  0.00    -0.104 SA
HETATM   27  C   UNL     1     -43.940  55.686 -59.715  1.00  0.00     0.050 A 
HETATM   28  C   UNL     1     -42.611  56.028 -59.616  1.00  0.00     0.008 A 
HETATM   29  C   UNL     1     -42.435  57.330 -59.067  1.00  0.00     0.017 A 
ENDBRANCH  20  25
ENDBRANCH  19  20
ENDBRANCH   3  19
TORSDOF 5
ENDMDL
MODEL 10
REMARK VINA RESULT:      -7.1     14.799     18.174
REMARK  5 active torsions:
REMARK  status: ('A' for Active; 'I' for Inactive)
REMARK    1  A    between atoms: C_11  and  N_12 
REMARK       I    between atoms: N_12  and  C_13 
REMARK       I    between atoms: C_13  and  N_14 
REMARK    2  A    between atoms: N_14  and  C_15 
REMARK    3  A    between atoms: C_15  and  C_16 
REMARK    4  A    between atoms: C_16  and  N_17 
REMARK    5  A    between atoms: C_16  and  C_21 
ROOT
HETATM    1  N   UNL     1     -37.542  41.839 -55.010  1.00  0.00    -0.314 N 
HETATM    2  C   UNL     1     -36.896  41.520 -53.861  1.00  0.00     0.298 C 
HETATM    3  N   UNL     1     -35.989  40.508 -53.877  1.00  0.00    -0.242 NA
HETATM    4  O   UNL     1     -37.110  42.183 -52.848  1.00  0.00    -0.254 OA
HETATM    5  H   UNL     1     -38.245  42.550 -54.827  1.00  0.00     0.170 HD
HETATM    6  H   UNL     1     -36.340  39.730 -54.423  1.00  0.00     0.132 HD
ENDROOT
BRANCH   1   7
HETATM    7  C   UNL     1     -37.378  41.498 -56.369  1.00  0.00     0.038 A 
HETATM    8  C   UNL     1     -36.762  42.284 -57.334  1.00  0.00     0.032 A 
HETATM    9  C   UNL     1     -36.714  41.856 -58.667  1.00  0.00     0.036 A 
HETATM   10  C   UNL     1     -37.287  40.660 -59.067  1.00  0.00     0.086 A 
HETATM   11  N   UNL     1     -37.249  40.307 -60.362  1.00  0.00    -0.250 NA
HETATM   12  C   UNL     1     -37.915  39.853 -58.099  1.00  0.00     0.088 A 
HETATM   13  C   UNL     1     -37.848  39.137 -60.703  1.00  0.00     0.055 A 
HETATM   14  C   UNL     1     -37.812  38.766 -62.155  1.00  0.00     0.072 C 
HETATM   15  C   UNL     1     -38.475  38.337 -59.747  1.00  0.00     0.055 A 
HETATM   16  N   UNL     1     -38.505  38.694 -58.437  1.00  0.00    -0.250 NA
HETATM   17  C   UNL     1     -39.157  37.052 -60.107  1.00  0.00     0.072 C 
HETATM   18  C   UNL     1     -37.940  40.279 -56.774  1.00  0.00     0.063 A 
ENDBRANCH   1   7
BRANCH   3  19
HETATM   19  C   UNL     1     -35.311  40.106 -52.645  1.00  0.00     0.135 C 
BRANCH  19  20
HETATM   20  C   UNL     1     -33.750  40.055 -52.641  1.00  0.00     0.240 C 
BRANCH  20  21
HETATM   21  N   UNL     1     -33.084  39.212 -53.725  1.00  0.00    -0.069 N 
HETATM   22  H   UNL     1     -33.747  39.279 -54.506  1.00  0.00     0.279 HD
HETATM   23  C   UNL     1     -31.792  39.713 -54.297  1.00  0.00     0.270 C 
HETATM   24  C   UNL     1     -33.014  37.750 -53.389  1.00  0.00     0.270 C 
ENDBRANCH  20  21
BRANCH  20  25
HETATM   25  C   UNL     1     -33.149  39.785 -51.275  1.00  0.00     0.014 A 
HETATM   26  S   UNL     1     -34.119  39.010 -50.082  1.00  0.00    -0.104 SA
HETATM   27  C   UNL     1     -32.866  39.060 -48.925  1.00  0.00     0.050 A 
HETATM   28  C   UNL     1     -31.734  39.668 -49.417  1.00  0.00     0.008 A 
HETATM   29  C   UNL     1     -31.899  40.089 -50.767  1.00  0.00     0.017 A 
ENDBRANCH  20  25
ENDBRANCH  19  20
ENDBRANCH   3  19
TORSDOF 5
ENDMDL
