MODEL 1
REMARK VINA RESULT:      -8.1      0.000      0.000
REMARK  11 active torsions:
REMARK  status: ('A' for Active; 'I' for Inactive)
REMARK    1  A    between atoms: C_2  and  O_3 
REMARK    2  A    between atoms: O_3  and  C_4 
REMARK    3  A    between atoms: C_7  and  N_8 
REMARK       I    between atoms: N_8  and  C_9 
REMARK    4  A    between atoms: C_9  and  C_10 
REMARK    5  A    between atoms: C_10  and  C_11 
REMARK    6  A    between atoms: N_12  and  C_13 
REMARK    7  A    between atoms: C_13  and  C_14 
REMARK    8  A    between atoms: C_14  and  C_15 
REMARK    9  A    between atoms: C_15  and  N_16 
REMARK   10  A    between atoms: C_20  and  C_21 
REMARK       I    between atoms: C_21  and  N_22 
REMARK   11  A    between atoms: N_28  and  C_29 
ROOT
HETATM    1  C   UNL     1     -45.195  59.996 -50.274  1.00  0.00     0.188 C 
HETATM    2  N   UNL     1     -45.501  61.216 -51.018  1.00  0.00    -0.344 N 
HETATM    3  C   UNL     1     -45.663  62.307 -50.120  1.00  0.00     0.184 C 
HETATM    4  S   UNL     1     -45.686  63.895 -50.647  1.00  0.00    -0.040 SA
HETATM    5  N   UNL     1     -45.795  61.779 -48.834  1.00  0.00    -0.257 N 
HETATM    6  C   UNL     1     -45.748  60.396 -48.916  1.00  0.00     0.254 C 
HETATM    7  O   UNL     1     -46.125  59.578 -48.086  1.00  0.00    -0.270 OA
ENDROOT
BRANCH   2   8
HETATM    8  C   UNL     1     -45.241  61.301 -52.464  1.00  0.00     0.128 C 
BRANCH   8   9
HETATM    9  C   UNL     1     -43.956  62.058 -52.821  1.00  0.00     0.048 C 
BRANCH   9  10
HETATM   10  C   UNL     1     -42.892  61.276 -53.591  1.00  0.00     0.236 C 
BRANCH  10  11
HETATM   11  N   UNL     1     -42.391  60.037 -52.875  1.00  0.00    -0.071 N 
HETATM   12  H   UNL     1     -43.189  59.397 -52.729  1.00  0.00     0.279 HD
HETATM   13  C   UNL     1     -41.327  59.312 -53.668  1.00  0.00     0.235 C 
HETATM   14  C   UNL     1     -40.839  58.084 -52.911  1.00  0.00     0.042 C 
HETATM   15  C   UNL     1     -40.302  58.440 -51.525  1.00  0.00     0.081 C 
HETATM   16  C   UNL     1     -41.358  59.220 -50.739  1.00  0.00     0.042 C 
HETATM   17  C   UNL     1     -41.905  60.428 -51.488  1.00  0.00     0.235 C 
BRANCH  15  18
HETATM   18  C   UNL     1     -39.006  59.231 -51.655  1.00  0.00     0.219 C 
HETATM   19  N   UNL     1     -38.551  59.806 -50.510  1.00  0.00    -0.370 N 
HETATM   20  H   UNL     1     -39.161  60.013 -49.727  1.00  0.00     0.159 HD
HETATM   21  H   UNL     1     -37.725  60.390 -50.594  1.00  0.00     0.159 HD
HETATM   22  O   UNL     1     -38.348  59.264 -52.687  1.00  0.00    -0.273 OA
ENDBRANCH  15  18
ENDBRANCH  10  11
ENDBRANCH   9  10
ENDBRANCH   8   9
ENDBRANCH   2   8
BRANCH   1  23
HETATM   23  C   UNL     1     -45.825  58.712 -50.789  1.00  0.00     0.138 C 
BRANCH  23  24
HETATM   24  C   UNL     1     -44.782  57.874 -51.507  1.00  0.00     0.224 C 
HETATM   25  N   UNL     1     -44.223  56.909 -50.696  1.00  0.00    -0.327 N 
HETATM   26  H   UNL     1     -44.471  56.926 -49.716  1.00  0.00     0.169 HD
HETATM   27  O   UNL     1     -44.528  58.101 -52.684  1.00  0.00    -0.273 OA
BRANCH  25  28
HETATM   28  C   UNL     1     -43.205  55.991 -51.017  1.00  0.00     0.034 A 
HETATM   29  C   UNL     1     -42.156  55.643 -50.167  1.00  0.00     0.032 A 
HETATM   30  C   UNL     1     -41.197  54.700 -50.569  1.00  0.00     0.039 A 
HETATM   31  C   UNL     1     -41.278  54.104 -51.826  1.00  0.00     0.068 A 
HETATM   32  C   UNL     1     -42.322  54.457 -52.679  1.00  0.00     0.039 A 
HETATM   33  C   UNL     1     -43.279  55.391 -52.280  1.00  0.00     0.032 A 
BRANCH  31  34
HETATM   34  O   UNL     1     -40.419  53.177 -52.344  1.00  0.00    -0.352 OA
BRANCH  34  35
HETATM   35  C   UNL     1     -40.791  52.551 -53.569  1.00  0.00     0.171 C 
HETATM   36  C   UNL     1     -39.776  51.459 -53.853  1.00  0.00     0.034 C 
ENDBRANCH  34  35
ENDBRANCH  31  34
ENDBRANCH  25  28
ENDBRANCH  23  24
ENDBRANCH   1  23
BRANCH   5  37
HETATM   37  C   UNL     1     -46.050  62.442 -47.581  1.00  0.00     0.045 A 
HETATM   38  C   UNL     1     -47.326  62.991 -47.323  1.00  0.00     0.032 A 
HETATM   39  C   UNL     1     -47.628  63.657 -46.127  1.00  0.00     0.026 A 
HETATM   40  C   UNL     1     -46.660  63.776 -45.143  1.00  0.00     0.034 A 
HETATM   41 CL   UNL     1     -47.018  64.587 -43.673  1.00  0.00    -0.084 Cl
HETATM   42  C   UNL     1     -45.397  63.241 -45.356  1.00  0.00     0.026 A 
HETATM   43  C   UNL     1     -45.097  62.589 -46.563  1.00  0.00     0.032 A 
ENDBRANCH   5  37
TORSDOF 11
ENDMDL
MODEL 2
REMARK VINA RESULT:      -7.6      2.627      3.588
REMARK  11 active torsions:
REMARK  status: ('A' for Active; 'I' for Inactive)
REMARK    1  A    between atoms: C_2  and  O_3 
REMARK    2  A    between atoms: O_3  and  C_4 
REMARK    3  A    between atoms: C_7  and  N_8 
REMARK       I    between atoms: N_8  and  C_9 
REMARK    4  A    between atoms: C_9  and  C_10 
REMARK    5  A    between atoms: C_10  and  C_11 
REMARK    6  A    between atoms: N_12  and  C_13 
REMARK    7  A    between atoms: C_13  and  C_14 
REMARK    8  A    between atoms: C_14  and  C_15 
REMARK    9  A    between atoms: C_15  and  N_16 
REMARK   10  A    between atoms: C_20  and  C_21 
REMARK       I    between atoms: C_21  and  N_22 
REMARK   11  A    between atoms: N_28  and  C_29 
ROOT
HETATM    1  C   UNL     1     -44.388  59.468 -51.147  1.00  0.00     0.188 C 
HETATM    2  N   UNL     1     -44.257  60.740 -51.855  1.00  0.00    -0.344 N 
HETATM    3  C   UNL     1     -44.536  61.820 -50.972  1.00  0.00     0.184 C 
HETATM    4  S   UNL     1     -44.156  63.403 -51.359  1.00  0.00    -0.040 SA
HETATM    5  N   UNL     1     -45.149  61.289 -49.836  1.00  0.00    -0.257 N 
HETATM    6  C   UNL     1     -45.282  59.920 -50.003  1.00  0.00     0.254 C 
HETATM    7  O   UNL     1     -46.021  59.154 -49.397  1.00  0.00    -0.270 OA
ENDROOT
BRANCH   2   8
HETATM    8  C   UNL     1     -43.538  60.816 -53.136  1.00  0.00     0.128 C 
BRANCH   8   9
HETATM    9  C   UNL     1     -42.162  60.140 -53.118  1.00  0.00     0.048 C 
BRANCH   9  10
HETATM   10  C   UNL     1     -41.802  59.288 -54.335  1.00  0.00     0.236 C 
BRANCH  10  11
HETATM   11  N   UNL     1     -42.809  59.361 -55.466  1.00  0.00    -0.071 N 
HETATM   12  H   UNL     1     -43.453  60.147 -55.281  1.00  0.00     0.279 HD
HETATM   13  C   UNL     1     -42.145  59.583 -56.806  1.00  0.00     0.235 C 
HETATM   14  C   UNL     1     -43.187  59.635 -57.917  1.00  0.00     0.042 C 
HETATM   15  C   UNL     1     -44.040  58.368 -57.963  1.00  0.00     0.081 C 
HETATM   16  C   UNL     1     -44.672  58.113 -56.594  1.00  0.00     0.042 C 
HETATM   17  C   UNL     1     -43.664  58.104 -55.452  1.00  0.00     0.235 C 
BRANCH  15  18
HETATM   18  C   UNL     1     -43.195  57.185 -58.419  1.00  0.00     0.219 C 
HETATM   19  N   UNL     1     -43.669  55.958 -58.074  1.00  0.00    -0.370 N 
HETATM   20  H   UNL     1     -44.306  55.820 -57.299  1.00  0.00     0.159 HD
HETATM   21  H   UNL     1     -43.083  55.164 -58.313  1.00  0.00     0.159 HD
HETATM   22  O   UNL     1     -42.213  57.309 -59.139  1.00  0.00    -0.273 OA
ENDBRANCH  15  18
ENDBRANCH  10  11
ENDBRANCH   9  10
ENDBRANCH   8   9
ENDBRANCH   2   8
BRANCH   1  23
HETATM   23  C   UNL     1     -45.002  58.318 -51.928  1.00  0.00     0.138 C 
BRANCH  23  24
HETATM   24  C   UNL     1     -44.277  57.024 -51.600  1.00  0.00     0.224 C 
HETATM   25  N   UNL     1     -43.280  56.727 -52.505  1.00  0.00    -0.327 N 
HETATM   26  H   UNL     1     -43.207  57.316 -53.325  1.00  0.00     0.169 HD
HETATM   27  O   UNL     1     -44.608  56.377 -50.613  1.00  0.00    -0.273 OA
BRANCH  25  28
HETATM   28  C   UNL     1     -42.442  55.596 -52.532  1.00  0.00     0.034 A 
HETATM   29  C   UNL     1     -41.446  55.326 -51.594  1.00  0.00     0.032 A 
HETATM   30  C   UNL     1     -40.673  54.159 -51.694  1.00  0.00     0.039 A 
HETATM   31  C   UNL     1     -40.887  53.258 -52.735  1.00  0.00     0.068 A 
HETATM   32  C   UNL     1     -41.877  53.531 -53.677  1.00  0.00     0.039 A 
HETATM   33  C   UNL     1     -42.651  54.688 -53.578  1.00  0.00     0.032 A 
BRANCH  31  34
HETATM   34  O   UNL     1     -40.213  52.090 -52.952  1.00  0.00    -0.352 OA
BRANCH  34  35
HETATM   35  C   UNL     1     -40.328  51.497 -54.243  1.00  0.00     0.171 C 
HETATM   36  C   UNL     1     -39.714  50.111 -54.167  1.00  0.00     0.034 C 
ENDBRANCH  34  35
ENDBRANCH  31  34
ENDBRANCH  25  28
ENDBRANCH  23  24
ENDBRANCH   1  23
BRANCH   5  37
HETATM   37  C   UNL     1     -45.692  61.953 -48.679  1.00  0.00     0.045 A 
HETATM   38  C   UNL     1     -44.995  61.909 -47.451  1.00  0.00     0.032 A 
HETATM   39  C   UNL     1     -45.481  62.527 -46.290  1.00  0.00     0.026 A 
HETATM   40  C   UNL     1     -46.677  63.225 -46.332  1.00  0.00     0.034 A 
HETATM   41 CL   UNL     1     -47.282  63.988 -44.918  1.00  0.00    -0.084 Cl
HETATM   42  C   UNL     1     -47.386  63.299 -47.523  1.00  0.00     0.026 A 
HETATM   43  C   UNL     1     -46.901  62.664 -48.678  1.00  0.00     0.032 A 
ENDBRANCH   5  37
TORSDOF 11
ENDMDL
MODEL 3
REMARK VINA RESULT:      -7.5      3.653      5.082
REMARK  11 active torsions:
REMARK  status: ('A' for Active; 'I' for Inactive)
REMARK    1  A    between atoms: C_2  and  O_3 
REMARK    2  A    between atoms: O_3  and  C_4 
REMARK    3  A    between atoms: C_7  and  N_8 
REMARK       I    between atoms: N_8  and  C_9 
REMARK    4  A    between atoms: C_9  and  C_10 
REMARK    5  A    between atoms: C_10  and  C_11 
REMARK    6  A    between atoms: N_12  and  C_13 
REMARK    7  A    between atoms: C_13  and  C_14 
REMARK    8  A    between atoms: C_14  and  C_15 
REMARK    9  A    between atoms: C_15  and  N_16 
REMARK   10  A    between atoms: C_20  and  C_21 
REMARK       I    between atoms: C_21  and  N_22 
REMARK   11  A    between atoms: N_28  and  C_29 
ROOT
HETATM    1  C   UNL     1     -43.707  58.379 -51.798  1.00  0.00     0.188 C 
HETATM    2  N   UNL     1     -43.423  59.364 -52.839  1.00  0.00    -0.344 N 
HETATM    3  C   UNL     1     -43.816  60.660 -52.405  1.00  0.00     0.184 C 
HETATM    4  S   UNL     1     -43.331  62.048 -53.203  1.00  0.00    -0.040 SA
HETATM    5  N   UNL     1     -44.627  60.500 -51.280  1.00  0.00    -0.257 N 
HETATM    6  C   UNL     1     -44.768  59.146 -51.025  1.00  0.00     0.254 C 
HETATM    7  O   UNL     1     -45.620  58.592 -50.341  1.00  0.00    -0.270 OA
ENDROOT
BRANCH   2   8
HETATM    8  C   UNL     1     -42.496  59.050 -53.938  1.00  0.00     0.128 C 
BRANCH   8   9
HETATM    9  C   UNL     1     -43.189  58.793 -55.281  1.00  0.00     0.048 C 
BRANCH   9  10
HETATM   10  C   UNL     1     -42.340  58.987 -56.538  1.00  0.00     0.236 C 
BRANCH  10  11
HETATM   11  N   UNL     1     -42.211  57.746 -57.399  1.00  0.00    -0.071 N 
HETATM   12  H   UNL     1     -41.298  57.305 -57.204  1.00  0.00     0.279 HD
HETATM   13  C   UNL     1     -43.305  56.740 -57.116  1.00  0.00     0.235 C 
HETATM   14  C   UNL     1     -43.151  55.516 -58.011  1.00  0.00     0.042 C 
HETATM   15  C   UNL     1     -43.154  55.885 -59.494  1.00  0.00     0.081 C 
HETATM   16  C   UNL     1     -42.083  56.941 -59.773  1.00  0.00     0.042 C 
HETATM   17  C   UNL     1     -42.177  58.158 -58.862  1.00  0.00     0.235 C 
BRANCH  15  18
HETATM   18  C   UNL     1     -44.538  56.370 -59.908  1.00  0.00     0.219 C 
HETATM   19  N   UNL     1     -45.564  55.522 -59.630  1.00  0.00    -0.370 N 
HETATM   20  H   UNL     1     -45.426  54.527 -59.498  1.00  0.00     0.159 HD
HETATM   21  H   UNL     1     -46.484  55.802 -59.959  1.00  0.00     0.159 HD
HETATM   22  O   UNL     1     -44.742  57.489 -60.360  1.00  0.00    -0.273 OA
ENDBRANCH  15  18
ENDBRANCH  10  11
ENDBRANCH   9  10
ENDBRANCH   8   9
ENDBRANCH   2   8
BRANCH   1  23
HETATM   23  C   UNL     1     -44.213  57.024 -52.266  1.00  0.00     0.138 C 
BRANCH  23  24
HETATM   24  C   UNL     1     -43.231  55.938 -51.865  1.00  0.00     0.224 C 
HETATM   25  N   UNL     1     -42.640  55.326 -52.949  1.00  0.00    -0.327 N 
HETATM   26  H   UNL     1     -42.987  55.573 -53.867  1.00  0.00     0.169 HD
HETATM   27  O   UNL     1     -43.043  55.699 -50.677  1.00  0.00    -0.273 OA
BRANCH  25  28
HETATM   28  C   UNL     1     -41.720  54.260 -52.949  1.00  0.00     0.034 A 
HETATM   29  C   UNL     1     -40.908  53.916 -51.869  1.00  0.00     0.032 A 
HETATM   30  C   UNL     1     -40.033  52.821 -51.957  1.00  0.00     0.039 A 
HETATM   31  C   UNL     1     -39.962  52.068 -53.127  1.00  0.00     0.068 A 
HETATM   32  C   UNL     1     -40.769  52.416 -54.209  1.00  0.00     0.039 A 
HETATM   33  C   UNL     1     -41.642  53.501 -54.123  1.00  0.00     0.032 A 
BRANCH  31  34
HETATM   34  O   UNL     1     -39.162  50.984 -53.349  1.00  0.00    -0.352 OA
BRANCH  34  35
HETATM   35  C   UNL     1     -39.735  49.694 -53.150  1.00  0.00     0.171 C 
HETATM   36  C   UNL     1     -39.652  49.379 -51.668  1.00  0.00     0.034 C 
ENDBRANCH  34  35
ENDBRANCH  31  34
ENDBRANCH  25  28
ENDBRANCH  23  24
ENDBRANCH   1  23
BRANCH   5  37
HETATM   37  C   UNL     1     -45.338  61.483 -50.502  1.00  0.00     0.045 A 
HETATM   38  C   UNL     1     -44.894  61.806 -49.202  1.00  0.00     0.032 A 
HETATM   39  C   UNL     1     -45.553  62.744 -48.395  1.00  0.00     0.026 A 
HETATM   40  C   UNL     1     -46.672  63.401 -48.880  1.00  0.00     0.034 A 
HETATM   41 CL   UNL     1     -47.487  64.555 -47.903  1.00  0.00    -0.084 Cl
HETATM   42  C   UNL     1     -47.133  63.118 -50.158  1.00  0.00     0.026 A 
HETATM   43  C   UNL     1     -46.477  62.165 -50.954  1.00  0.00     0.032 A 
ENDBRANCH   5  37
TORSDOF 11
ENDMDL
MODEL 4
REMARK VINA RESULT:      -7.4      5.203      9.701
REMARK  11 active torsions:
REMARK  status: ('A' for Active; 'I' for Inactive)
REMARK    1  A    between atoms: C_2  and  O_3 
REMARK    2  A    between atoms: O_3  and  C_4 
REMARK    3  A    between atoms: C_7  and  N_8 
REMARK       I    between atoms: N_8  and  C_9 
REMARK    4  A    between atoms: C_9  and  C_10 
REMARK    5  A    between atoms: C_10  and  C_11 
REMARK    6  A    between atoms: N_12  and  C_13 
REMARK    7  A    between atoms: C_13  and  C_14 
REMARK    8  A    between atoms: C_14  and  C_15 
REMARK    9  A    between atoms: C_15  and  N_16 
REMARK   10  A    between atoms: C_20  and  C_21 
REMARK       I    between atoms: C_21  and  N_22 
REMARK   11  A    between atoms: N_28  and  C_29 
ROOT
HETATM    1  C   UNL     1     -42.549  57.732 -52.001  1.00  0.00     0.188 C 
HETATM    2  N   UNL     1     -43.107  57.155 -53.223  1.00  0.00    -0.344 N 
HETATM    3  C   UNL     1     -42.868  55.754 -53.252  1.00  0.00     0.184 C 
HETATM    4  S   UNL     1     -43.655  54.742 -54.328  1.00  0.00    -0.040 SA
HETATM    5  N   UNL     1     -41.912  55.467 -52.276  1.00  0.00    -0.257 N 
HETATM    6  C   UNL     1     -41.533  56.652 -51.666  1.00  0.00     0.254 C 
HETATM    7  O   UNL     1     -40.529  56.870 -50.999  1.00  0.00    -0.270 OA
ENDROOT
BRANCH   2   8
HETATM    8  C   UNL     1     -44.100  57.894 -54.017  1.00  0.00     0.128 C 
BRANCH   8   9
HETATM    9  C   UNL     1     -43.565  58.407 -55.360  1.00  0.00     0.048 C 
BRANCH   9  10
HETATM   10  C   UNL     1     -44.532  58.365 -56.543  1.00  0.00     0.236 C 
BRANCH  10  11
HETATM   11  N   UNL     1     -43.916  57.857 -57.832  1.00  0.00    -0.071 N 
HETATM   12  H   UNL     1     -43.093  58.440 -58.055  1.00  0.00     0.279 HD
HETATM   13  C   UNL     1     -43.473  56.415 -57.722  1.00  0.00     0.235 C 
HETATM   14  C   UNL     1     -42.876  55.936 -59.039  1.00  0.00     0.042 C 
HETATM   15  C   UNL     1     -43.854  56.092 -60.203  1.00  0.00     0.081 C 
HETATM   16  C   UNL     1     -44.344  57.540 -60.285  1.00  0.00     0.042 C 
HETATM   17  C   UNL     1     -44.903  58.067 -58.969  1.00  0.00     0.235 C 
BRANCH  15  18
HETATM   18  C   UNL     1     -45.014  55.118 -60.044  1.00  0.00     0.219 C 
HETATM   19  N   UNL     1     -44.690  53.896 -59.542  1.00  0.00    -0.370 N 
HETATM   20  H   UNL     1     -43.752  53.518 -59.598  1.00  0.00     0.159 HD
HETATM   21  H   UNL     1     -45.441  53.214 -59.492  1.00  0.00     0.159 HD
HETATM   22  O   UNL     1     -46.180  55.433 -60.246  1.00  0.00    -0.273 OA
ENDBRANCH  15  18
ENDBRANCH  10  11
ENDBRANCH   9  10
ENDBRANCH   8   9
ENDBRANCH   2   8
BRANCH   1  23
HETATM   23  C   UNL     1     -41.901  59.101 -52.132  1.00  0.00     0.138 C 
BRANCH  23  24
HETATM   24  C   UNL     1     -42.152  59.916 -50.875  1.00  0.00     0.224 C 
HETATM   25  N   UNL     1     -43.350  60.596 -50.911  1.00  0.00    -0.327 N 
HETATM   26  H   UNL     1     -43.868  60.577 -51.779  1.00  0.00     0.169 HD
HETATM   27  O   UNL     1     -41.322  59.908 -49.973  1.00  0.00    -0.273 OA
BRANCH  25  28
HETATM   28  C   UNL     1     -43.879  61.472 -49.943  1.00  0.00     0.034 A 
HETATM   29  C   UNL     1     -43.550  62.822 -49.834  1.00  0.00     0.032 A 
HETATM   30  C   UNL     1     -44.146  63.622 -48.846  1.00  0.00     0.039 A 
HETATM   31  C   UNL     1     -45.070  63.073 -47.957  1.00  0.00     0.068 A 
HETATM   32  C   UNL     1     -45.392  61.722 -48.062  1.00  0.00     0.039 A 
HETATM   33  C   UNL     1     -44.805  60.926 -49.046  1.00  0.00     0.032 A 
BRANCH  31  34
HETATM   34  O   UNL     1     -45.723  63.730 -46.954  1.00  0.00    -0.352 OA
BRANCH  34  35
HETATM   35  C   UNL     1     -44.940  64.541 -46.083  1.00  0.00     0.171 C 
HETATM   36  C   UNL     1     -45.302  64.165 -44.658  1.00  0.00     0.034 C 
ENDBRANCH  34  35
ENDBRANCH  31  34
ENDBRANCH  25  28
ENDBRANCH  23  24
ENDBRANCH   1  23
BRANCH   5  37
HETATM   37  C   UNL     1     -41.271  54.220 -51.943  1.00  0.00     0.045 A 
HETATM   38  C   UNL     1     -40.616  53.476 -52.948  1.00  0.00     0.032 A 
HETATM   39  C   UNL     1     -39.986  52.252 -52.684  1.00  0.00     0.026 A 
HETATM   40  C   UNL     1     -39.981  51.745 -51.395  1.00  0.00     0.034 A 
HETATM   41 CL   UNL     1     -39.212  50.247 -51.058  1.00  0.00    -0.084 Cl
HETATM   42  C   UNL     1     -40.607  52.452 -50.378  1.00  0.00     0.026 A 
HETATM   43  C   UNL     1     -41.250  53.671 -50.653  1.00  0.00     0.032 A 
ENDBRANCH   5  37
TORSDOF 11
ENDMDL
MODEL 5
REMARK VINA RESULT:      -7.3      5.387      8.290
REMARK  11 active torsions:
REMARK  status: ('A' for Active; 'I' for Inactive)
REMARK    1  A    between atoms: C_2  and  O_3 
REMARK    2  A    between atoms: O_3  and  C_4 
REMARK    3  A    between atoms: C_7  and  N_8 
REMARK       I    between atoms: N_8  and  C_9 
REMARK    4  A    between atoms: C_9  and  C_10 
REMARK    5  A    between atoms: C_10  and  C_11 
REMARK    6  A    between atoms: N_12  and  C_13 
REMARK    7  A    between atoms: C_13  and  C_14 
REMARK    8  A    between atoms: C_14  and  C_15 
REMARK    9  A    between atoms: C_15  and  N_16 
REMARK   10  A    between atoms: C_20  and  C_21 
REMARK       I    between atoms: C_21  and  N_22 
REMARK   11  A    between atoms: N_28  and  C_29 
ROOT
HETATM    1  C   UNL     1     -44.093  58.047 -58.862  1.00  0.00     0.188 C 
HETATM    2  N   UNL     1     -44.410  58.888 -57.709  1.00  0.00    -0.344 N 
HETATM    3  C   UNL     1     -43.766  60.150 -57.835  1.00  0.00     0.184 C 
HETATM    4  S   UNL     1     -44.179  61.455 -56.873  1.00  0.00    -0.040 SA
HETATM    5  N   UNL     1     -42.805  60.035 -58.840  1.00  0.00    -0.257 N 
HETATM    6  C   UNL     1     -42.817  58.735 -59.318  1.00  0.00     0.254 C 
HETATM    7  O   UNL     1     -41.947  58.160 -59.962  1.00  0.00    -0.270 OA
ENDROOT
BRANCH   2   8
HETATM    8  C   UNL     1     -45.548  58.565 -56.834  1.00  0.00     0.128 C 
BRANCH   8   9
HETATM    9  C   UNL     1     -45.141  57.969 -55.481  1.00  0.00     0.048 C 
BRANCH   9  10
HETATM   10  C   UNL     1     -44.167  58.790 -54.636  1.00  0.00     0.236 C 
BRANCH  10  11
HETATM   11  N   UNL     1     -43.246  57.960 -53.765  1.00  0.00    -0.071 N 
HETATM   12  H   UNL     1     -43.362  56.965 -54.019  1.00  0.00     0.279 HD
HETATM   13  C   UNL     1     -41.793  58.339 -53.946  1.00  0.00     0.235 C 
HETATM   14  C   UNL     1     -40.902  57.496 -53.043  1.00  0.00     0.042 C 
HETATM   15  C   UNL     1     -41.293  57.622 -51.571  1.00  0.00     0.081 C 
HETATM   16  C   UNL     1     -42.775  57.288 -51.392  1.00  0.00     0.042 C 
HETATM   17  C   UNL     1     -43.692  58.080 -52.316  1.00  0.00     0.235 C 
BRANCH  15  18
HETATM   18  C   UNL     1     -40.970  59.022 -51.064  1.00  0.00     0.219 C 
HETATM   19  N   UNL     1     -41.734  59.463 -50.029  1.00  0.00    -0.370 N 
HETATM   20  H   UNL     1     -42.653  59.083 -49.833  1.00  0.00     0.159 HD
HETATM   21  H   UNL     1     -41.575  60.418 -49.724  1.00  0.00     0.159 HD
HETATM   22  O   UNL     1     -40.020  59.675 -51.476  1.00  0.00    -0.273 OA
ENDBRANCH  15  18
ENDBRANCH  10  11
ENDBRANCH   9  10
ENDBRANCH   8   9
ENDBRANCH   2   8
BRANCH   1  23
HETATM   23  C   UNL     1     -43.875  56.569 -58.584  1.00  0.00     0.138 C 
BRANCH  23  24
HETATM   24  C   UNL     1     -43.014  56.397 -57.345  1.00  0.00     0.224 C 
HETATM   25  N   UNL     1     -43.321  55.255 -56.636  1.00  0.00    -0.327 N 
HETATM   26  H   UNL     1     -44.129  54.726 -56.937  1.00  0.00     0.169 HD
HETATM   27  O   UNL     1     -42.159  57.234 -57.081  1.00  0.00    -0.273 OA
BRANCH  25  28
HETATM   28  C   UNL     1     -42.757  54.807 -55.426  1.00  0.00     0.034 A 
HETATM   29  C   UNL     1     -43.469  54.618 -54.243  1.00  0.00     0.032 A 
HETATM   30  C   UNL     1     -42.821  54.148 -53.090  1.00  0.00     0.039 A 
HETATM   31  C   UNL     1     -41.455  53.871 -53.112  1.00  0.00     0.068 A 
HETATM   32  C   UNL     1     -40.742  54.067 -54.293  1.00  0.00     0.039 A 
HETATM   33  C   UNL     1     -41.384  54.530 -55.442  1.00  0.00     0.032 A 
BRANCH  31  34
HETATM   34  O   UNL     1     -40.702  53.411 -52.070  1.00  0.00    -0.352 OA
BRANCH  34  35
HETATM   35  C   UNL     1     -41.037  53.873 -50.765  1.00  0.00     0.171 C 
HETATM   36  C   UNL     1     -39.747  53.984 -49.973  1.00  0.00     0.034 C 
ENDBRANCH  34  35
ENDBRANCH  31  34
ENDBRANCH  25  28
ENDBRANCH  23  24
ENDBRANCH   1  23
BRANCH   5  37
HETATM   37  C   UNL     1     -41.837  60.993 -59.312  1.00  0.00     0.045 A 
HETATM   38  C   UNL     1     -41.846  61.393 -60.666  1.00  0.00     0.032 A 
HETATM   39  C   UNL     1     -40.922  62.312 -61.183  1.00  0.00     0.026 A 
HETATM   40  C   UNL     1     -39.968  62.871 -60.348  1.00  0.00     0.034 A 
HETATM   41 CL   UNL     1     -38.832  63.999 -60.968  1.00  0.00    -0.084 Cl
HETATM   42  C   UNL     1     -39.934  62.510 -59.008  1.00  0.00     0.026 A 
HETATM   43  C   UNL     1     -40.853  61.577 -58.501  1.00  0.00     0.032 A 
ENDBRANCH   5  37
TORSDOF 11
ENDMDL
MODEL 6
REMARK VINA RESULT:      -7.3      4.510      7.677
REMARK  11 active torsions:
REMARK  status: ('A' for Active; 'I' for Inactive)
REMARK    1  A    between atoms: C_2  and  O_3 
REMARK    2  A    between atoms: O_3  and  C_4 
REMARK    3  A    between atoms: C_7  and  N_8 
REMARK       I    between atoms: N_8  and  C_9 
REMARK    4  A    between atoms: C_9  and  C_10 
REMARK    5  A    between atoms: C_10  and  C_11 
REMARK    6  A    between atoms: N_12  and  C_13 
REMARK    7  A    between atoms: C_13  and  C_14 
REMARK    8  A    between atoms: C_14  and  C_15 
REMARK    9  A    between atoms: C_15  and  N_16 
REMARK   10  A    between atoms: C_20  and  C_21 
REMARK       I    between atoms: C_21  and  N_22 
REMARK   11  A    between atoms: N_28  and  C_29 
ROOT
HETATM    1  C   UNL     1     -44.292  58.954 -53.752  1.00  0.00     0.188 C 
HETATM    2  N   UNL     1     -43.176  59.680 -54.356  1.00  0.00    -0.344 N 
HETATM    3  C   UNL     1     -43.080  59.363 -55.739  1.00  0.00     0.184 C 
HETATM    4  S   UNL     1     -42.140  60.261 -56.792  1.00  0.00    -0.040 SA
HETATM    5  N   UNL     1     -43.870  58.235 -55.970  1.00  0.00    -0.257 N 
HETATM    6  C   UNL     1     -44.426  57.830 -54.767  1.00  0.00     0.254 C 
HETATM    7  O   UNL     1     -44.912  56.741 -54.489  1.00  0.00    -0.270 OA
ENDROOT
BRANCH   2   8
HETATM    8  C   UNL     1     -42.580  60.841 -53.677  1.00  0.00     0.128 C 
BRANCH   8   9
HETATM    9  C   UNL     1     -43.565  61.991 -53.433  1.00  0.00     0.048 C 
BRANCH   9  10
HETATM   10  C   UNL     1     -43.228  62.949 -52.291  1.00  0.00     0.236 C 
BRANCH  10  11
HETATM   11  N   UNL     1     -44.350  63.144 -51.290  1.00  0.00    -0.071 N 
HETATM   12  H   UNL     1     -44.785  64.065 -51.460  1.00  0.00     0.279 HD
HETATM   13  C   UNL     1     -45.413  62.075 -51.411  1.00  0.00     0.235 C 
HETATM   14  C   UNL     1     -46.513  62.295 -50.380  1.00  0.00     0.042 C 
HETATM   15  C   UNL     1     -45.965  62.323 -48.954  1.00  0.00     0.081 C 
HETATM   16  C   UNL     1     -44.853  63.368 -48.841  1.00  0.00     0.042 C 
HETATM   17  C   UNL     1     -43.760  63.207 -49.890  1.00  0.00     0.235 C 
BRANCH  15  18
HETATM   18  C   UNL     1     -45.472  60.937 -48.556  1.00  0.00     0.219 C 
HETATM   19  N   UNL     1     -44.622  60.898 -47.496  1.00  0.00    -0.370 N 
HETATM   20  H   UNL     1     -44.073  61.701 -47.210  1.00  0.00     0.159 HD
HETATM   21  H   UNL     1     -44.234  59.990 -47.260  1.00  0.00     0.159 HD
HETATM   22  O   UNL     1     -45.890  59.910 -49.075  1.00  0.00    -0.273 OA
ENDBRANCH  15  18
ENDBRANCH  10  11
ENDBRANCH   9  10
ENDBRANCH   8   9
ENDBRANCH   2   8
BRANCH   1  23
HETATM   23  C   UNL     1     -44.075  58.426 -52.344  1.00  0.00     0.138 C 
BRANCH  23  24
HETATM   24  C   UNL     1     -42.831  57.554 -52.304  1.00  0.00     0.224 C 
HETATM   25  N   UNL     1     -43.120  56.209 -52.389  1.00  0.00    -0.327 N 
HETATM   26  H   UNL     1     -44.094  55.941 -52.357  1.00  0.00     0.169 HD
HETATM   27  O   UNL     1     -41.728  58.079 -52.208  1.00  0.00    -0.273 OA
BRANCH  25  28
HETATM   28  C   UNL     1     -42.222  55.125 -52.341  1.00  0.00     0.034 A 
HETATM   29  C   UNL     1     -41.571  54.687 -51.189  1.00  0.00     0.032 A 
HETATM   30  C   UNL     1     -40.706  53.582 -51.236  1.00  0.00     0.039 A 
HETATM   31  C   UNL     1     -40.483  52.913 -52.439  1.00  0.00     0.068 A 
HETATM   32  C   UNL     1     -41.128  53.356 -53.592  1.00  0.00     0.039 A 
HETATM   33  C   UNL     1     -41.991  54.451 -53.546  1.00  0.00     0.032 A 
BRANCH  31  34
HETATM   34  O   UNL     1     -39.674  51.830 -52.629  1.00  0.00    -0.352 OA
BRANCH  34  35
HETATM   35  C   UNL     1     -39.518  51.354 -53.963  1.00  0.00     0.171 C 
HETATM   36  C   UNL     1     -39.852  49.873 -53.963  1.00  0.00     0.034 C 
ENDBRANCH  34  35
ENDBRANCH  31  34
ENDBRANCH  25  28
ENDBRANCH  23  24
ENDBRANCH   1  23
BRANCH   5  37
HETATM   37  C   UNL     1     -44.064  57.469 -57.175  1.00  0.00     0.045 A 
HETATM   38  C   UNL     1     -45.131  57.786 -58.044  1.00  0.00     0.032 A 
HETATM   39  C   UNL     1     -45.375  57.069 -59.224  1.00  0.00     0.026 A 
HETATM   40  C   UNL     1     -44.542  56.019 -59.575  1.00  0.00     0.034 A 
HETATM   41 CL   UNL     1     -44.829  55.134 -61.018  1.00  0.00    -0.084 Cl
HETATM   42  C   UNL     1     -43.477  55.684 -58.751  1.00  0.00     0.026 A 
HETATM   43  C   UNL     1     -43.247  56.397 -57.563  1.00  0.00     0.032 A 
ENDBRANCH   5  37
TORSDOF 11
ENDMDL
MODEL 7
REMARK VINA RESULT:      -7.0      5.199      7.689
REMARK  11 active torsions:
REMARK  status: ('A' for Active; 'I' for Inactive)
REMARK    1  A    between atoms: C_2  and  O_3 
REMARK    2  A    between atoms: O_3  and  C_4 
REMARK    3  A    between atoms: C_7  and  N_8 
REMARK       I    between atoms: N_8  and  C_9 
REMARK    4  A    between atoms: C_9  and  C_10 
REMARK    5  A    between atoms: C_10  and  C_11 
REMARK    6  A    between atoms: N_12  and  C_13 
REMARK    7  A    between atoms: C_13  and  C_14 
REMARK    8  A    between atoms: C_14  and  C_15 
REMARK    9  A    between atoms: C_15  and  N_16 
REMARK   10  A    between atoms: C_20  and  C_21 
REMARK       I    between atoms: C_21  and  N_22 
REMARK   11  A    between atoms: N_28  and  C_29 
ROOT
HETATM    1  C   UNL     1     -43.913  58.212 -57.604  1.00  0.00     0.188 C 
HETATM    2  N   UNL     1     -43.495  59.610 -57.522  1.00  0.00    -0.344 N 
HETATM    3  C   UNL     1     -44.615  60.466 -57.706  1.00  0.00     0.184 C 
HETATM    4  S   UNL     1     -44.555  62.098 -57.342  1.00  0.00    -0.040 SA
HETATM    5  N   UNL     1     -45.657  59.693 -58.221  1.00  0.00    -0.257 N 
HETATM    6  C   UNL     1     -45.205  58.393 -58.385  1.00  0.00     0.254 C 
HETATM    7  O   UNL     1     -45.692  57.507 -59.076  1.00  0.00    -0.270 OA
ENDROOT
BRANCH   2   8
HETATM    8  C   UNL     1     -42.202  59.973 -56.920  1.00  0.00     0.128 C 
BRANCH   8   9
HETATM    9  C   UNL     1     -42.017  59.461 -55.487  1.00  0.00     0.048 C 
BRANCH   9  10
HETATM   10  C   UNL     1     -42.525  60.368 -54.366  1.00  0.00     0.236 C 
BRANCH  10  11
HETATM   11  N   UNL     1     -41.801  60.190 -53.046  1.00  0.00    -0.071 N 
HETATM   12  H   UNL     1     -41.280  61.058 -52.838  1.00  0.00     0.279 HD
HETATM   13  C   UNL     1     -42.755  59.912 -51.906  1.00  0.00     0.235 C 
HETATM   14  C   UNL     1     -41.990  59.724 -50.602  1.00  0.00     0.042 C 
HETATM   15  C   UNL     1     -40.956  58.603 -50.700  1.00  0.00     0.081 C 
HETATM   16  C   UNL     1     -40.021  58.855 -51.884  1.00  0.00     0.042 C 
HETATM   17  C   UNL     1     -40.755  59.097 -53.197  1.00  0.00     0.235 C 
BRANCH  15  18
HETATM   18  C   UNL     1     -41.657  57.255 -50.817  1.00  0.00     0.219 C 
HETATM   19  N   UNL     1     -42.993  57.265 -50.568  1.00  0.00    -0.370 N 
HETATM   20  H   UNL     1     -43.437  57.988 -50.014  1.00  0.00     0.159 HD
HETATM   21  H   UNL     1     -43.462  56.364 -50.578  1.00  0.00     0.159 HD
HETATM   22  O   UNL     1     -41.091  56.245 -51.214  1.00  0.00    -0.273 OA
ENDBRANCH  15  18
ENDBRANCH  10  11
ENDBRANCH   9  10
ENDBRANCH   8   9
ENDBRANCH   2   8
BRANCH   1  23
HETATM   23  C   UNL     1     -42.957  57.258 -58.301  1.00  0.00     0.138 C 
BRANCH  23  24
HETATM   24  C   UNL     1     -42.850  55.965 -57.513  1.00  0.00     0.224 C 
HETATM   25  N   UNL     1     -42.121  56.106 -56.352  1.00  0.00    -0.327 N 
HETATM   26  H   UNL     1     -41.654  56.991 -56.202  1.00  0.00     0.169 HD
HETATM   27  O   UNL     1     -43.389  54.950 -57.939  1.00  0.00    -0.273 OA
BRANCH  25  28
HETATM   28  C   UNL     1     -41.789  55.113 -55.410  1.00  0.00     0.034 A 
HETATM   29  C   UNL     1     -42.583  54.761 -54.320  1.00  0.00     0.032 A 
HETATM   30  C   UNL     1     -42.177  53.742 -53.444  1.00  0.00     0.039 A 
HETATM   31  C   UNL     1     -40.971  53.073 -53.650  1.00  0.00     0.068 A 
HETATM   32  C   UNL     1     -40.174  53.431 -54.736  1.00  0.00     0.039 A 
HETATM   33  C   UNL     1     -40.578  54.440 -55.610  1.00  0.00     0.032 A 
BRANCH  31  34
HETATM   34  O   UNL     1     -40.456  52.068 -52.882  1.00  0.00    -0.352 OA
BRANCH  34  35
HETATM   35  C   UNL     1     -39.403  51.290 -53.443  1.00  0.00     0.171 C 
HETATM   36  C   UNL     1     -40.012  50.000 -53.961  1.00  0.00     0.034 C 
ENDBRANCH  34  35
ENDBRANCH  31  34
ENDBRANCH  25  28
ENDBRANCH  23  24
ENDBRANCH   1  23
BRANCH   5  37
HETATM   37  C   UNL     1     -46.977  60.081 -58.648  1.00  0.00     0.045 A 
HETATM   38  C   UNL     1     -47.179  60.554 -59.963  1.00  0.00     0.032 A 
HETATM   39  C   UNL     1     -48.438  60.956 -60.431  1.00  0.00     0.026 A 
HETATM   40  C   UNL     1     -49.539  60.880 -59.593  1.00  0.00     0.034 A 
HETATM   41 CL   UNL     1     -51.087  61.368 -60.154  1.00  0.00    -0.084 Cl
HETATM   42  C   UNL     1     -49.382  60.411 -58.296  1.00  0.00     0.026 A 
HETATM   43  C   UNL     1     -48.115  60.024 -57.830  1.00  0.00     0.032 A 
ENDBRANCH   5  37
TORSDOF 11
ENDMDL
MODEL 8
REMARK VINA RESULT:      -6.9      2.914      3.947
REMARK  11 active torsions:
REMARK  status: ('A' for Active; 'I' for Inactive)
REMARK    1  A    between atoms: C_2  and  O_3 
REMARK    2  A    between atoms: O_3  and  C_4 
REMARK    3  A    between atoms: C_7  and  N_8 
REMARK       I    between atoms: N_8  and  C_9 
REMARK    4  A    between atoms: C_9  and  C_10 
REMARK    5  A    between atoms: C_10  and  C_11 
REMARK    6  A    between atoms: N_12  and  C_13 
REMARK    7  A    between atoms: C_13  and  C_14 
REMARK    8  A    between atoms: C_14  and  C_15 
REMARK    9  A    between atoms: C_15  and  N_16 
REMARK   10  A    between atoms: C_20  and  C_21 
REMARK       I    between atoms: C_21  and  N_22 
REMARK   11  A    between atoms: N_28  and  C_29 
ROOT
HETATM    1  C   UNL     1     -44.939  59.598 -51.469  1.00  0.00     0.188 C 
HETATM    2  N   UNL     1     -45.418  60.705 -52.294  1.00  0.00    -0.344 N 
HETATM    3  C   UNL     1     -45.666  61.846 -51.483  1.00  0.00     0.184 C 
HETATM    4  S   UNL     1     -45.896  63.369 -52.138  1.00  0.00    -0.040 SA
HETATM    5  N   UNL     1     -45.679  61.424 -50.152  1.00  0.00    -0.257 N 
HETATM    6  C   UNL     1     -45.475  60.053 -50.121  1.00  0.00     0.254 C 
HETATM    7  O   UNL     1     -45.718  59.276 -49.207  1.00  0.00    -0.270 OA
ENDROOT
BRANCH   2   8
HETATM    8  C   UNL     1     -45.233  60.689 -53.754  1.00  0.00     0.128 C 
BRANCH   8   9
HETATM    9  C   UNL     1     -43.767  60.604 -54.194  1.00  0.00     0.048 C 
BRANCH   9  10
HETATM   10  C   UNL     1     -43.301  59.267 -54.771  1.00  0.00     0.236 C 
BRANCH  10  11
HETATM   11  N   UNL     1     -43.146  59.260 -56.278  1.00  0.00    -0.071 N 
HETATM   12  H   UNL     1     -42.720  60.156 -56.569  1.00  0.00     0.279 HD
HETATM   13  C   UNL     1     -42.266  58.127 -56.755  1.00  0.00     0.235 C 
HETATM   14  C   UNL     1     -42.148  58.144 -58.274  1.00  0.00     0.042 C 
HETATM   15  C   UNL     1     -43.513  58.065 -58.957  1.00  0.00     0.081 C 
HETATM   16  C   UNL     1     -44.423  59.179 -58.438  1.00  0.00     0.042 C 
HETATM   17  C   UNL     1     -44.525  59.223 -56.919  1.00  0.00     0.235 C 
BRANCH  15  18
HETATM   18  C   UNL     1     -44.129  56.690 -58.733  1.00  0.00     0.219 C 
HETATM   19  N   UNL     1     -45.474  56.612 -58.921  1.00  0.00    -0.370 N 
HETATM   20  H   UNL     1     -46.078  57.423 -58.860  1.00  0.00     0.159 HD
HETATM   21  H   UNL     1     -45.909  55.718 -58.712  1.00  0.00     0.159 HD
HETATM   22  O   UNL     1     -43.460  55.690 -58.508  1.00  0.00    -0.273 OA
ENDBRANCH  15  18
ENDBRANCH  10  11
ENDBRANCH   9  10
ENDBRANCH   8   9
ENDBRANCH   2   8
BRANCH   1  23
HETATM   23  C   UNL     1     -45.439  58.211 -51.839  1.00  0.00     0.138 C 
BRANCH  23  24
HETATM   24  C   UNL     1     -44.281  57.228 -51.843  1.00  0.00     0.224 C 
HETATM   25  N   UNL     1     -44.281  56.409 -52.952  1.00  0.00    -0.327 N 
HETATM   26  H   UNL     1     -45.079  56.464 -53.570  1.00  0.00     0.169 HD
HETATM   27  O   UNL     1     -43.478  57.234 -50.917  1.00  0.00    -0.273 OA
BRANCH  25  28
HETATM   28  C   UNL     1     -43.387  55.364 -53.258  1.00  0.00     0.034 A 
HETATM   29  C   UNL     1     -42.681  54.624 -52.311  1.00  0.00     0.032 A 
HETATM   30  C   UNL     1     -41.825  53.586 -52.713  1.00  0.00     0.039 A 
HETATM   31  C   UNL     1     -41.667  53.287 -54.065  1.00  0.00     0.068 A 
HETATM   32  C   UNL     1     -42.367  54.031 -55.011  1.00  0.00     0.039 A 
HETATM   33  C   UNL     1     -43.221  55.061 -54.615  1.00  0.00     0.032 A 
BRANCH  31  34
HETATM   34  O   UNL     1     -40.873  52.309 -54.593  1.00  0.00    -0.352 OA
BRANCH  34  35
HETATM   35  C   UNL     1     -39.988  51.631 -53.706  1.00  0.00     0.171 C 
HETATM   36  C   UNL     1     -39.796  50.223 -54.237  1.00  0.00     0.034 C 
ENDBRANCH  34  35
ENDBRANCH  31  34
ENDBRANCH  25  28
ENDBRANCH  23  24
ENDBRANCH   1  23
BRANCH   5  37
HETATM   37  C   UNL     1     -45.954  62.163 -48.947  1.00  0.00     0.045 A 
HETATM   38  C   UNL     1     -47.211  62.783 -48.774  1.00  0.00     0.032 A 
HETATM   39  C   UNL     1     -47.530  63.525 -47.628  1.00  0.00     0.026 A 
HETATM   40  C   UNL     1     -46.599  63.651 -46.610  1.00  0.00     0.034 A 
HETATM   41 CL   UNL     1     -46.979  64.555 -45.200  1.00  0.00    -0.084 Cl
HETATM   42  C   UNL     1     -45.356  63.047 -46.738  1.00  0.00     0.026 A 
HETATM   43  C   UNL     1     -45.038  62.319 -47.897  1.00  0.00     0.032 A 
ENDBRANCH   5  37
TORSDOF 11
ENDMDL
MODEL 9
REMARK VINA RESULT:      -6.8      5.106      9.193
REMARK  11 active torsions:
REMARK  status: ('A' for Active; 'I' for Inactive)
REMARK    1  A    between atoms: C_2  and  O_3 
REMARK    2  A    between atoms: O_3  and  C_4 
REMARK    3  A    between atoms: C_7  and  N_8 
REMARK       I    between atoms: N_8  and  C_9 
REMARK    4  A    between atoms: C_9  and  C_10 
REMARK    5  A    between atoms: C_10  and  C_11 
REMARK    6  A    between atoms: N_12  and  C_13 
REMARK    7  A    between atoms: C_13  and  C_14 
REMARK    8  A    between atoms: C_14  and  C_15 
REMARK    9  A    between atoms: C_15  and  N_16 
REMARK   10  A    between atoms: C_20  and  C_21 
REMARK       I    between atoms: C_21  and  N_22 
REMARK   11  A    between atoms: N_28  and  C_29 
ROOT
HETATM    1  C   UNL     1     -42.177  57.191 -52.489  1.00  0.00     0.188 C 
HETATM    2  N   UNL     1     -43.357  56.462 -52.027  1.00  0.00    -0.344 N 
HETATM    3  C   UNL     1     -43.078  55.069 -51.970  1.00  0.00     0.184 C 
HETATM    4  S   UNL     1     -44.082  53.994 -51.173  1.00  0.00    -0.040 SA
HETATM    5  N   UNL     1     -41.894  54.846 -52.676  1.00  0.00    -0.257 N 
HETATM    6  C   UNL     1     -41.451  56.054 -53.190  1.00  0.00     0.254 C 
HETATM    7  O   UNL     1     -40.649  56.239 -54.097  1.00  0.00    -0.270 OA
ENDROOT
BRANCH   2   8
HETATM    8  C   UNL     1     -44.458  57.165 -51.350  1.00  0.00     0.128 C 
BRANCH   8   9
HETATM    9  C   UNL     1     -44.179  58.651 -51.091  1.00  0.00     0.048 C 
BRANCH   9  10
HETATM   10  C   UNL     1     -45.287  59.444 -50.398  1.00  0.00     0.236 C 
BRANCH  10  11
HETATM   11  N   UNL     1     -45.045  60.940 -50.353  1.00  0.00    -0.071 N 
HETATM   12  H   UNL     1     -44.100  61.131 -50.724  1.00  0.00     0.279 HD
HETATM   13  C   UNL     1     -46.055  61.705 -51.179  1.00  0.00     0.235 C 
HETATM   14  C   UNL     1     -45.790  63.203 -51.096  1.00  0.00     0.042 C 
HETATM   15  C   UNL     1     -45.807  63.710 -49.654  1.00  0.00     0.081 C 
HETATM   16  C   UNL     1     -44.824  62.903 -48.804  1.00  0.00     0.042 C 
HETATM   17  C   UNL     1     -45.029  61.396 -48.903  1.00  0.00     0.235 C 
BRANCH  15  18
HETATM   18  C   UNL     1     -47.221  63.638 -49.093  1.00  0.00     0.219 C 
HETATM   19  N   UNL     1     -48.194  64.167 -49.882  1.00  0.00    -0.370 N 
HETATM   20  H   UNL     1     -47.997  64.859 -50.595  1.00  0.00     0.159 HD
HETATM   21  H   UNL     1     -49.132  64.186 -49.493  1.00  0.00     0.159 HD
HETATM   22  O   UNL     1     -47.495  63.050 -48.055  1.00  0.00    -0.273 OA
ENDBRANCH  15  18
ENDBRANCH  10  11
ENDBRANCH   9  10
ENDBRANCH   8   9
ENDBRANCH   2   8
BRANCH   1  23
HETATM   23  C   UNL     1     -42.428  58.365 -53.421  1.00  0.00     0.138 C 
BRANCH  23  24
HETATM   24  C   UNL     1     -43.160  57.892 -54.665  1.00  0.00     0.224 C 
HETATM   25  N   UNL     1     -42.332  57.781 -55.761  1.00  0.00    -0.327 N 
HETATM   26  H   UNL     1     -41.384  58.118 -55.663  1.00  0.00     0.169 HD
HETATM   27  O   UNL     1     -44.361  57.656 -54.607  1.00  0.00    -0.273 OA
BRANCH  25  28
HETATM   28  C   UNL     1     -42.678  57.413 -57.076  1.00  0.00     0.034 A 
HETATM   29  C   UNL     1     -42.658  58.276 -58.171  1.00  0.00     0.032 A 
HETATM   30  C   UNL     1     -43.002  57.811 -59.450  1.00  0.00     0.039 A 
HETATM   31  C   UNL     1     -43.375  56.481 -59.640  1.00  0.00     0.068 A 
HETATM   32  C   UNL     1     -43.402  55.621 -58.544  1.00  0.00     0.039 A 
HETATM   33  C   UNL     1     -43.056  56.079 -57.273  1.00  0.00     0.032 A 
BRANCH  31  34
HETATM   34  O   UNL     1     -43.731  55.897 -60.822  1.00  0.00    -0.352 OA
BRANCH  34  35
HETATM   35  C   UNL     1     -44.838  55.000 -60.802  1.00  0.00     0.171 C 
HETATM   36  C   UNL     1     -46.103  55.829 -60.935  1.00  0.00     0.034 C 
ENDBRANCH  34  35
ENDBRANCH  31  34
ENDBRANCH  25  28
ENDBRANCH  23  24
ENDBRANCH   1  23
BRANCH   5  37
HETATM   37  C   UNL     1     -41.214  53.613 -52.981  1.00  0.00     0.045 A 
HETATM   38  C   UNL     1     -40.327  53.048 -52.038  1.00  0.00     0.032 A 
HETATM   39  C   UNL     1     -39.629  51.857 -52.284  1.00  0.00     0.026 A 
HETATM   40  C   UNL     1     -39.814  51.187 -53.482  1.00  0.00     0.034 A 
HETATM   41 CL   UNL     1     -38.967  49.727 -53.795  1.00  0.00    -0.084 Cl
HETATM   42  C   UNL     1     -40.686  51.706 -54.430  1.00  0.00     0.026 A 
HETATM   43  C   UNL     1     -41.370  52.908 -54.183  1.00  0.00     0.032 A 
ENDBRANCH   5  37
TORSDOF 11
ENDMDL
MODEL 10
REMARK VINA RESULT:      -6.8      5.461      8.242
REMARK  11 active torsions:
REMARK  status: ('A' for Active; 'I' for Inactive)
REMARK    1  A    between atoms: C_2  and  O_3 
REMARK    2  A    between atoms: O_3  and  C_4 
REMARK    3  A    between atoms: C_7  and  N_8 
REMARK       I    between atoms: N_8  and  C_9 
REMARK    4  A    between atoms: C_9  and  C_10 
REMARK    5  A    between atoms: C_10  and  C_11 
REMARK    6  A    between atoms: N_12  and  C_13 
REMARK    7  A    between atoms: C_13  and  C_14 
REMARK    8  A    between atoms: C_14  and  C_15 
REMARK    9  A    between atoms: C_15  and  N_16 
REMARK   10  A    between atoms: C_20  and  C_21 
REMARK       I    between atoms: C_21  and  N_22 
REMARK   11  A    between atoms: N_28  and  C_29 
ROOT
HETATM    1  C   UNL     1     -43.423  57.437 -55.091  1.00  0.00     0.188 C 
HETATM    2  N   UNL     1     -43.571  56.629 -53.882  1.00  0.00    -0.344 N 
HETATM    3  C   UNL     1     -43.752  57.473 -52.751  1.00  0.00     0.184 C 
HETATM    4  S   UNL     1     -44.282  56.881 -51.278  1.00  0.00    -0.040 SA
HETATM    5  N   UNL     1     -43.405  58.770 -53.132  1.00  0.00    -0.257 N 
HETATM    6  C   UNL     1     -42.989  58.747 -54.454  1.00  0.00     0.254 C 
HETATM    7  O   UNL     1     -42.331  59.589 -55.052  1.00  0.00    -0.270 OA
ENDROOT
BRANCH   2   8
HETATM    8  C   UNL     1     -43.895  55.197 -53.970  1.00  0.00     0.128 C 
BRANCH   8   9
HETATM    9  C   UNL     1     -42.850  54.282 -53.320  1.00  0.00     0.048 C 
BRANCH   9  10
HETATM   10  C   UNL     1     -41.958  53.481 -54.267  1.00  0.00     0.236 C 
BRANCH  10  11
HETATM   11  N   UNL     1     -40.628  53.067 -53.669  1.00  0.00    -0.071 N 
HETATM   12  H   UNL     1     -39.878  53.607 -54.131  1.00  0.00     0.279 HD
HETATM   13  C   UNL     1     -40.567  53.329 -52.180  1.00  0.00     0.235 C 
HETATM   14  C   UNL     1     -39.224  52.886 -51.614  1.00  0.00     0.042 C 
HETATM   15  C   UNL     1     -38.941  51.411 -51.894  1.00  0.00     0.081 C 
HETATM   16  C   UNL     1     -39.053  51.132 -53.394  1.00  0.00     0.042 C 
HETATM   17  C   UNL     1     -40.365  51.608 -54.004  1.00  0.00     0.235 C 
BRANCH  15  18
HETATM   18  C   UNL     1     -39.893  50.535 -51.090  1.00  0.00     0.219 C 
HETATM   19  N   UNL     1     -39.901  49.217 -51.423  1.00  0.00    -0.370 N 
HETATM   20  H   UNL     1     -39.596  48.884 -52.330  1.00  0.00     0.159 HD
HETATM   21  H   UNL     1     -40.578  48.632 -50.941  1.00  0.00     0.159 HD
HETATM   22  O   UNL     1     -40.533  50.953 -50.134  1.00  0.00    -0.273 OA
ENDBRANCH  15  18
ENDBRANCH  10  11
ENDBRANCH   9  10
ENDBRANCH   8   9
ENDBRANCH   2   8
BRANCH   1  23
HETATM   23  C   UNL     1     -42.417  56.944 -56.118  1.00  0.00     0.138 C 
BRANCH  23  24
HETATM   24  C   UNL     1     -42.996  57.078 -57.516  1.00  0.00     0.224 C 
HETATM   25  N   UNL     1     -44.318  56.695 -57.584  1.00  0.00    -0.327 N 
HETATM   26  H   UNL     1     -44.723  56.274 -56.758  1.00  0.00     0.169 HD
HETATM   27  O   UNL     1     -42.289  57.494 -58.426  1.00  0.00    -0.273 OA
BRANCH  25  28
HETATM   28  C   UNL     1     -45.150  56.651 -58.720  1.00  0.00     0.034 A 
HETATM   29  C   UNL     1     -45.069  55.687 -59.723  1.00  0.00     0.032 A 
HETATM   30  C   UNL     1     -45.958  55.714 -60.810  1.00  0.00     0.039 A 
HETATM   31  C   UNL     1     -46.929  56.710 -60.902  1.00  0.00     0.068 A 
HETATM   32  C   UNL     1     -47.005  57.678 -59.902  1.00  0.00     0.039 A 
HETATM   33  C   UNL     1     -46.126  57.651 -58.819  1.00  0.00     0.032 A 
BRANCH  31  34
HETATM   34  O   UNL     1     -47.853  56.856 -61.897  1.00  0.00    -0.352 OA
BRANCH  34  35
HETATM   35  C   UNL     1     -48.330  58.173 -62.159  1.00  0.00     0.171 C 
HETATM   36  C   UNL     1     -49.779  58.057 -62.597  1.00  0.00     0.034 C 
ENDBRANCH  34  35
ENDBRANCH  31  34
ENDBRANCH  25  28
ENDBRANCH  23  24
ENDBRANCH   1  23
BRANCH   5  37
HETATM   37  C   UNL     1     -43.343  59.981 -52.353  1.00  0.00     0.045 A 
HETATM   38  C   UNL     1     -42.396  60.099 -51.313  1.00  0.00     0.032 A 
HETATM   39  C   UNL     1     -42.297  61.247 -50.515  1.00  0.00     0.026 A 
HETATM   40  C   UNL     1     -43.139  62.322 -50.750  1.00  0.00     0.034 A 
HETATM   41 CL   UNL     1     -43.027  63.735 -49.782  1.00  0.00    -0.084 Cl
HETATM   42  C   UNL     1     -44.077  62.247 -51.771  1.00  0.00     0.026 A 
HETATM   43  C   UNL     1     -44.180  61.087 -52.556  1.00  0.00     0.032 A 
ENDBRANCH   5  37
TORSDOF 11
ENDMDL
