MODEL 1
REMARK VINA RESULT:      -8.5      0.000      0.000
REMARK  9 active torsions:
REMARK  status: ('A' for Active; 'I' for Inactive)
REMARK    1  A    between atoms: C_2  and  C_3 
REMARK    2  A    between atoms: C_3  and  O_4 
REMARK    3  A    between atoms: O_4  and  C_5 
REMARK    4  A    between atoms: C_8  and  C_9 
REMARK       I    between atoms: C_9  and  N_10 
REMARK    5  A    between atoms: N_10  and  C_11 
REMARK    6  A    between atoms: C_11  and  N_12 
REMARK    7  A    between atoms: N_12  and  C_13 
REMARK    8  A    between atoms: C_15  and  O_16 
REMARK    9  A    between atoms: C_17  and  C_18 
ROOT
HETATM    1  C   UNL     1     -43.324  58.890 -54.801  1.00  0.00     0.036 A 
HETATM    2  C   UNL     1     -44.129  57.756 -54.838  1.00  0.00     0.067 A 
HETATM    3  C   UNL     1     -43.601  56.493 -54.538  1.00  0.00     0.082 A 
HETATM    4  C   UNL     1     -42.248  56.324 -54.218  1.00  0.00     0.050 A 
HETATM    5  C   UNL     1     -41.433  57.462 -54.220  1.00  0.00     0.021 A 
HETATM    6  C   UNL     1     -41.964  58.726 -54.507  1.00  0.00     0.030 A 
ENDROOT
BRANCH   1   7
HETATM    7  N   UNL     1     -43.754  60.207 -55.062  1.00  0.00    -0.333 N 
HETATM    8  H   UNL     1     -43.946  60.766 -54.233  1.00  0.00     0.168 HD
BRANCH   7   9
HETATM    9  C   UNL     1     -43.968  60.924 -56.193  1.00  0.00     0.179 C 
HETATM   10  S   UNL     1     -45.550  61.217 -56.651  1.00  0.00    -0.040 SA
BRANCH   9  11
HETATM   11  N   UNL     1     -42.946  61.421 -56.934  1.00  0.00    -0.299 N 
HETATM   12  C   UNL     1     -42.051  60.660 -57.669  1.00  0.00     0.257 C 
HETATM   13  O   UNL     1     -40.861  60.959 -57.728  1.00  0.00    -0.267 OA
HETATM   14  H   UNL     1     -42.420  62.132 -56.444  1.00  0.00     0.171 HD
BRANCH  12  15
HETATM   15  C   UNL     1     -42.551  59.514 -58.447  1.00  0.00     0.032 A 
HETATM   16  C   UNL     1     -43.305  59.788 -59.591  1.00  0.00     0.020 A 
HETATM   17  C   UNL     1     -43.724  58.743 -60.420  1.00  0.00     0.038 A 
HETATM   18  C   UNL     1     -43.380  57.424 -60.115  1.00  0.00     0.068 A 
HETATM   19  C   UNL     1     -42.627  57.160 -58.965  1.00  0.00     0.038 A 
HETATM   20  C   UNL     1     -42.197  58.200 -58.137  1.00  0.00     0.020 A 
BRANCH  18  21
HETATM   21  O   UNL     1     -43.710  56.322 -60.855  1.00  0.00    -0.351 OA
BRANCH  21  22
HETATM   22  C   UNL     1     -44.666  55.430 -60.279  1.00  0.00     0.175 C 
BRANCH  22  23
HETATM   23  C   UNL     1     -46.037  55.759 -60.860  1.00  0.00     0.022 C 
HETATM   24  C   UNL     1     -46.882  56.562 -59.886  1.00  0.00     0.007 C 
ENDBRANCH  22  23
ENDBRANCH  21  22
ENDBRANCH  18  21
ENDBRANCH  12  15
ENDBRANCH   9  11
ENDBRANCH   7   9
ENDBRANCH   1   7
BRANCH   3  25
HETATM   25  O   UNL     1     -44.497  55.457 -54.610  1.00  0.00    -0.360 OA
HETATM   26  H   UNL     1     -45.212  55.609 -53.966  1.00  0.00     0.217 HD
ENDBRANCH   3  25
BRANCH   4  27
HETATM   27  C   UNL     1     -41.655  55.029 -53.907  1.00  0.00     0.183 A 
HETATM   28  O   UNL     1     -41.152  54.887 -52.638  1.00  0.00    -0.288 OA
HETATM   29  C   UNL     1     -40.648  53.618 -52.617  1.00  0.00     0.112 A 
HETATM   30  C   UNL     1     -40.888  53.055 -53.858  1.00  0.00     0.094 A 
HETATM   31  C   UNL     1     -40.010  52.983 -51.552  1.00  0.00    -0.025 A 
HETATM   32  N   UNL     1     -41.509  53.966 -54.676  1.00  0.00    -0.221 NA
HETATM   33  C   UNL     1     -40.493  51.733 -54.092  1.00  0.00     0.041 A 
HETATM   34  C   UNL     1     -39.842  51.033 -53.058  1.00  0.00    -0.059 A 
HETATM   35  C   UNL     1     -39.613  51.657 -51.817  1.00  0.00     0.016 A 
HETATM   36  C   UNL     1     -39.446  49.599 -53.264  1.00  0.00     0.048 C 
HETATM   37  C   UNL     1     -39.719  53.632 -50.238  1.00  0.00     0.051 C 
ENDBRANCH   4  27
TORSDOF 9
ENDMDL
MODEL 2
REMARK VINA RESULT:      -8.2      2.094      2.801
REMARK  9 active torsions:
REMARK  status: ('A' for Active; 'I' for Inactive)
REMARK    1  A    between atoms: C_2  and  C_3 
REMARK    2  A    between atoms: C_3  and  O_4 
REMARK    3  A    between atoms: O_4  and  C_5 
REMARK    4  A    between atoms: C_8  and  C_9 
REMARK       I    between atoms: C_9  and  N_10 
REMARK    5  A    between atoms: N_10  and  C_11 
REMARK    6  A    between atoms: C_11  and  N_12 
REMARK    7  A    between atoms: N_12  and  C_13 
REMARK    8  A    between atoms: C_15  and  O_16 
REMARK    9  A    between atoms: C_17  and  C_18 
ROOT
HETATM    1  C   UNL     1     -42.955  59.716 -52.702  1.00  0.00     0.036 A 
HETATM    2  C   UNL     1     -43.700  58.650 -52.208  1.00  0.00     0.067 A 
HETATM    3  C   UNL     1     -43.229  57.336 -52.319  1.00  0.00     0.082 A 
HETATM    4  C   UNL     1     -42.014  57.045 -52.951  1.00  0.00     0.050 A 
HETATM    5  C   UNL     1     -41.286  58.117 -53.483  1.00  0.00     0.021 A 
HETATM    6  C   UNL     1     -41.750  59.433 -53.359  1.00  0.00     0.030 A 
ENDROOT
BRANCH   1   7
HETATM    7  N   UNL     1     -43.321  61.075 -52.624  1.00  0.00    -0.333 N 
HETATM    8  H   UNL     1     -43.037  61.546 -51.767  1.00  0.00     0.168 HD
BRANCH   7   9
HETATM    9  C   UNL     1     -43.972  61.928 -53.454  1.00  0.00     0.179 C 
HETATM   10  S   UNL     1     -43.195  63.342 -53.896  1.00  0.00    -0.040 SA
BRANCH   9  11
HETATM   11  N   UNL     1     -45.207  61.654 -53.944  1.00  0.00    -0.299 N 
HETATM   12  C   UNL     1     -45.468  61.118 -55.195  1.00  0.00     0.257 C 
HETATM   13  O   UNL     1     -46.427  61.497 -55.863  1.00  0.00    -0.267 OA
HETATM   14  H   UNL     1     -45.863  62.407 -53.786  1.00  0.00     0.171 HD
BRANCH  12  15
HETATM   15  C   UNL     1     -44.618  60.026 -55.701  1.00  0.00     0.032 A 
HETATM   16  C   UNL     1     -45.028  58.716 -55.444  1.00  0.00     0.020 A 
HETATM   17  C   UNL     1     -44.313  57.641 -55.981  1.00  0.00     0.038 A 
HETATM   18  C   UNL     1     -43.195  57.873 -56.785  1.00  0.00     0.068 A 
HETATM   19  C   UNL     1     -42.791  59.191 -57.034  1.00  0.00     0.038 A 
HETATM   20  C   UNL     1     -43.506  60.270 -56.508  1.00  0.00     0.020 A 
BRANCH  18  21
HETATM   21  O   UNL     1     -42.427  56.912 -57.383  1.00  0.00    -0.351 OA
BRANCH  21  22
HETATM   22  C   UNL     1     -43.099  55.716 -57.784  1.00  0.00     0.175 C 
BRANCH  22  23
HETATM   23  C   UNL     1     -43.250  55.739 -59.302  1.00  0.00     0.022 C 
HETATM   24  C   UNL     1     -44.302  54.751 -59.775  1.00  0.00     0.007 C 
ENDBRANCH  22  23
ENDBRANCH  21  22
ENDBRANCH  18  21
ENDBRANCH  12  15
ENDBRANCH   9  11
ENDBRANCH   7   9
ENDBRANCH   1   7
BRANCH   3  25
HETATM   25  O   UNL     1     -44.056  56.376 -51.792  1.00  0.00    -0.360 OA
HETATM   26  H   UNL     1     -43.624  55.506 -51.871  1.00  0.00     0.217 HD
ENDBRANCH   3  25
BRANCH   4  27
HETATM   27  C   UNL     1     -41.490  55.692 -53.097  1.00  0.00     0.183 A 
HETATM   28  O   UNL     1     -41.216  55.025 -51.929  1.00  0.00    -0.288 OA
HETATM   29  C   UNL     1     -40.730  53.817 -52.340  1.00  0.00     0.112 A 
HETATM   30  C   UNL     1     -40.753  53.808 -53.724  1.00  0.00     0.094 A 
HETATM   31  C   UNL     1     -40.290  52.768 -51.534  1.00  0.00    -0.025 A 
HETATM   32  N   UNL     1     -41.218  55.012 -54.194  1.00  0.00    -0.221 NA
HETATM   33  C   UNL     1     -40.330  52.660 -54.404  1.00  0.00     0.041 A 
HETATM   34  C   UNL     1     -39.872  51.563 -53.649  1.00  0.00    -0.059 A 
HETATM   35  C   UNL     1     -39.859  51.629 -52.243  1.00  0.00     0.016 A 
HETATM   36  C   UNL     1     -39.452  50.302 -54.348  1.00  0.00     0.048 C 
HETATM   37  C   UNL     1     -40.228  52.822 -50.042  1.00  0.00     0.051 C 
ENDBRANCH   4  27
TORSDOF 9
ENDMDL
MODEL 3
REMARK VINA RESULT:      -8.1      3.117      5.001
REMARK  9 active torsions:
REMARK  status: ('A' for Active; 'I' for Inactive)
REMARK    1  A    between atoms: C_2  and  C_3 
REMARK    2  A    between atoms: C_3  and  O_4 
REMARK    3  A    between atoms: O_4  and  C_5 
REMARK    4  A    between atoms: C_8  and  C_9 
REMARK       I    between atoms: C_9  and  N_10 
REMARK    5  A    between atoms: N_10  and  C_11 
REMARK    6  A    between atoms: C_11  and  N_12 
REMARK    7  A    between atoms: N_12  and  C_13 
REMARK    8  A    between atoms: C_15  and  O_16 
REMARK    9  A    between atoms: C_17  and  C_18 
ROOT
HETATM    1  C   UNL     1     -41.504  59.188 -51.128  1.00  0.00     0.036 A 
HETATM    2  C   UNL     1     -41.402  58.915 -52.489  1.00  0.00     0.067 A 
HETATM    3  C   UNL     1     -41.165  57.610 -52.941  1.00  0.00     0.082 A 
HETATM    4  C   UNL     1     -40.997  56.546 -52.046  1.00  0.00     0.050 A 
HETATM    5  C   UNL     1     -41.061  56.832 -50.677  1.00  0.00     0.021 A 
HETATM    6  C   UNL     1     -41.311  58.134 -50.225  1.00  0.00     0.030 A 
ENDROOT
BRANCH   1   7
HETATM    7  N   UNL     1     -41.761  60.455 -50.566  1.00  0.00    -0.333 N 
HETATM    8  H   UNL     1     -40.932  61.009 -50.364  1.00  0.00     0.168 HD
BRANCH   7   9
HETATM    9  C   UNL     1     -42.890  61.130 -50.234  1.00  0.00     0.179 C 
HETATM   10  S   UNL     1     -42.973  62.757 -50.615  1.00  0.00    -0.040 SA
BRANCH   9  11
HETATM   11  N   UNL     1     -43.942  60.522 -49.632  1.00  0.00    -0.299 N 
HETATM   12  C   UNL     1     -45.080  60.070 -50.281  1.00  0.00     0.257 C 
HETATM   13  O   UNL     1     -46.192  60.184 -49.771  1.00  0.00    -0.267 OA
HETATM   14  H   UNL     1     -44.234  60.997 -48.789  1.00  0.00     0.171 HD
BRANCH  12  15
HETATM   15  C   UNL     1     -44.942  59.378 -51.575  1.00  0.00     0.032 A 
HETATM   16  C   UNL     1     -44.753  57.995 -51.552  1.00  0.00     0.020 A 
HETATM   17  C   UNL     1     -44.713  57.274 -52.749  1.00  0.00     0.038 A 
HETATM   18  C   UNL     1     -44.873  57.932 -53.970  1.00  0.00     0.068 A 
HETATM   19  C   UNL     1     -45.059  59.320 -53.983  1.00  0.00     0.038 A 
HETATM   20  C   UNL     1     -45.110  60.045 -52.790  1.00  0.00     0.020 A 
BRANCH  18  21
HETATM   21  O   UNL     1     -44.873  57.339 -55.203  1.00  0.00    -0.351 OA
BRANCH  21  22
HETATM   22  C   UNL     1     -44.753  58.208 -56.330  1.00  0.00     0.175 C 
BRANCH  22  23
HETATM   23  C   UNL     1     -43.451  57.877 -57.053  1.00  0.00     0.022 C 
HETATM   24  C   UNL     1     -42.509  59.068 -57.086  1.00  0.00     0.007 C 
ENDBRANCH  22  23
ENDBRANCH  21  22
ENDBRANCH  18  21
ENDBRANCH  12  15
ENDBRANCH   9  11
ENDBRANCH   7   9
ENDBRANCH   1   7
BRANCH   3  25
HETATM   25  O   UNL     1     -41.087  57.472 -54.303  1.00  0.00    -0.360 OA
HETATM   26  H   UNL     1     -41.770  58.029 -54.719  1.00  0.00     0.217 HD
ENDBRANCH   3  25
BRANCH   4  27
HETATM   27  C   UNL     1     -40.741  55.175 -52.471  1.00  0.00     0.183 A 
HETATM   28  O   UNL     1     -40.636  54.244 -51.468  1.00  0.00    -0.288 OA
HETATM   29  C   UNL     1     -40.382  53.073 -52.123  1.00  0.00     0.112 A 
HETATM   30  C   UNL     1     -40.366  53.350 -53.479  1.00  0.00     0.094 A 
HETATM   31  C   UNL     1     -40.177  51.817 -51.553  1.00  0.00    -0.025 A 
HETATM   32  N   UNL     1     -40.575  54.691 -53.688  1.00  0.00    -0.221 NA
HETATM   33  C   UNL     1     -40.154  52.303 -54.383  1.00  0.00     0.041 A 
HETATM   34  C   UNL     1     -39.940  51.008 -53.874  1.00  0.00    -0.059 A 
HETATM   35  C   UNL     1     -39.955  50.783 -52.484  1.00  0.00     0.016 A 
HETATM   36  C   UNL     1     -39.753  49.857 -54.821  1.00  0.00     0.048 C 
HETATM   37  C   UNL     1     -40.150  51.555 -50.082  1.00  0.00     0.051 C 
ENDBRANCH   4  27
TORSDOF 9
ENDMDL
MODEL 4
REMARK VINA RESULT:      -7.8      2.740      8.146
REMARK  9 active torsions:
REMARK  status: ('A' for Active; 'I' for Inactive)
REMARK    1  A    between atoms: C_2  and  C_3 
REMARK    2  A    between atoms: C_3  and  O_4 
REMARK    3  A    between atoms: O_4  and  C_5 
REMARK    4  A    between atoms: C_8  and  C_9 
REMARK       I    between atoms: C_9  and  N_10 
REMARK    5  A    between atoms: N_10  and  C_11 
REMARK    6  A    between atoms: C_11  and  N_12 
REMARK    7  A    between atoms: N_12  and  C_13 
REMARK    8  A    between atoms: C_15  and  O_16 
REMARK    9  A    between atoms: C_17  and  C_18 
ROOT
HETATM    1  C   UNL     1     -43.010  59.101 -53.867  1.00  0.00     0.036 A 
HETATM    2  C   UNL     1     -42.297  58.657 -54.976  1.00  0.00     0.067 A 
HETATM    3  C   UNL     1     -42.960  58.304 -56.159  1.00  0.00     0.082 A 
HETATM    4  C   UNL     1     -44.355  58.359 -56.259  1.00  0.00     0.050 A 
HETATM    5  C   UNL     1     -45.072  58.768 -55.128  1.00  0.00     0.021 A 
HETATM    6  C   UNL     1     -44.408  59.134 -53.950  1.00  0.00     0.030 A 
ENDROOT
BRANCH   1   7
HETATM    7  N   UNL     1     -42.445  59.502 -52.639  1.00  0.00    -0.333 N 
HETATM    8  H   UNL     1     -42.357  60.509 -52.518  1.00  0.00     0.168 HD
BRANCH   7   9
HETATM    9  C   UNL     1     -41.990  58.839 -51.548  1.00  0.00     0.179 C 
HETATM   10  S   UNL     1     -40.356  58.926 -51.200  1.00  0.00    -0.040 SA
BRANCH   9  11
HETATM   11  N   UNL     1     -42.818  58.138 -50.732  1.00  0.00    -0.299 N 
HETATM   12  C   UNL     1     -43.452  56.953 -51.069  1.00  0.00     0.257 C 
HETATM   13  O   UNL     1     -44.604  56.723 -50.709  1.00  0.00    -0.267 OA
HETATM   14  H   UNL     1     -43.492  58.729 -50.264  1.00  0.00     0.171 HD
BRANCH  12  15
HETATM   15  C   UNL     1     -42.704  55.923 -51.811  1.00  0.00     0.032 A 
HETATM   16  C   UNL     1     -43.117  55.638 -53.115  1.00  0.00     0.020 A 
HETATM   17  C   UNL     1     -42.386  54.740 -53.899  1.00  0.00     0.038 A 
HETATM   18  C   UNL     1     -41.236  54.136 -53.387  1.00  0.00     0.068 A 
HETATM   19  C   UNL     1     -40.833  54.426 -52.078  1.00  0.00     0.038 A 
HETATM   20  C   UNL     1     -41.553  55.329 -51.292  1.00  0.00     0.020 A 
BRANCH  18  21
HETATM   21  O   UNL     1     -40.427  53.260 -54.059  1.00  0.00    -0.351 OA
BRANCH  21  22
HETATM   22  C   UNL     1     -40.131  52.029 -53.398  1.00  0.00     0.175 C 
BRANCH  22  23
HETATM   23  C   UNL     1     -40.464  50.883 -54.348  1.00  0.00     0.022 C 
HETATM   24  C   UNL     1     -39.412  49.788 -54.296  1.00  0.00     0.007 C 
ENDBRANCH  22  23
ENDBRANCH  21  22
ENDBRANCH  18  21
ENDBRANCH  12  15
ENDBRANCH   9  11
ENDBRANCH   7   9
ENDBRANCH   1   7
BRANCH   3  25
HETATM   25  O   UNL     1     -42.144  57.883 -57.179  1.00  0.00    -0.360 OA
HETATM   26  H   UNL     1     -41.415  58.521 -57.287  1.00  0.00     0.217 HD
ENDBRANCH   3  25
BRANCH   4  27
HETATM   27  C   UNL     1     -45.087  57.993 -57.467  1.00  0.00     0.183 A 
HETATM   28  O   UNL     1     -44.637  56.877 -58.127  1.00  0.00    -0.288 OA
HETATM   29  C   UNL     1     -45.465  56.771 -59.208  1.00  0.00     0.112 A 
HETATM   30  C   UNL     1     -46.378  57.809 -59.136  1.00  0.00     0.094 A 
HETATM   31  C   UNL     1     -45.422  55.803 -60.210  1.00  0.00    -0.025 A 
HETATM   32  N   UNL     1     -46.115  58.591 -58.037  1.00  0.00    -0.221 NA
HETATM   33  C   UNL     1     -47.368  57.912 -60.119  1.00  0.00     0.041 A 
HETATM   34  C   UNL     1     -47.381  56.966 -61.161  1.00  0.00    -0.059 A 
HETATM   35  C   UNL     1     -46.422  55.936 -61.193  1.00  0.00     0.016 A 
HETATM   36  C   UNL     1     -48.458  57.025 -62.207  1.00  0.00     0.048 C 
HETATM   37  C   UNL     1     -44.394  54.721 -60.291  1.00  0.00     0.051 C 
ENDBRANCH   4  27
TORSDOF 9
ENDMDL
MODEL 5
REMARK VINA RESULT:      -7.7     16.510     19.917
REMARK  9 active torsions:
REMARK  status: ('A' for Active; 'I' for Inactive)
REMARK    1  A    between atoms: C_2  and  C_3 
REMARK    2  A    between atoms: C_3  and  O_4 
REMARK    3  A    between atoms: O_4  and  C_5 
REMARK    4  A    between atoms: C_8  and  C_9 
REMARK       I    between atoms: C_9  and  N_10 
REMARK    5  A    between atoms: N_10  and  C_11 
REMARK    6  A    between atoms: C_11  and  N_12 
REMARK    7  A    between atoms: N_12  and  C_13 
REMARK    8  A    between atoms: C_15  and  O_16 
REMARK    9  A    between atoms: C_17  and  C_18 
ROOT
HETATM    1  C   UNL     1     -35.721  40.497 -52.258  1.00  0.00     0.036 A 
HETATM    2  C   UNL     1     -36.303  41.506 -53.019  1.00  0.00     0.067 A 
HETATM    3  C   UNL     1     -36.696  41.269 -54.342  1.00  0.00     0.082 A 
HETATM    4  C   UNL     1     -36.496  40.025 -54.952  1.00  0.00     0.050 A 
HETATM    5  C   UNL     1     -35.873  39.023 -54.196  1.00  0.00     0.021 A 
HETATM    6  C   UNL     1     -35.493  39.257 -52.869  1.00  0.00     0.030 A 
ENDROOT
BRANCH   1   7
HETATM    7  N   UNL     1     -35.310  40.620 -50.915  1.00  0.00    -0.333 N 
HETATM    8  H   UNL     1     -35.737  41.391 -50.406  1.00  0.00     0.168 HD
BRANCH   7   9
HETATM    9  C   UNL     1     -34.462  39.922 -50.119  1.00  0.00     0.179 C 
HETATM   10  S   UNL     1     -34.969  38.436 -49.542  1.00  0.00    -0.040 SA
BRANCH   9  11
HETATM   11  N   UNL     1     -33.225  40.383 -49.805  1.00  0.00    -0.299 N 
HETATM   12  C   UNL     1     -32.034  39.854 -50.276  1.00  0.00     0.257 C 
HETATM   13  O   UNL     1     -31.046  39.765 -49.551  1.00  0.00    -0.267 OA
HETATM   14  H   UNL     1     -33.117  40.559 -48.816  1.00  0.00     0.171 HD
BRANCH  12  15
HETATM   15  C   UNL     1     -31.934  39.458 -51.692  1.00  0.00     0.032 A 
HETATM   16  C   UNL     1     -31.900  38.092 -51.981  1.00  0.00     0.020 A 
HETATM   17  C   UNL     1     -31.902  37.657 -53.309  1.00  0.00     0.038 A 
HETATM   18  C   UNL     1     -31.950  38.586 -54.352  1.00  0.00     0.068 A 
HETATM   19  C   UNL     1     -31.980  39.953 -54.052  1.00  0.00     0.038 A 
HETATM   20  C   UNL     1     -31.988  40.394 -52.726  1.00  0.00     0.020 A 
BRANCH  18  21
HETATM   21  O   UNL     1     -31.977  38.287 -55.686  1.00  0.00    -0.351 OA
BRANCH  21  22
HETATM   22  C   UNL     1     -32.183  39.382 -56.581  1.00  0.00     0.175 C 
BRANCH  22  23
HETATM   23  C   UNL     1     -33.548  39.211 -57.240  1.00  0.00     0.022 C 
HETATM   24  C   UNL     1     -33.866  37.748 -57.499  1.00  0.00     0.007 C 
ENDBRANCH  22  23
ENDBRANCH  21  22
ENDBRANCH  18  21
ENDBRANCH  12  15
ENDBRANCH   9  11
ENDBRANCH   7   9
ENDBRANCH   1   7
BRANCH   3  25
HETATM   25  O   UNL     1     -37.257  42.344 -54.984  1.00  0.00    -0.360 OA
HETATM   26  H   UNL     1     -37.128  42.244 -55.945  1.00  0.00     0.217 HD
ENDBRANCH   3  25
BRANCH   4  27
HETATM   27  C   UNL     1     -36.881  39.736 -56.329  1.00  0.00     0.183 A 
HETATM   28  O   UNL     1     -36.849  40.798 -57.197  1.00  0.00    -0.288 OA
HETATM   29  C   UNL     1     -37.265  40.270 -58.386  1.00  0.00     0.112 A 
HETATM   30  C   UNL     1     -37.506  38.923 -58.182  1.00  0.00     0.094 A 
HETATM   31  C   UNL     1     -37.421  40.943 -59.597  1.00  0.00    -0.025 A 
HETATM   32  N   UNL     1     -37.279  38.598 -56.867  1.00  0.00    -0.221 NA
HETATM   33  C   UNL     1     -37.918  38.135 -59.263  1.00  0.00     0.041 A 
HETATM   34  C   UNL     1     -38.096  38.753 -60.515  1.00  0.00    -0.059 A 
HETATM   35  C   UNL     1     -37.848  40.130 -60.666  1.00  0.00     0.016 A 
HETATM   36  C   UNL     1     -38.496  37.925 -61.703  1.00  0.00     0.048 C 
HETATM   37  C   UNL     1     -37.202  42.410 -59.779  1.00  0.00     0.051 C 
ENDBRANCH   4  27
TORSDOF 9
ENDMDL
MODEL 6
REMARK VINA RESULT:      -7.6      2.740      8.766
REMARK  9 active torsions:
REMARK  status: ('A' for Active; 'I' for Inactive)
REMARK    1  A    between atoms: C_2  and  C_3 
REMARK    2  A    between atoms: C_3  and  O_4 
REMARK    3  A    between atoms: O_4  and  C_5 
REMARK    4  A    between atoms: C_8  and  C_9 
REMARK       I    between atoms: C_9  and  N_10 
REMARK    5  A    between atoms: N_10  and  C_11 
REMARK    6  A    between atoms: C_11  and  N_12 
REMARK    7  A    between atoms: N_12  and  C_13 
REMARK    8  A    between atoms: C_15  and  O_16 
REMARK    9  A    between atoms: C_17  and  C_18 
ROOT
HETATM    1  C   UNL     1     -41.765  57.509 -53.782  1.00  0.00     0.036 A 
HETATM    2  C   UNL     1     -41.588  56.613 -54.832  1.00  0.00     0.067 A 
HETATM    3  C   UNL     1     -42.420  56.658 -55.959  1.00  0.00     0.082 A 
HETATM    4  C   UNL     1     -43.469  57.580 -56.057  1.00  0.00     0.050 A 
HETATM    5  C   UNL     1     -43.669  58.453 -54.980  1.00  0.00     0.021 A 
HETATM    6  C   UNL     1     -42.828  58.418 -53.860  1.00  0.00     0.030 A 
ENDROOT
BRANCH   1   7
HETATM    7  N   UNL     1     -40.975  57.567 -52.616  1.00  0.00    -0.333 N 
HETATM    8  H   UNL     1     -39.998  57.314 -52.749  1.00  0.00     0.168 HD
BRANCH   7   9
HETATM    9  C   UNL     1     -41.219  57.903 -51.325  1.00  0.00     0.179 C 
HETATM   10  S   UNL     1     -40.324  59.148 -50.654  1.00  0.00    -0.040 SA
BRANCH   9  11
HETATM   11  N   UNL     1     -42.171  57.280 -50.586  1.00  0.00    -0.299 N 
HETATM   12  C   UNL     1     -42.635  55.993 -50.806  1.00  0.00     0.257 C 
HETATM   13  O   UNL     1     -43.823  55.713 -50.666  1.00  0.00    -0.267 OA
HETATM   14  H   UNL     1     -42.970  57.872 -50.404  1.00  0.00     0.171 HD
BRANCH  12  15
HETATM   15  C   UNL     1     -41.673  54.930 -51.144  1.00  0.00     0.032 A 
HETATM   16  C   UNL     1     -40.676  54.638 -50.211  1.00  0.00     0.020 A 
HETATM   17  C   UNL     1     -39.795  53.576 -50.437  1.00  0.00     0.038 A 
HETATM   18  C   UNL     1     -39.918  52.795 -51.589  1.00  0.00     0.068 A 
HETATM   19  C   UNL     1     -40.920  53.098 -52.519  1.00  0.00     0.038 A 
HETATM   20  C   UNL     1     -41.809  54.152 -52.296  1.00  0.00     0.020 A 
BRANCH  18  21
HETATM   21  O   UNL     1     -39.136  51.721 -51.912  1.00  0.00    -0.351 OA
BRANCH  21  22
HETATM   22  C   UNL     1     -39.738  50.431 -51.787  1.00  0.00     0.175 C 
BRANCH  22  23
HETATM   23  C   UNL     1     -39.383  49.616 -53.027  1.00  0.00     0.022 C 
HETATM   24  C   UNL     1     -40.101  50.134 -54.262  1.00  0.00     0.007 C 
ENDBRANCH  22  23
ENDBRANCH  21  22
ENDBRANCH  18  21
ENDBRANCH  12  15
ENDBRANCH   9  11
ENDBRANCH   7   9
ENDBRANCH   1   7
BRANCH   3  25
HETATM   25  O   UNL     1     -42.142  55.722 -56.923  1.00  0.00    -0.360 OA
HETATM   26  H   UNL     1     -41.356  56.007 -57.425  1.00  0.00     0.217 HD
ENDBRANCH   3  25
BRANCH   4  27
HETATM   27  C   UNL     1     -44.364  57.656 -57.206  1.00  0.00     0.183 A 
HETATM   28  O   UNL     1     -44.376  56.560 -58.032  1.00  0.00    -0.288 OA
HETATM   29  C   UNL     1     -45.262  56.893 -59.016  1.00  0.00     0.112 A 
HETATM   30  C   UNL     1     -45.751  58.155 -58.726  1.00  0.00     0.094 A 
HETATM   31  C   UNL     1     -45.627  56.119 -60.117  1.00  0.00    -0.025 A 
HETATM   32  N   UNL     1     -45.158  58.639 -57.586  1.00  0.00    -0.221 NA
HETATM   33  C   UNL     1     -46.710  58.723 -59.573  1.00  0.00     0.041 A 
HETATM   34  C   UNL     1     -47.122  57.994 -60.705  1.00  0.00    -0.059 A 
HETATM   35  C   UNL     1     -46.585  56.718 -60.959  1.00  0.00     0.016 A 
HETATM   36  C   UNL     1     -48.181  58.559 -61.608  1.00  0.00     0.048 C 
HETATM   37  C   UNL     1     -45.046  54.779 -60.433  1.00  0.00     0.051 C 
ENDBRANCH   4  27
TORSDOF 9
ENDMDL
MODEL 7
REMARK VINA RESULT:      -7.5      2.862      8.961
REMARK  9 active torsions:
REMARK  status: ('A' for Active; 'I' for Inactive)
REMARK    1  A    between atoms: C_2  and  C_3 
REMARK    2  A    between atoms: C_3  and  O_4 
REMARK    3  A    between atoms: O_4  and  C_5 
REMARK    4  A    between atoms: C_8  and  C_9 
REMARK       I    between atoms: C_9  and  N_10 
REMARK    5  A    between atoms: N_10  and  C_11 
REMARK    6  A    between atoms: C_11  and  N_12 
REMARK    7  A    between atoms: N_12  and  C_13 
REMARK    8  A    between atoms: C_15  and  O_16 
REMARK    9  A    between atoms: C_17  and  C_18 
ROOT
HETATM    1  C   UNL     1     -42.182  58.107 -53.947  1.00  0.00     0.036 A 
HETATM    2  C   UNL     1     -42.195  57.294 -55.076  1.00  0.00     0.067 A 
HETATM    3  C   UNL     1     -42.106  57.849 -56.359  1.00  0.00     0.082 A 
HETATM    4  C   UNL     1     -42.028  59.234 -56.552  1.00  0.00     0.050 A 
HETATM    5  C   UNL     1     -42.056  60.051 -55.415  1.00  0.00     0.021 A 
HETATM    6  C   UNL     1     -42.131  59.495 -54.132  1.00  0.00     0.030 A 
ENDROOT
BRANCH   1   7
HETATM    7  N   UNL     1     -42.244  57.654 -52.613  1.00  0.00    -0.333 N 
HETATM    8  H   UNL     1     -41.340  57.510 -52.169  1.00  0.00     0.168 HD
BRANCH   7   9
HETATM    9  C   UNL     1     -43.257  57.370 -51.758  1.00  0.00     0.179 C 
HETATM   10  S   UNL     1     -44.784  57.947 -52.127  1.00  0.00    -0.040 SA
BRANCH   9  11
HETATM   11  N   UNL     1     -43.070  56.621 -50.642  1.00  0.00    -0.299 N 
HETATM   12  C   UNL     1     -43.011  55.237 -50.611  1.00  0.00     0.257 C 
HETATM   13  O   UNL     1     -43.518  54.600 -49.691  1.00  0.00    -0.267 OA
HETATM   14  H   UNL     1     -43.647  56.925 -49.870  1.00  0.00     0.171 HD
BRANCH  12  15
HETATM   15  C   UNL     1     -42.267  54.525 -51.664  1.00  0.00     0.032 A 
HETATM   16  C   UNL     1     -40.997  54.041 -51.344  1.00  0.00     0.020 A 
HETATM   17  C   UNL     1     -40.285  53.276 -52.272  1.00  0.00     0.038 A 
HETATM   18  C   UNL     1     -40.846  52.981 -53.517  1.00  0.00     0.068 A 
HETATM   19  C   UNL     1     -42.119  53.474 -53.829  1.00  0.00     0.038 A 
HETATM   20  C   UNL     1     -42.840  54.232 -52.903  1.00  0.00     0.020 A 
BRANCH  18  21
HETATM   21  O   UNL     1     -40.262  52.229 -54.499  1.00  0.00    -0.351 OA
BRANCH  21  22
HETATM   22  C   UNL     1     -40.563  50.832 -54.497  1.00  0.00     0.175 C 
BRANCH  22  23
HETATM   23  C   UNL     1     -39.327  50.079 -54.015  1.00  0.00     0.022 C 
HETATM   24  C   UNL     1     -39.561  49.425 -52.664  1.00  0.00     0.007 C 
ENDBRANCH  22  23
ENDBRANCH  21  22
ENDBRANCH  18  21
ENDBRANCH  12  15
ENDBRANCH   9  11
ENDBRANCH   7   9
ENDBRANCH   1   7
BRANCH   3  25
HETATM   25  O   UNL     1     -42.128  56.942 -57.388  1.00  0.00    -0.360 OA
HETATM   26  H   UNL     1     -41.424  56.284 -57.247  1.00  0.00     0.217 HD
ENDBRANCH   3  25
BRANCH   4  27
HETATM   27  C   UNL     1     -41.942  59.856 -57.869  1.00  0.00     0.183 A 
HETATM   28  O   UNL     1     -41.050  60.892 -57.986  1.00  0.00    -0.288 OA
HETATM   29  C   UNL     1     -41.179  61.299 -59.284  1.00  0.00     0.112 A 
HETATM   30  C   UNL     1     -42.121  60.481 -59.884  1.00  0.00     0.094 A 
HETATM   31  C   UNL     1     -40.496  62.339 -59.912  1.00  0.00    -0.025 A 
HETATM   32  N   UNL     1     -42.614  59.582 -58.971  1.00  0.00    -0.221 NA
HETATM   33  C   UNL     1     -42.420  60.670 -61.238  1.00  0.00     0.041 A 
HETATM   34  C   UNL     1     -41.765  61.705 -61.933  1.00  0.00    -0.059 A 
HETATM   35  C   UNL     1     -40.823  62.515 -61.271  1.00  0.00     0.016 A 
HETATM   36  C   UNL     1     -42.033  61.904 -63.397  1.00  0.00     0.048 C 
HETATM   37  C   UNL     1     -39.520  63.240 -59.226  1.00  0.00     0.051 C 
ENDBRANCH   4  27
TORSDOF 9
ENDMDL
MODEL 8
REMARK VINA RESULT:      -7.4      4.132      8.146
REMARK  9 active torsions:
REMARK  status: ('A' for Active; 'I' for Inactive)
REMARK    1  A    between atoms: C_2  and  C_3 
REMARK    2  A    between atoms: C_3  and  O_4 
REMARK    3  A    between atoms: O_4  and  C_5 
REMARK    4  A    between atoms: C_8  and  C_9 
REMARK       I    between atoms: C_9  and  N_10 
REMARK    5  A    between atoms: N_10  and  C_11 
REMARK    6  A    between atoms: C_11  and  N_12 
REMARK    7  A    between atoms: N_12  and  C_13 
REMARK    8  A    between atoms: C_15  and  O_16 
REMARK    9  A    between atoms: C_17  and  C_18 
ROOT
HETATM    1  C   UNL     1     -41.061  54.939 -51.009  1.00  0.00     0.036 A 
HETATM    2  C   UNL     1     -42.412  54.759 -50.728  1.00  0.00     0.067 A 
HETATM    3  C   UNL     1     -43.312  55.828 -50.829  1.00  0.00     0.082 A 
HETATM    4  C   UNL     1     -42.885  57.112 -51.186  1.00  0.00     0.050 A 
HETATM    5  C   UNL     1     -41.519  57.298 -51.429  1.00  0.00     0.021 A 
HETATM    6  C   UNL     1     -40.621  56.227 -51.342  1.00  0.00     0.030 A 
ENDROOT
BRANCH   1   7
HETATM    7  N   UNL     1     -40.075  53.933 -50.962  1.00  0.00    -0.333 N 
HETATM    8  H   UNL     1     -39.162  54.243 -50.636  1.00  0.00     0.168 HD
BRANCH   7   9
HETATM    9  C   UNL     1     -40.064  52.607 -51.247  1.00  0.00     0.179 C 
HETATM   10  S   UNL     1     -40.700  51.553 -50.113  1.00  0.00    -0.040 SA
BRANCH   9  11
HETATM   11  N   UNL     1     -39.579  52.126 -52.419  1.00  0.00    -0.299 N 
HETATM   12  C   UNL     1     -40.251  52.152 -53.630  1.00  0.00     0.257 C 
HETATM   13  O   UNL     1     -40.183  51.211 -54.417  1.00  0.00    -0.267 OA
HETATM   14  H   UNL     1     -39.157  51.213 -52.318  1.00  0.00     0.171 HD
BRANCH  12  15
HETATM   15  C   UNL     1     -41.003  53.362 -54.009  1.00  0.00     0.032 A 
HETATM   16  C   UNL     1     -40.279  54.440 -54.521  1.00  0.00     0.020 A 
HETATM   17  C   UNL     1     -40.949  55.576 -54.986  1.00  0.00     0.038 A 
HETATM   18  C   UNL     1     -42.344  55.631 -54.951  1.00  0.00     0.068 A 
HETATM   19  C   UNL     1     -43.061  54.546 -54.432  1.00  0.00     0.038 A 
HETATM   20  C   UNL     1     -42.398  53.404 -53.975  1.00  0.00     0.020 A 
BRANCH  18  21
HETATM   21  O   UNL     1     -43.114  56.672 -55.392  1.00  0.00    -0.351 OA
BRANCH  21  22
HETATM   22  C   UNL     1     -44.325  56.919 -54.676  1.00  0.00     0.175 C 
BRANCH  22  23
HETATM   23  C   UNL     1     -45.190  57.860 -55.510  1.00  0.00     0.022 C 
HETATM   24  C   UNL     1     -44.975  59.312 -55.120  1.00  0.00     0.007 C 
ENDBRANCH  22  23
ENDBRANCH  21  22
ENDBRANCH  18  21
ENDBRANCH  12  15
ENDBRANCH   9  11
ENDBRANCH   7   9
ENDBRANCH   1   7
BRANCH   3  25
HETATM   25  O   UNL     1     -44.615  55.520 -50.526  1.00  0.00    -0.360 OA
HETATM   26  H   UNL     1     -45.059  55.193 -51.330  1.00  0.00     0.217 HD
ENDBRANCH   3  25
BRANCH   4  27
HETATM   27  C   UNL     1     -43.785  58.255 -51.295  1.00  0.00     0.183 A 
HETATM   28  O   UNL     1     -43.234  59.482 -51.024  1.00  0.00    -0.288 OA
HETATM   29  C   UNL     1     -44.272  60.356 -51.175  1.00  0.00     0.112 A 
HETATM   30  C   UNL     1     -45.384  59.621 -51.547  1.00  0.00     0.094 A 
HETATM   31  C   UNL     1     -44.241  61.739 -50.999  1.00  0.00    -0.025 A 
HETATM   32  N   UNL     1     -45.069  58.285 -51.599  1.00  0.00    -0.221 NA
HETATM   33  C   UNL     1     -46.588  60.289 -51.798  1.00  0.00     0.041 A 
HETATM   34  C   UNL     1     -46.626  61.687 -51.637  1.00  0.00    -0.059 A 
HETATM   35  C   UNL     1     -45.468  62.386 -51.247  1.00  0.00     0.016 A 
HETATM   36  C   UNL     1     -47.891  62.437 -51.941  1.00  0.00     0.048 C 
HETATM   37  C   UNL     1     -43.038  62.503 -50.549  1.00  0.00     0.051 C 
ENDBRANCH   4  27
TORSDOF 9
ENDMDL
MODEL 9
REMARK VINA RESULT:      -7.3      3.266      5.721
REMARK  9 active torsions:
REMARK  status: ('A' for Active; 'I' for Inactive)
REMARK    1  A    between atoms: C_2  and  C_3 
REMARK    2  A    between atoms: C_3  and  O_4 
REMARK    3  A    between atoms: O_4  and  C_5 
REMARK    4  A    between atoms: C_8  and  C_9 
REMARK       I    between atoms: C_9  and  N_10 
REMARK    5  A    between atoms: N_10  and  C_11 
REMARK    6  A    between atoms: C_11  and  N_12 
REMARK    7  A    between atoms: N_12  and  C_13 
REMARK    8  A    between atoms: C_15  and  O_16 
REMARK    9  A    between atoms: C_17  and  C_18 
ROOT
HETATM    1  C   UNL     1     -44.313  58.960 -55.286  1.00  0.00     0.036 A 
HETATM    2  C   UNL     1     -44.951  57.734 -55.128  1.00  0.00     0.067 A 
HETATM    3  C   UNL     1     -44.285  56.651 -54.539  1.00  0.00     0.082 A 
HETATM    4  C   UNL     1     -42.954  56.753 -54.117  1.00  0.00     0.050 A 
HETATM    5  C   UNL     1     -42.302  57.977 -54.314  1.00  0.00     0.021 A 
HETATM    6  C   UNL     1     -42.973  59.064 -54.890  1.00  0.00     0.030 A 
ENDROOT
BRANCH   1   7
HETATM    7  N   UNL     1     -44.893  60.118 -55.842  1.00  0.00    -0.333 N 
HETATM    8  H   UNL     1     -45.475  59.953 -56.661  1.00  0.00     0.168 HD
BRANCH   7   9
HETATM    9  C   UNL     1     -44.864  61.436 -55.524  1.00  0.00     0.179 C 
HETATM   10  S   UNL     1     -43.728  62.403 -56.281  1.00  0.00    -0.040 SA
BRANCH   9  11
HETATM   11  N   UNL     1     -45.734  61.983 -54.638  1.00  0.00    -0.299 N 
HETATM   12  C   UNL     1     -45.976  61.504 -53.360  1.00  0.00     0.257 C 
HETATM   13  O   UNL     1     -47.109  61.506 -52.884  1.00  0.00    -0.267 OA
HETATM   14  H   UNL     1     -46.625  62.209 -55.059  1.00  0.00     0.171 HD
BRANCH  12  15
HETATM   15  C   UNL     1     -44.843  61.052 -52.535  1.00  0.00     0.032 A 
HETATM   16  C   UNL     1     -43.838  61.980 -52.251  1.00  0.00     0.020 A 
HETATM   17  C   UNL     1     -42.788  61.635 -51.395  1.00  0.00     0.038 A 
HETATM   18  C   UNL     1     -42.747  60.366 -50.811  1.00  0.00     0.068 A 
HETATM   19  C   UNL     1     -43.757  59.443 -51.105  1.00  0.00     0.038 A 
HETATM   20  C   UNL     1     -44.814  59.784 -51.952  1.00  0.00     0.020 A 
BRANCH  18  21
HETATM   21  O   UNL     1     -41.788  59.917 -49.945  1.00  0.00    -0.351 OA
BRANCH  21  22
HETATM   22  C   UNL     1     -41.103  58.719 -50.315  1.00  0.00     0.175 C 
BRANCH  22  23
HETATM   23  C   UNL     1     -40.023  59.081 -51.330  1.00  0.00     0.022 C 
HETATM   24  C   UNL     1     -38.731  59.499 -50.648  1.00  0.00     0.007 C 
ENDBRANCH  22  23
ENDBRANCH  21  22
ENDBRANCH  18  21
ENDBRANCH  12  15
ENDBRANCH   9  11
ENDBRANCH   7   9
ENDBRANCH   1   7
BRANCH   3  25
HETATM   25  O   UNL     1     -45.024  55.499 -54.441  1.00  0.00    -0.360 OA
HETATM   26  H   UNL     1     -44.877  55.102 -53.563  1.00  0.00     0.217 HD
ENDBRANCH   3  25
BRANCH   4  27
HETATM   27  C   UNL     1     -42.220  55.650 -53.508  1.00  0.00     0.183 A 
HETATM   28  O   UNL     1     -41.932  55.785 -52.172  1.00  0.00    -0.288 OA
HETATM   29  C   UNL     1     -41.239  54.650 -51.864  1.00  0.00     0.112 A 
HETATM   30  C   UNL     1     -41.160  53.884 -53.014  1.00  0.00     0.094 A 
HETATM   31  C   UNL     1     -40.703  54.302 -50.624  1.00  0.00    -0.025 A 
HETATM   32  N   UNL     1     -41.769  54.539 -54.057  1.00  0.00    -0.221 NA
HETATM   33  C   UNL     1     -40.519  52.642 -52.960  1.00  0.00     0.041 A 
HETATM   34  C   UNL     1     -39.954  52.230 -51.738  1.00  0.00    -0.059 A 
HETATM   35  C   UNL     1     -40.053  53.052 -50.600  1.00  0.00     0.016 A 
HETATM   36  C   UNL     1     -39.297  50.882 -51.639  1.00  0.00     0.048 C 
HETATM   37  C   UNL     1     -40.758  55.171 -49.409  1.00  0.00     0.051 C 
ENDBRANCH   4  27
TORSDOF 9
ENDMDL
MODEL 10
REMARK VINA RESULT:      -7.3      2.571      8.899
REMARK  9 active torsions:
REMARK  status: ('A' for Active; 'I' for Inactive)
REMARK    1  A    between atoms: C_2  and  C_3 
REMARK    2  A    between atoms: C_3  and  O_4 
REMARK    3  A    between atoms: O_4  and  C_5 
REMARK    4  A    between atoms: C_8  and  C_9 
REMARK       I    between atoms: C_9  and  N_10 
REMARK    5  A    between atoms: N_10  and  C_11 
REMARK    6  A    between atoms: C_11  and  N_12 
REMARK    7  A    between atoms: N_12  and  C_13 
REMARK    8  A    between atoms: C_15  and  O_16 
REMARK    9  A    between atoms: C_17  and  C_18 
ROOT
HETATM    1  C   UNL     1     -41.723  58.101 -53.215  1.00  0.00     0.036 A 
HETATM    2  C   UNL     1     -41.835  57.181 -54.252  1.00  0.00     0.067 A 
HETATM    3  C   UNL     1     -41.959  57.611 -55.580  1.00  0.00     0.082 A 
HETATM    4  C   UNL     1     -42.003  58.971 -55.907  1.00  0.00     0.050 A 
HETATM    5  C   UNL     1     -41.930  59.894 -54.855  1.00  0.00     0.021 A 
HETATM    6  C   UNL     1     -41.792  59.464 -53.530  1.00  0.00     0.030 A 
ENDROOT
BRANCH   1   7
HETATM    7  N   UNL     1     -41.572  57.780 -51.850  1.00  0.00    -0.333 N 
HETATM    8  H   UNL     1     -40.692  58.080 -51.436  1.00  0.00     0.168 HD
BRANCH   7   9
HETATM    9  C   UNL     1     -42.353  57.156 -50.934  1.00  0.00     0.179 C 
HETATM   10  S   UNL     1     -44.013  57.300 -51.087  1.00  0.00    -0.040 SA
BRANCH   9  11
HETATM   11  N   UNL     1     -41.829  56.412 -49.927  1.00  0.00    -0.299 N 
HETATM   12  C   UNL     1     -41.767  55.028 -49.908  1.00  0.00     0.257 C 
HETATM   13  O   UNL     1     -41.965  54.396 -48.873  1.00  0.00    -0.267 OA
HETATM   14  H   UNL     1     -42.138  56.722 -49.016  1.00  0.00     0.171 HD
BRANCH  12  15
HETATM   15  C   UNL     1     -41.387  54.309 -51.137  1.00  0.00     0.032 A 
HETATM   16  C   UNL     1     -40.151  53.659 -51.150  1.00  0.00     0.020 A 
HETATM   17  C   UNL     1     -39.781  52.882 -52.252  1.00  0.00     0.038 A 
HETATM   18  C   UNL     1     -40.650  52.742 -53.336  1.00  0.00     0.068 A 
HETATM   19  C   UNL     1     -41.886  53.400 -53.314  1.00  0.00     0.038 A 
HETATM   20  C   UNL     1     -42.266  54.171 -52.212  1.00  0.00     0.020 A 
BRANCH  18  21
HETATM   21  O   UNL     1     -40.414  51.997 -54.458  1.00  0.00    -0.351 OA
BRANCH  21  22
HETATM   22  C   UNL     1     -39.337  51.060 -54.388  1.00  0.00     0.175 C 
BRANCH  22  23
HETATM   23  C   UNL     1     -39.914  49.696 -54.022  1.00  0.00     0.022 C 
HETATM   24  C   UNL     1     -39.593  49.319 -52.586  1.00  0.00     0.007 C 
ENDBRANCH  22  23
ENDBRANCH  21  22
ENDBRANCH  18  21
ENDBRANCH  12  15
ENDBRANCH   9  11
ENDBRANCH   7   9
ENDBRANCH   1   7
BRANCH   3  25
HETATM   25  O   UNL     1     -42.061  56.606 -56.509  1.00  0.00    -0.360 OA
HETATM   26  H   UNL     1     -42.745  56.844 -57.161  1.00  0.00     0.217 HD
ENDBRANCH   3  25
BRANCH   4  27
HETATM   27  C   UNL     1     -42.140  59.464 -57.272  1.00  0.00     0.183 A 
HETATM   28  O   UNL     1     -43.222  58.995 -57.974  1.00  0.00    -0.288 OA
HETATM   29  C   UNL     1     -43.104  59.582 -59.201  1.00  0.00     0.112 A 
HETATM   30  C   UNL     1     -41.978  60.385 -59.173  1.00  0.00     0.094 A 
HETATM   31  C   UNL     1     -43.953  59.423 -60.296  1.00  0.00    -0.025 A 
HETATM   32  N   UNL     1     -41.361  60.286 -57.949  1.00  0.00    -0.221 NA
HETATM   33  C   UNL     1     -41.645  61.131 -60.309  1.00  0.00     0.041 A 
HETATM   34  C   UNL     1     -42.461  61.015 -61.451  1.00  0.00    -0.059 A 
HETATM   35  C   UNL     1     -43.591  60.176 -61.430  1.00  0.00     0.016 A 
HETATM   36  C   UNL     1     -42.155  61.836 -62.671  1.00  0.00     0.048 C 
HETATM   37  C   UNL     1     -45.137  58.510 -60.317  1.00  0.00     0.051 C 
ENDBRANCH   4  27
TORSDOF 9
ENDMDL
