MODEL 1
REMARK VINA RESULT:      -8.7      0.000      0.000
REMARK  5 active torsions:
REMARK  status: ('A' for Active; 'I' for Inactive)
REMARK    1  A    between atoms: C_9  and  N_10 
REMARK       I    between atoms: N_10  and  C_11 
REMARK    2  A    between atoms: C_11  and  C_12 
REMARK    3  A    between atoms: C_14  and  C_15 
REMARK    4  A    between atoms: C_15  and  O_16 
REMARK    5  A    between atoms: O_16  and  C_17 
ROOT
HETATM    1  N   UNL     1     -42.093  56.211 -54.545  1.00  0.00    -0.321 N 
HETATM    2  C   UNL     1     -42.833  56.486 -53.400  1.00  0.00     0.279 C 
HETATM    3  O   UNL     1     -43.982  56.922 -53.417  1.00  0.00    -0.265 OA
HETATM    4  H   UNL     1     -41.235  55.695 -54.402  1.00  0.00     0.169 HD
ENDROOT
BRANCH   2   5
HETATM    5  C   UNL     1     -42.142  56.146 -52.168  1.00  0.00     0.143 A 
HETATM    6  O   UNL     1     -41.901  54.823 -51.918  1.00  0.00    -0.307 OA
HETATM    7  C   UNL     1     -41.220  54.738 -50.741  1.00  0.00     0.078 A 
HETATM    8  C   UNL     1     -41.039  55.998 -50.213  1.00  0.00     0.038 A 
HETATM    9  C   UNL     1     -41.624  56.905 -51.132  1.00  0.00     0.045 A 
BRANCH   7  10
HETATM   10  C   UNL     1     -40.812  53.376 -50.309  1.00  0.00     0.240 C 
BRANCH  10  11
HETATM   11  O   UNL     1     -39.613  53.058 -51.011  1.00  0.00    -0.345 OA
BRANCH  11  12
HETATM   12  C   UNL     1     -39.694  52.049 -51.933  1.00  0.00     0.069 A 
HETATM   13  C   UNL     1     -39.502  50.688 -51.677  1.00  0.00     0.040 A 
HETATM   14  C   UNL     1     -39.611  49.759 -52.718  1.00  0.00     0.045 A 
HETATM   15  C   UNL     1     -39.912  50.194 -54.002  1.00  0.00     0.116 A 
HETATM   16  F   UNL     1     -40.011  49.300 -54.994  1.00  0.00    -0.206 F 
HETATM   17  C   UNL     1     -40.113  51.542 -54.270  1.00  0.00     0.045 A 
HETATM   18  C   UNL     1     -40.005  52.468 -53.231  1.00  0.00     0.040 A 
ENDBRANCH  11  12
ENDBRANCH  10  11
ENDBRANCH   7  10
ENDBRANCH   2   5
BRANCH   1  19
HETATM   19  C   UNL     1     -42.499  56.406 -55.881  1.00  0.00     0.035 A 
HETATM   20  C   UNL     1     -43.004  55.384 -56.690  1.00  0.00     0.039 A 
HETATM   21  C   UNL     1     -43.354  55.675 -58.001  1.00  0.00    -0.022 A 
HETATM   22  C   UNL     1     -43.934  54.753 -59.017  1.00  0.00     0.274 C 
HETATM   23  C   UNL     1     -43.218  56.963 -58.519  1.00  0.00    -0.025 A 
HETATM   24  N   UNL     1     -43.904  55.547 -60.318  1.00  0.00    -0.067 N 
HETATM   25  C   UNL     1     -45.075  55.316 -61.204  1.00  0.00     0.270 C 
HETATM   26  H   UNL     1     -43.055  55.245 -60.808  1.00  0.00     0.280 HD
HETATM   27  C   UNL     1     -43.678  57.006 -59.936  1.00  0.00     0.273 C 
HETATM   28  C   UNL     1     -42.741  57.995 -57.730  1.00  0.00     0.012 A 
HETATM   29  C   UNL     1     -42.388  57.710 -56.405  1.00  0.00     0.030 A 
ENDBRANCH   1  19
TORSDOF 5
ENDMDL
MODEL 2
REMARK VINA RESULT:      -8.3      0.967      1.982
REMARK  5 active torsions:
REMARK  status: ('A' for Active; 'I' for Inactive)
REMARK    1  A    between atoms: C_9  and  N_10 
REMARK       I    between atoms: N_10  and  C_11 
REMARK    2  A    between atoms: C_11  and  C_12 
REMARK    3  A    between atoms: C_14  and  C_15 
REMARK    4  A    between atoms: C_15  and  O_16 
REMARK    5  A    between atoms: O_16  and  C_17 
ROOT
HETATM    1  N   UNL     1     -42.011  56.395 -54.441  1.00  0.00    -0.321 N 
HETATM    2  C   UNL     1     -42.744  56.701 -53.299  1.00  0.00     0.279 C 
HETATM    3  O   UNL     1     -43.850  57.238 -53.321  1.00  0.00    -0.265 OA
HETATM    4  H   UNL     1     -41.204  55.801 -54.301  1.00  0.00     0.169 HD
ENDROOT
BRANCH   2   5
HETATM    5  C   UNL     1     -42.108  56.265 -52.069  1.00  0.00     0.143 A 
HETATM    6  O   UNL     1     -41.913  54.923 -51.893  1.00  0.00    -0.307 OA
HETATM    7  C   UNL     1     -41.277  54.745 -50.701  1.00  0.00     0.078 A 
HETATM    8  C   UNL     1     -41.082  55.965 -50.089  1.00  0.00     0.038 A 
HETATM    9  C   UNL     1     -41.608  56.943 -50.969  1.00  0.00     0.045 A 
BRANCH   7  10
HETATM   10  C   UNL     1     -40.923  53.348 -50.342  1.00  0.00     0.240 C 
BRANCH  10  11
HETATM   11  O   UNL     1     -39.706  53.040 -51.018  1.00  0.00    -0.345 OA
BRANCH  11  12
HETATM   12  C   UNL     1     -39.796  52.173 -52.073  1.00  0.00     0.069 A 
HETATM   13  C   UNL     1     -40.148  52.510 -53.384  1.00  0.00     0.040 A 
HETATM   14  C   UNL     1     -40.207  51.519 -54.369  1.00  0.00     0.045 A 
HETATM   15  C   UNL     1     -39.912  50.203 -54.041  1.00  0.00     0.116 A 
HETATM   16  F   UNL     1     -39.974  49.258 -54.989  1.00  0.00    -0.206 F 
HETATM   17  C   UNL     1     -39.554  49.853 -52.746  1.00  0.00     0.045 A 
HETATM   18  C   UNL     1     -39.494  50.843 -51.763  1.00  0.00     0.040 A 
ENDBRANCH  11  12
ENDBRANCH  10  11
ENDBRANCH   7  10
ENDBRANCH   2   5
BRANCH   1  19
HETATM   19  C   UNL     1     -42.374  56.664 -55.776  1.00  0.00     0.035 A 
HETATM   20  C   UNL     1     -42.391  57.949 -56.327  1.00  0.00     0.039 A 
HETATM   21  C   UNL     1     -42.786  58.110 -57.647  1.00  0.00    -0.022 A 
HETATM   22  C   UNL     1     -42.848  59.373 -58.434  1.00  0.00     0.274 C 
HETATM   23  C   UNL     1     -43.159  57.018 -58.431  1.00  0.00    -0.025 A 
HETATM   24  N   UNL     1     -43.553  58.986 -59.729  1.00  0.00    -0.067 N 
HETATM   25  C   UNL     1     -43.035  59.675 -60.939  1.00  0.00     0.270 C 
HETATM   26  H   UNL     1     -44.537  59.245 -59.597  1.00  0.00     0.280 HD
HETATM   27  C   UNL     1     -43.521  57.463 -59.806  1.00  0.00     0.273 C 
HETATM   28  C   UNL     1     -43.129  55.735 -57.914  1.00  0.00     0.012 A 
HETATM   29  C   UNL     1     -42.729  55.564 -56.583  1.00  0.00     0.030 A 
ENDBRANCH   1  19
TORSDOF 5
ENDMDL
MODEL 3
REMARK VINA RESULT:      -8.0      5.633      9.296
REMARK  5 active torsions:
REMARK  status: ('A' for Active; 'I' for Inactive)
REMARK    1  A    between atoms: C_9  and  N_10 
REMARK       I    between atoms: N_10  and  C_11 
REMARK    2  A    between atoms: C_11  and  C_12 
REMARK    3  A    between atoms: C_14  and  C_15 
REMARK    4  A    between atoms: C_15  and  O_16 
REMARK    5  A    between atoms: O_16  and  C_17 
ROOT
HETATM    1  N   UNL     1     -41.586  56.636 -52.148  1.00  0.00    -0.321 N 
HETATM    2  C   UNL     1     -42.896  57.077 -51.989  1.00  0.00     0.279 C 
HETATM    3  O   UNL     1     -43.883  56.383 -52.222  1.00  0.00    -0.265 OA
HETATM    4  H   UNL     1     -40.869  57.235 -51.759  1.00  0.00     0.169 HD
ENDROOT
BRANCH   2   5
HETATM    5  C   UNL     1     -42.993  58.423 -51.454  1.00  0.00     0.143 A 
HETATM    6  O   UNL     1     -44.242  58.958 -51.299  1.00  0.00    -0.307 OA
HETATM    7  C   UNL     1     -44.101  60.201 -50.757  1.00  0.00     0.078 A 
HETATM    8  C   UNL     1     -42.763  60.485 -50.583  1.00  0.00     0.038 A 
HETATM    9  C   UNL     1     -42.050  59.342 -51.023  1.00  0.00     0.045 A 
BRANCH   7  10
HETATM   10  C   UNL     1     -45.355  60.938 -50.458  1.00  0.00     0.240 C 
BRANCH  10  11
HETATM   11  O   UNL     1     -45.847  60.438 -49.217  1.00  0.00    -0.345 OA
BRANCH  11  12
HETATM   12  C   UNL     1     -45.615  61.212 -48.112  1.00  0.00     0.069 A 
HETATM   13  C   UNL     1     -45.354  62.586 -48.114  1.00  0.00     0.040 A 
HETATM   14  C   UNL     1     -45.129  63.257 -46.908  1.00  0.00     0.045 A 
HETATM   15  C   UNL     1     -45.170  62.555 -45.710  1.00  0.00     0.116 A 
HETATM   16  F   UNL     1     -44.951  63.202 -44.559  1.00  0.00    -0.206 F 
HETATM   17  C   UNL     1     -45.437  61.192 -45.692  1.00  0.00     0.045 A 
HETATM   18  C   UNL     1     -45.661  60.523 -46.896  1.00  0.00     0.040 A 
ENDBRANCH  11  12
ENDBRANCH  10  11
ENDBRANCH   7  10
ENDBRANCH   2   5
BRANCH   1  19
HETATM   19  C   UNL     1     -41.169  55.374 -52.619  1.00  0.00     0.035 A 
HETATM   20  C   UNL     1     -40.775  54.330 -51.777  1.00  0.00     0.039 A 
HETATM   21  C   UNL     1     -40.359  53.132 -52.342  1.00  0.00    -0.022 A 
HETATM   22  C   UNL     1     -39.931  51.892 -51.638  1.00  0.00     0.274 C 
HETATM   23  C   UNL     1     -40.334  52.953 -53.725  1.00  0.00    -0.025 A 
HETATM   24  N   UNL     1     -39.383  50.993 -52.741  1.00  0.00    -0.067 N 
HETATM   25  C   UNL     1     -39.681  49.549 -52.560  1.00  0.00     0.270 C 
HETATM   26  H   UNL     1     -38.365  51.125 -52.725  1.00  0.00     0.280 HD
HETATM   27  C   UNL     1     -39.866  51.579 -54.063  1.00  0.00     0.273 C 
HETATM   28  C   UNL     1     -40.740  53.965 -54.576  1.00  0.00     0.012 A 
HETATM   29  C   UNL     1     -41.164  55.176 -54.014  1.00  0.00     0.030 A 
ENDBRANCH   1  19
TORSDOF 5
ENDMDL
MODEL 4
REMARK VINA RESULT:      -8.0      1.576      1.925
REMARK  5 active torsions:
REMARK  status: ('A' for Active; 'I' for Inactive)
REMARK    1  A    between atoms: C_9  and  N_10 
REMARK       I    between atoms: N_10  and  C_11 
REMARK    2  A    between atoms: C_11  and  C_12 
REMARK    3  A    between atoms: C_14  and  C_15 
REMARK    4  A    between atoms: C_15  and  O_16 
REMARK    5  A    between atoms: O_16  and  C_17 
ROOT
HETATM    1  N   UNL     1     -42.665  57.416 -54.633  1.00  0.00    -0.321 N 
HETATM    2  C   UNL     1     -41.792  58.388 -54.155  1.00  0.00     0.279 C 
HETATM    3  O   UNL     1     -41.434  59.365 -54.809  1.00  0.00    -0.265 OA
HETATM    4  H   UNL     1     -43.017  56.763 -53.945  1.00  0.00     0.169 HD
ENDROOT
BRANCH   2   5
HETATM    5  C   UNL     1     -41.389  58.176 -52.776  1.00  0.00     0.143 A 
HETATM    6  O   UNL     1     -41.419  56.897 -52.293  1.00  0.00    -0.307 OA
HETATM    7  C   UNL     1     -40.973  56.925 -51.006  1.00  0.00     0.078 A 
HETATM    8  C   UNL     1     -40.676  58.222 -50.642  1.00  0.00     0.038 A 
HETATM    9  C   UNL     1     -40.936  59.026 -51.780  1.00  0.00     0.045 A 
BRANCH   7  10
HETATM   10  C   UNL     1     -40.878  55.616 -50.309  1.00  0.00     0.240 C 
BRANCH  10  11
HETATM   11  O   UNL     1     -41.678  54.694 -51.046  1.00  0.00    -0.345 OA
BRANCH  11  12
HETATM   12  C   UNL     1     -41.010  53.688 -51.690  1.00  0.00     0.069 A 
HETATM   13  C   UNL     1     -40.102  52.800 -51.104  1.00  0.00     0.040 A 
HETATM   14  C   UNL     1     -39.484  51.816 -51.883  1.00  0.00     0.045 A 
HETATM   15  C   UNL     1     -39.779  51.723 -53.237  1.00  0.00     0.116 A 
HETATM   16  F   UNL     1     -39.181  50.781 -53.979  1.00  0.00    -0.206 F 
HETATM   17  C   UNL     1     -40.684  52.592 -53.832  1.00  0.00     0.045 A 
HETATM   18  C   UNL     1     -41.301  53.573 -53.054  1.00  0.00     0.040 A 
ENDBRANCH  11  12
ENDBRANCH  10  11
ENDBRANCH   7  10
ENDBRANCH   2   5
BRANCH   1  19
HETATM   19  C   UNL     1     -43.249  57.361 -55.915  1.00  0.00     0.035 A 
HETATM   20  C   UNL     1     -42.996  56.338 -56.834  1.00  0.00     0.039 A 
HETATM   21  C   UNL     1     -43.604  56.388 -58.080  1.00  0.00    -0.022 A 
HETATM   22  C   UNL     1     -43.500  55.396 -59.187  1.00  0.00     0.274 C 
HETATM   23  C   UNL     1     -44.462  57.432 -58.427  1.00  0.00    -0.025 A 
HETATM   24  N   UNL     1     -44.185  56.069 -60.371  1.00  0.00    -0.067 N 
HETATM   25  C   UNL     1     -44.963  55.144 -61.235  1.00  0.00     0.270 C 
HETATM   26  H   UNL     1     -43.430  56.485 -60.929  1.00  0.00     0.280 HD
HETATM   27  C   UNL     1     -44.989  57.236 -59.807  1.00  0.00     0.273 C 
HETATM   28  C   UNL     1     -44.744  58.443 -57.526  1.00  0.00     0.012 A 
HETATM   29  C   UNL     1     -44.136  58.399 -56.265  1.00  0.00     0.030 A 
ENDBRANCH   1  19
TORSDOF 5
ENDMDL
MODEL 5
REMARK VINA RESULT:      -8.0      3.042      8.017
REMARK  5 active torsions:
REMARK  status: ('A' for Active; 'I' for Inactive)
REMARK    1  A    between atoms: C_9  and  N_10 
REMARK       I    between atoms: N_10  and  C_11 
REMARK    2  A    between atoms: C_11  and  C_12 
REMARK    3  A    between atoms: C_14  and  C_15 
REMARK    4  A    between atoms: C_15  and  O_16 
REMARK    5  A    between atoms: O_16  and  C_17 
ROOT
HETATM    1  N   UNL     1     -41.927  56.158 -54.422  1.00  0.00    -0.321 N 
HETATM    2  C   UNL     1     -41.483  57.444 -54.132  1.00  0.00     0.279 C 
HETATM    3  O   UNL     1     -40.478  57.686 -53.468  1.00  0.00    -0.265 OA
HETATM    4  H   UNL     1     -42.659  56.091 -55.118  1.00  0.00     0.169 HD
ENDROOT
BRANCH   2   5
HETATM    5  C   UNL     1     -42.287  58.487 -54.746  1.00  0.00     0.143 A 
HETATM    6  O   UNL     1     -42.753  58.268 -56.014  1.00  0.00    -0.307 OA
HETATM    7  C   UNL     1     -43.503  59.347 -56.375  1.00  0.00     0.078 A 
HETATM    8  C   UNL     1     -43.505  60.277 -55.358  1.00  0.00     0.038 A 
HETATM    9  C   UNL     1     -42.731  59.723 -54.307  1.00  0.00     0.045 A 
BRANCH   7  10
HETATM   10  C   UNL     1     -44.149  59.285 -57.711  1.00  0.00     0.240 C 
BRANCH  10  11
HETATM   11  O   UNL     1     -45.069  58.197 -57.679  1.00  0.00    -0.345 OA
BRANCH  11  12
HETATM   12  C   UNL     1     -44.938  57.258 -58.667  1.00  0.00     0.069 A 
HETATM   13  C   UNL     1     -43.782  56.523 -58.951  1.00  0.00     0.040 A 
HETATM   14  C   UNL     1     -43.783  55.595 -59.997  1.00  0.00     0.045 A 
HETATM   15  C   UNL     1     -44.936  55.403 -60.747  1.00  0.00     0.116 A 
HETATM   16  F   UNL     1     -44.930  54.515 -61.750  1.00  0.00    -0.206 F 
HETATM   17  C   UNL     1     -46.094  56.119 -60.472  1.00  0.00     0.045 A 
HETATM   18  C   UNL     1     -46.092  57.046 -59.428  1.00  0.00     0.040 A 
ENDBRANCH  11  12
ENDBRANCH  10  11
ENDBRANCH   7  10
ENDBRANCH   2   5
BRANCH   1  19
HETATM   19  C   UNL     1     -41.346  54.947 -53.996  1.00  0.00     0.035 A 
HETATM   20  C   UNL     1     -41.350  54.515 -52.666  1.00  0.00     0.039 A 
HETATM   21  C   UNL     1     -40.729  53.317 -52.347  1.00  0.00    -0.022 A 
HETATM   22  C   UNL     1     -40.644  52.661 -51.012  1.00  0.00     0.274 C 
HETATM   23  C   UNL     1     -40.110  52.537 -53.324  1.00  0.00    -0.025 A 
HETATM   24  N   UNL     1     -39.671  51.504 -51.214  1.00  0.00    -0.067 N 
HETATM   25  C   UNL     1     -40.015  50.274 -50.453  1.00  0.00     0.270 C 
HETATM   26  H   UNL     1     -38.760  51.848 -50.890  1.00  0.00     0.280 HD
HETATM   27  C   UNL     1     -39.539  51.301 -52.719  1.00  0.00     0.273 C 
HETATM   28  C   UNL     1     -40.112  52.934 -54.649  1.00  0.00     0.012 A 
HETATM   29  C   UNL     1     -40.739  54.141 -54.981  1.00  0.00     0.030 A 
ENDBRANCH   1  19
TORSDOF 5
ENDMDL
MODEL 6
REMARK VINA RESULT:      -7.9     14.464     16.102
REMARK  5 active torsions:
REMARK  status: ('A' for Active; 'I' for Inactive)
REMARK    1  A    between atoms: C_9  and  N_10 
REMARK       I    between atoms: N_10  and  C_11 
REMARK    2  A    between atoms: C_11  and  C_12 
REMARK    3  A    between atoms: C_14  and  C_15 
REMARK    4  A    between atoms: C_15  and  O_16 
REMARK    5  A    between atoms: O_16  and  C_17 
ROOT
HETATM    1  N   UNL     1     -37.150  40.090 -58.658  1.00  0.00    -0.321 N 
HETATM    2  C   UNL     1     -36.939  41.455 -58.496  1.00  0.00     0.279 C 
HETATM    3  O   UNL     1     -37.289  42.303 -59.314  1.00  0.00    -0.265 OA
HETATM    4  H   UNL     1     -36.977  39.517 -57.843  1.00  0.00     0.169 HD
ENDROOT
BRANCH   2   5
HETATM    5  C   UNL     1     -36.319  41.799 -57.228  1.00  0.00     0.143 A 
HETATM    6  O   UNL     1     -37.058  41.624 -56.090  1.00  0.00    -0.307 OA
HETATM    7  C   UNL     1     -36.278  41.971 -55.028  1.00  0.00     0.078 A 
HETATM    8  C   UNL     1     -35.043  42.395 -55.473  1.00  0.00     0.038 A 
HETATM    9  C   UNL     1     -35.065  42.278 -56.885  1.00  0.00     0.045 A 
BRANCH   7  10
HETATM   10  C   UNL     1     -36.881  41.803 -53.681  1.00  0.00     0.240 C 
BRANCH  10  11
HETATM   11  O   UNL     1     -35.992  42.412 -52.747  1.00  0.00    -0.345 OA
BRANCH  11  12
HETATM   12  C   UNL     1     -35.395  41.578 -51.841  1.00  0.00     0.069 A 
HETATM   13  C   UNL     1     -34.064  41.648 -51.416  1.00  0.00     0.040 A 
HETATM   14  C   UNL     1     -33.579  40.725 -50.484  1.00  0.00     0.045 A 
HETATM   15  C   UNL     1     -34.422  39.743 -49.982  1.00  0.00     0.116 A 
HETATM   16  F   UNL     1     -33.950  38.859 -49.092  1.00  0.00    -0.206 F 
HETATM   17  C   UNL     1     -35.748  39.665 -50.389  1.00  0.00     0.045 A 
HETATM   18  C   UNL     1     -36.233  40.587 -51.318  1.00  0.00     0.040 A 
ENDBRANCH  11  12
ENDBRANCH  10  11
ENDBRANCH   7  10
ENDBRANCH   2   5
BRANCH   1  19
HETATM   19  C   UNL     1     -37.751  39.453 -59.763  1.00  0.00     0.035 A 
HETATM   20  C   UNL     1     -38.996  38.820 -59.704  1.00  0.00     0.039 A 
HETATM   21  C   UNL     1     -39.490  38.201 -60.843  1.00  0.00    -0.022 A 
HETATM   22  C   UNL     1     -40.795  37.501 -61.009  1.00  0.00     0.274 C 
HETATM   23  C   UNL     1     -38.773  38.205 -62.040  1.00  0.00    -0.025 A 
HETATM   24  N   UNL     1     -40.704  36.837 -62.378  1.00  0.00    -0.067 N 
HETATM   25  C   UNL     1     -41.978  36.833 -63.143  1.00  0.00     0.270 C 
HETATM   26  H   UNL     1     -40.424  35.866 -62.198  1.00  0.00     0.280 HD
HETATM   27  C   UNL     1     -39.532  37.489 -63.104  1.00  0.00     0.273 C 
HETATM   28  C   UNL     1     -37.549  38.844 -62.128  1.00  0.00     0.012 A 
HETATM   29  C   UNL     1     -37.045  39.474 -60.982  1.00  0.00     0.030 A 
ENDBRANCH   1  19
TORSDOF 5
ENDMDL
MODEL 7
REMARK VINA RESULT:      -7.9      5.424      8.098
REMARK  5 active torsions:
REMARK  status: ('A' for Active; 'I' for Inactive)
REMARK    1  A    between atoms: C_9  and  N_10 
REMARK       I    between atoms: N_10  and  C_11 
REMARK    2  A    between atoms: C_11  and  C_12 
REMARK    3  A    between atoms: C_14  and  C_15 
REMARK    4  A    between atoms: C_15  and  O_16 
REMARK    5  A    between atoms: O_16  and  C_17 
ROOT
HETATM    1  N   UNL     1     -44.098  59.904 -50.604  1.00  0.00    -0.321 N 
HETATM    2  C   UNL     1     -42.743  60.104 -50.846  1.00  0.00     0.279 C 
HETATM    3  O   UNL     1     -42.119  61.090 -50.460  1.00  0.00    -0.265 OA
HETATM    4  H   UNL     1     -44.452  58.981 -50.817  1.00  0.00     0.169 HD
ENDROOT
BRANCH   2   5
HETATM    5  C   UNL     1     -42.111  59.000 -51.546  1.00  0.00     0.143 A 
HETATM    6  O   UNL     1     -42.559  57.736 -51.279  1.00  0.00    -0.307 OA
HETATM    7  C   UNL     1     -41.858  56.869 -52.063  1.00  0.00     0.078 A 
HETATM    8  C   UNL     1     -40.939  57.563 -52.821  1.00  0.00     0.038 A 
HETATM    9  C   UNL     1     -41.105  58.933 -52.496  1.00  0.00     0.045 A 
BRANCH   7  10
HETATM   10  C   UNL     1     -42.232  55.435 -51.961  1.00  0.00     0.240 C 
BRANCH  10  11
HETATM   11  O   UNL     1     -41.083  54.738 -51.485  1.00  0.00    -0.345 OA
BRANCH  11  12
HETATM   12  C   UNL     1     -40.633  53.703 -52.259  1.00  0.00     0.069 A 
HETATM   13  C   UNL     1     -40.792  53.586 -53.644  1.00  0.00     0.040 A 
HETATM   14  C   UNL     1     -40.285  52.467 -54.313  1.00  0.00     0.045 A 
HETATM   15  C   UNL     1     -39.622  51.478 -53.600  1.00  0.00     0.116 A 
HETATM   16  F   UNL     1     -39.141  50.408 -54.247  1.00  0.00    -0.206 F 
HETATM   17  C   UNL     1     -39.449  51.584 -52.226  1.00  0.00     0.045 A 
HETATM   18  C   UNL     1     -39.955  52.701 -51.558  1.00  0.00     0.040 A 
ENDBRANCH  11  12
ENDBRANCH  10  11
ENDBRANCH   7  10
ENDBRANCH   2   5
BRANCH   1  19
HETATM   19  C   UNL     1     -44.974  60.777 -49.927  1.00  0.00     0.035 A 
HETATM   20  C   UNL     1     -45.149  60.771 -48.540  1.00  0.00     0.039 A 
HETATM   21  C   UNL     1     -46.054  61.657 -47.973  1.00  0.00    -0.022 A 
HETATM   22  C   UNL     1     -46.370  61.839 -46.529  1.00  0.00     0.274 C 
HETATM   23  C   UNL     1     -46.783  62.551 -48.758  1.00  0.00    -0.025 A 
HETATM   24  N   UNL     1     -47.576  62.772 -46.514  1.00  0.00    -0.067 N 
HETATM   25  C   UNL     1     -47.578  63.753 -45.397  1.00  0.00     0.270 C 
HETATM   26  H   UNL     1     -48.397  62.163 -46.420  1.00  0.00     0.280 HD
HETATM   27  C   UNL     1     -47.666  63.394 -47.903  1.00  0.00     0.273 C 
HETATM   28  C   UNL     1     -46.611  62.589 -50.130  1.00  0.00     0.012 A 
HETATM   29  C   UNL     1     -45.697  61.700 -50.710  1.00  0.00     0.030 A 
ENDBRANCH   1  19
TORSDOF 5
ENDMDL
MODEL 8
REMARK VINA RESULT:      -7.7      2.797      3.736
REMARK  5 active torsions:
REMARK  status: ('A' for Active; 'I' for Inactive)
REMARK    1  A    between atoms: C_9  and  N_10 
REMARK       I    between atoms: N_10  and  C_11 
REMARK    2  A    between atoms: C_11  and  C_12 
REMARK    3  A    between atoms: C_14  and  C_15 
REMARK    4  A    between atoms: C_15  and  O_16 
REMARK    5  A    between atoms: O_16  and  C_17 
ROOT
HETATM    1  N   UNL     1     -44.455  57.413 -57.229  1.00  0.00    -0.321 N 
HETATM    2  C   UNL     1     -43.069  57.519 -57.217  1.00  0.00     0.279 C 
HETATM    3  O   UNL     1     -42.412  57.985 -58.146  1.00  0.00    -0.265 OA
HETATM    4  H   UNL     1     -44.887  57.179 -56.344  1.00  0.00     0.169 HD
ENDROOT
BRANCH   2   5
HETATM    5  C   UNL     1     -42.464  57.083 -55.971  1.00  0.00     0.143 A 
HETATM    6  O   UNL     1     -41.725  55.933 -55.989  1.00  0.00    -0.307 OA
HETATM    7  C   UNL     1     -41.229  55.735 -54.735  1.00  0.00     0.078 A 
HETATM    8  C   UNL     1     -41.665  56.738 -53.895  1.00  0.00     0.038 A 
HETATM    9  C   UNL     1     -42.453  57.610 -54.689  1.00  0.00     0.045 A 
BRANCH   7  10
HETATM   10  C   UNL     1     -40.346  54.554 -54.551  1.00  0.00     0.240 C 
BRANCH  10  11
HETATM   11  O   UNL     1     -40.606  54.039 -53.248  1.00  0.00    -0.345 OA
BRANCH  11  12
HETATM   12  C   UNL     1     -40.259  52.732 -53.029  1.00  0.00     0.069 A 
HETATM   13  C   UNL     1     -39.851  52.186 -51.808  1.00  0.00     0.040 A 
HETATM   14  C   UNL     1     -39.520  50.830 -51.724  1.00  0.00     0.045 A 
HETATM   15  C   UNL     1     -39.601  50.029 -52.856  1.00  0.00     0.116 A 
HETATM   16  F   UNL     1     -39.280  48.732 -52.770  1.00  0.00    -0.206 F 
HETATM   17  C   UNL     1     -40.013  50.555 -54.074  1.00  0.00     0.045 A 
HETATM   18  C   UNL     1     -40.343  51.909 -54.157  1.00  0.00     0.040 A 
ENDBRANCH  11  12
ENDBRANCH  10  11
ENDBRANCH   7  10
ENDBRANCH   2   5
BRANCH   1  19
HETATM   19  C   UNL     1     -45.323  57.777 -58.278  1.00  0.00     0.035 A 
HETATM   20  C   UNL     1     -45.885  56.858 -59.168  1.00  0.00     0.039 A 
HETATM   21  C   UNL     1     -46.710  57.322 -60.183  1.00  0.00    -0.022 A 
HETATM   22  C   UNL     1     -47.430  56.520 -61.211  1.00  0.00     0.274 C 
HETATM   23  C   UNL     1     -46.990  58.681 -60.326  1.00  0.00    -0.025 A 
HETATM   24  N   UNL     1     -47.990  57.555 -62.181  1.00  0.00    -0.067 N 
HETATM   25  C   UNL     1     -49.333  57.223 -62.724  1.00  0.00     0.270 C 
HETATM   26  H   UNL     1     -47.321  57.597 -62.959  1.00  0.00     0.280 HD
HETATM   27  C   UNL     1     -47.908  58.905 -61.478  1.00  0.00     0.273 C 
HETATM   28  C   UNL     1     -46.462  59.607 -59.444  1.00  0.00     0.012 A 
HETATM   29  C   UNL     1     -45.631  59.146 -58.415  1.00  0.00     0.030 A 
ENDBRANCH   1  19
TORSDOF 5
ENDMDL
MODEL 9
REMARK VINA RESULT:      -7.7      3.153      4.318
REMARK  5 active torsions:
REMARK  status: ('A' for Active; 'I' for Inactive)
REMARK    1  A    between atoms: C_9  and  N_10 
REMARK       I    between atoms: N_10  and  C_11 
REMARK    2  A    between atoms: C_11  and  C_12 
REMARK    3  A    between atoms: C_14  and  C_15 
REMARK    4  A    between atoms: C_15  and  O_16 
REMARK    5  A    between atoms: O_16  and  C_17 
ROOT
HETATM    1  N   UNL     1     -42.062  57.844 -57.390  1.00  0.00    -0.321 N 
HETATM    2  C   UNL     1     -43.207  57.542 -56.660  1.00  0.00     0.279 C 
HETATM    3  O   UNL     1     -44.314  58.021 -56.896  1.00  0.00    -0.265 OA
HETATM    4  H   UNL     1     -41.258  57.257 -57.212  1.00  0.00     0.169 HD
ENDROOT
BRANCH   2   5
HETATM    5  C   UNL     1     -42.987  56.549 -55.623  1.00  0.00     0.143 A 
HETATM    6  O   UNL     1     -41.718  56.068 -55.461  1.00  0.00    -0.307 OA
HETATM    7  C   UNL     1     -41.734  55.184 -54.424  1.00  0.00     0.078 A 
HETATM    8  C   UNL     1     -43.015  55.071 -53.927  1.00  0.00     0.038 A 
HETATM    9  C   UNL     1     -43.820  55.953 -54.691  1.00  0.00     0.045 A 
BRANCH   7  10
HETATM   10  C   UNL     1     -40.430  54.581 -54.047  1.00  0.00     0.240 C 
BRANCH  10  11
HETATM   11  O   UNL     1     -40.601  53.986 -52.764  1.00  0.00    -0.345 OA
BRANCH  11  12
HETATM   12  C   UNL     1     -40.259  52.665 -52.653  1.00  0.00     0.069 A 
HETATM   13  C   UNL     1     -39.923  52.002 -51.468  1.00  0.00     0.040 A 
HETATM   14  C   UNL     1     -39.586  50.645 -51.498  1.00  0.00     0.045 A 
HETATM   15  C   UNL     1     -39.591  49.959 -52.705  1.00  0.00     0.116 A 
HETATM   16  F   UNL     1     -39.264  48.660 -52.727  1.00  0.00    -0.206 F 
HETATM   17  C   UNL     1     -39.930  50.602 -53.889  1.00  0.00     0.045 A 
HETATM   18  C   UNL     1     -40.266  51.956 -53.859  1.00  0.00     0.040 A 
ENDBRANCH  11  12
ENDBRANCH  10  11
ENDBRANCH   7  10
ENDBRANCH   2   5
BRANCH   1  19
HETATM   19  C   UNL     1     -41.961  58.744 -58.470  1.00  0.00     0.035 A 
HETATM   20  C   UNL     1     -41.683  60.105 -58.317  1.00  0.00     0.039 A 
HETATM   21  C   UNL     1     -41.628  60.912 -59.444  1.00  0.00    -0.022 A 
HETATM   22  C   UNL     1     -41.320  62.368 -59.510  1.00  0.00     0.274 C 
HETATM   23  C   UNL     1     -41.837  60.390 -60.721  1.00  0.00    -0.025 A 
HETATM   24  N   UNL     1     -41.616  62.758 -60.954  1.00  0.00    -0.067 N 
HETATM   25  C   UNL     1     -40.682  63.766 -61.521  1.00  0.00     0.270 C 
HETATM   26  H   UNL     1     -42.563  63.154 -60.945  1.00  0.00     0.280 HD
HETATM   27  C   UNL     1     -41.706  61.460 -61.749  1.00  0.00     0.273 C 
HETATM   28  C   UNL     1     -42.092  59.042 -60.899  1.00  0.00     0.012 A 
HETATM   29  C   UNL     1     -42.147  58.220 -59.766  1.00  0.00     0.030 A 
ENDBRANCH   1  19
TORSDOF 5
ENDMDL
MODEL 10
REMARK VINA RESULT:      -7.7      4.429      9.619
REMARK  5 active torsions:
REMARK  status: ('A' for Active; 'I' for Inactive)
REMARK    1  A    between atoms: C_9  and  N_10 
REMARK       I    between atoms: N_10  and  C_11 
REMARK    2  A    between atoms: C_11  and  C_12 
REMARK    3  A    between atoms: C_14  and  C_15 
REMARK    4  A    between atoms: C_15  and  O_16 
REMARK    5  A    between atoms: O_16  and  C_17 
ROOT
HETATM    1  N   UNL     1     -41.603  55.330 -55.742  1.00  0.00    -0.321 N 
HETATM    2  C   UNL     1     -42.746  55.077 -56.493  1.00  0.00     0.279 C 
HETATM    3  O   UNL     1     -43.582  54.226 -56.198  1.00  0.00    -0.265 OA
HETATM    4  H   UNL     1     -41.089  56.165 -55.989  1.00  0.00     0.169 HD
ENDROOT
BRANCH   2   5
HETATM    5  C   UNL     1     -42.897  55.962 -57.634  1.00  0.00     0.143 A 
HETATM    6  O   UNL     1     -43.009  57.303 -57.389  1.00  0.00    -0.307 OA
HETATM    7  C   UNL     1     -43.105  57.941 -58.589  1.00  0.00     0.078 A 
HETATM    8  C   UNL     1     -43.083  57.017 -59.613  1.00  0.00     0.038 A 
HETATM    9  C   UNL     1     -42.942  55.746 -59.001  1.00  0.00     0.045 A 
BRANCH   7  10
HETATM   10  C   UNL     1     -43.183  59.424 -58.546  1.00  0.00     0.240 C 
BRANCH  10  11
HETATM   11  O   UNL     1     -41.884  59.899 -58.203  1.00  0.00    -0.345 OA
BRANCH  11  12
HETATM   12  C   UNL     1     -41.372  60.897 -58.989  1.00  0.00     0.069 A 
HETATM   13  C   UNL     1     -40.561  61.949 -58.553  1.00  0.00     0.040 A 
HETATM   14  C   UNL     1     -40.109  62.908 -59.465  1.00  0.00     0.045 A 
HETATM   15  C   UNL     1     -40.466  62.809 -60.804  1.00  0.00     0.116 A 
HETATM   16  F   UNL     1     -40.033  63.732 -61.672  1.00  0.00    -0.206 F 
HETATM   17  C   UNL     1     -41.264  61.765 -61.253  1.00  0.00     0.045 A 
HETATM   18  C   UNL     1     -41.715  60.808 -60.343  1.00  0.00     0.040 A 
ENDBRANCH  11  12
ENDBRANCH  10  11
ENDBRANCH   7  10
ENDBRANCH   2   5
BRANCH   1  19
HETATM   19  C   UNL     1     -41.195  54.661 -54.570  1.00  0.00     0.035 A 
HETATM   20  C   UNL     1     -41.291  55.217 -53.291  1.00  0.00     0.039 A 
HETATM   21  C   UNL     1     -40.840  54.484 -52.203  1.00  0.00    -0.022 A 
HETATM   22  C   UNL     1     -40.876  54.870 -50.765  1.00  0.00     0.274 C 
HETATM   23  C   UNL     1     -40.301  53.207 -52.362  1.00  0.00    -0.025 A 
HETATM   24  N   UNL     1     -40.057  53.795 -50.058  1.00  0.00    -0.067 N 
HETATM   25  C   UNL     1     -40.578  53.408 -48.722  1.00  0.00     0.270 C 
HETATM   26  H   UNL     1     -39.117  54.192 -49.944  1.00  0.00     0.280 HD
HETATM   27  C   UNL     1     -39.912  52.638 -51.041  1.00  0.00     0.273 C 
HETATM   28  C   UNL     1     -40.217  52.627 -53.615  1.00  0.00     0.012 A 
HETATM   29  C   UNL     1     -40.672  53.360 -54.719  1.00  0.00     0.030 A 
ENDBRANCH   1  19
TORSDOF 5
ENDMDL
