MODEL 1
REMARK VINA RESULT:      -9.7      0.000      0.000
REMARK  3 active torsions:
REMARK  status: ('A' for Active; 'I' for Inactive)
REMARK    1  A    between atoms: C_3  and  C_4 
REMARK       I    between atoms: C_4  and  N_5 
REMARK    2  A    between atoms: N_5  and  C_6 
REMARK    3  A    between atoms: C_13  and  C_14 
REMARK       I    between atoms: C_14  and  N_15 
ROOT
HETATM    1  C   UNL     1     -41.365  55.759 -52.836  1.00  0.00     0.262 C 
HETATM    2  N   UNL     1     -42.705  55.847 -52.517  1.00  0.00    -0.323 N 
HETATM    3  O   UNL     1     -40.704  56.669 -53.328  1.00  0.00    -0.267 OA
HETATM    4  H   UNL     1     -43.157  54.983 -52.219  1.00  0.00     0.169 HD
ENDROOT
BRANCH   2   5
HETATM    5  C   UNL     1     -43.579  56.938 -52.720  1.00  0.00     0.036 A 
HETATM    6  C   UNL     1     -43.950  57.843 -51.717  1.00  0.00     0.046 A 
HETATM    7  C   UNL     1     -44.792  58.932 -52.037  1.00  0.00     0.030 A 
HETATM    8  C   UNL     1     -45.247  59.068 -53.342  1.00  0.00     0.063 A 
HETATM    9  C   UNL     1     -45.353  60.041 -51.333  1.00  0.00     0.156 A 
HETATM   10  N   UNL     1     -46.015  60.197 -53.343  1.00  0.00    -0.277 N 
HETATM   11  C   UNL     1     -44.915  58.174 -54.361  1.00  0.00     0.034 A 
HETATM   12  H   UNL     1     -46.506  60.604 -54.131  1.00  0.00     0.189 HD
HETATM   13  N   UNL     1     -46.102  60.814 -52.153  1.00  0.00    -0.168 NA
HETATM   14  C   UNL     1     -44.072  57.111 -54.021  1.00  0.00     0.032 A 
BRANCH   9  15
HETATM   15  C   UNL     1     -45.185  60.381 -49.913  1.00  0.00     0.270 C 
HETATM   16  N   UNL     1     -43.910  60.742 -49.574  1.00  0.00    -0.365 N 
HETATM   17  H   UNL     1     -43.198  60.742 -50.294  1.00  0.00     0.159 HD
HETATM   18  H   UNL     1     -43.694  60.979 -48.618  1.00  0.00     0.159 HD
HETATM   19  O   UNL     1     -46.079  60.354 -49.075  1.00  0.00    -0.266 OA
ENDBRANCH   9  15
ENDBRANCH   2   5
BRANCH   1  20
HETATM   20  C   UNL     1     -40.732  54.401 -52.607  1.00  0.00     0.114 C 
HETATM   21  C   UNL     1     -40.515  53.564 -53.653  1.00  0.00    -0.027 C 
HETATM   22  C   UNL     1     -40.624  53.967 -55.106  1.00  0.00     0.050 C 
HETATM   23  C   UNL     1     -40.148  52.157 -53.380  1.00  0.00     0.005 A 
HETATM   24  C   UNL     1     -39.921  51.760 -52.066  1.00  0.00     0.090 A 
HETATM   25  C   UNL     1     -40.068  51.162 -54.368  1.00  0.00     0.015 A 
HETATM   26  O   UNL     1     -40.010  52.671 -51.008  1.00  0.00    -0.274 OA
HETATM   27  C   UNL     1     -39.605  50.445 -51.720  1.00  0.00     0.038 A 
HETATM   28  C   UNL     1     -40.397  53.979 -51.223  1.00  0.00     0.304 C 
HETATM   29  O   UNL     1     -40.415  54.775 -50.285  1.00  0.00    -0.259 OA
HETATM   30  C   UNL     1     -39.522  49.477 -52.715  1.00  0.00     0.003 A 
HETATM   31  C   UNL     1     -39.756  49.836 -54.039  1.00  0.00     0.001 A 
ENDBRANCH   1  20
TORSDOF 3
ENDMDL
MODEL 2
REMARK VINA RESULT:      -9.4      3.207      4.864
REMARK  3 active torsions:
REMARK  status: ('A' for Active; 'I' for Inactive)
REMARK    1  A    between atoms: C_3  and  C_4 
REMARK       I    between atoms: C_4  and  N_5 
REMARK    2  A    between atoms: N_5  and  C_6 
REMARK    3  A    between atoms: C_13  and  C_14 
REMARK       I    between atoms: C_14  and  N_15 
ROOT
HETATM    1  C   UNL     1     -41.395  55.586 -53.591  1.00  0.00     0.262 C 
HETATM    2  N   UNL     1     -42.574  55.352 -54.268  1.00  0.00    -0.323 N 
HETATM    3  O   UNL     1     -40.755  56.633 -53.646  1.00  0.00    -0.267 OA
HETATM    4  H   UNL     1     -42.942  54.402 -54.223  1.00  0.00     0.169 HD
ENDROOT
BRANCH   2   5
HETATM    5  C   UNL     1     -43.249  56.211 -55.165  1.00  0.00     0.036 A 
HETATM    6  C   UNL     1     -43.002  56.257 -56.543  1.00  0.00     0.046 A 
HETATM    7  C   UNL     1     -43.769  57.118 -57.361  1.00  0.00     0.030 A 
HETATM    8  C   UNL     1     -44.742  57.913 -56.770  1.00  0.00     0.063 A 
HETATM    9  C   UNL     1     -43.838  57.422 -58.755  1.00  0.00     0.156 A 
HETATM   10  N   UNL     1     -45.311  58.613 -57.796  1.00  0.00    -0.277 N 
HETATM   11  C   UNL     1     -45.001  57.909 -55.399  1.00  0.00     0.034 A 
HETATM   12  H   UNL     1     -46.063  59.290 -57.734  1.00  0.00     0.189 HD
HETATM   13  N   UNL     1     -44.797  58.343 -59.008  1.00  0.00    -0.168 NA
HETATM   14  C   UNL     1     -44.235  57.041 -54.613  1.00  0.00     0.032 A 
BRANCH   9  15
HETATM   15  C   UNL     1     -43.027  56.853 -59.839  1.00  0.00     0.270 C 
HETATM   16  N   UNL     1     -41.704  57.199 -59.786  1.00  0.00    -0.365 N 
HETATM   17  H   UNL     1     -41.391  57.804 -59.036  1.00  0.00     0.159 HD
HETATM   18  H   UNL     1     -41.071  56.867 -60.496  1.00  0.00     0.159 HD
HETATM   19  O   UNL     1     -43.457  56.133 -60.733  1.00  0.00    -0.266 OA
ENDBRANCH   9  15
ENDBRANCH   2   5
BRANCH   1  20
HETATM   20  C   UNL     1     -40.860  54.411 -52.797  1.00  0.00     0.114 C 
HETATM   21  C   UNL     1     -40.360  53.325 -53.438  1.00  0.00    -0.027 C 
HETATM   22  C   UNL     1     -40.052  53.273 -54.917  1.00  0.00     0.050 C 
HETATM   23  C   UNL     1     -40.092  52.095 -52.661  1.00  0.00     0.005 A 
HETATM   24  C   UNL     1     -40.248  52.122 -51.278  1.00  0.00     0.090 A 
HETATM   25  C   UNL     1     -39.742  50.863 -53.237  1.00  0.00     0.015 A 
HETATM   26  O   UNL     1     -40.629  53.293 -50.614  1.00  0.00    -0.274 OA
HETATM   27  C   UNL     1     -40.051  50.997 -50.475  1.00  0.00     0.038 A 
HETATM   28  C   UNL     1     -40.933  54.443 -51.314  1.00  0.00     0.304 C 
HETATM   29  O   UNL     1     -41.211  55.476 -50.706  1.00  0.00    -0.259 OA
HETATM   30  C   UNL     1     -39.694  49.789 -51.066  1.00  0.00     0.003 A 
HETATM   31  C   UNL     1     -39.542  49.723 -52.448  1.00  0.00     0.001 A 
ENDBRANCH   1  20
TORSDOF 3
ENDMDL
MODEL 3
REMARK VINA RESULT:      -9.3      1.526      1.631
REMARK  3 active torsions:
REMARK  status: ('A' for Active; 'I' for Inactive)
REMARK    1  A    between atoms: C_3  and  C_4 
REMARK       I    between atoms: C_4  and  N_5 
REMARK    2  A    between atoms: N_5  and  C_6 
REMARK    3  A    between atoms: C_13  and  C_14 
REMARK       I    between atoms: C_14  and  N_15 
ROOT
HETATM    1  C   UNL     1     -41.908  55.424 -52.915  1.00  0.00     0.262 C 
HETATM    2  N   UNL     1     -41.395  56.578 -52.360  1.00  0.00    -0.323 N 
HETATM    3  O   UNL     1     -42.954  55.363 -53.555  1.00  0.00    -0.267 OA
HETATM    4  H   UNL     1     -40.577  56.467 -51.759  1.00  0.00     0.169 HD
ENDROOT
BRANCH   2   5
HETATM    5  C   UNL     1     -41.957  57.874 -52.368  1.00  0.00     0.036 A 
HETATM    6  C   UNL     1     -43.023  58.272 -51.551  1.00  0.00     0.046 A 
HETATM    7  C   UNL     1     -43.480  59.609 -51.601  1.00  0.00     0.030 A 
HETATM    8  C   UNL     1     -42.867  60.494 -52.478  1.00  0.00     0.063 A 
HETATM    9  C   UNL     1     -44.480  60.380 -50.936  1.00  0.00     0.156 A 
HETATM   10  N   UNL     1     -43.505  61.688 -52.295  1.00  0.00    -0.277 N 
HETATM   11  C   UNL     1     -41.818  60.127 -53.323  1.00  0.00     0.034 A 
HETATM   12  H   UNL     1     -43.316  62.563 -52.768  1.00  0.00     0.189 HD
HETATM   13  N   UNL     1     -44.482  61.661 -51.372  1.00  0.00    -0.168 NA
HETATM   14  C   UNL     1     -41.378  58.801 -53.246  1.00  0.00     0.032 A 
BRANCH   9  15
HETATM   15  C   UNL     1     -45.419  59.931 -49.899  1.00  0.00     0.270 C 
HETATM   16  N   UNL     1     -45.226  60.520 -48.679  1.00  0.00    -0.365 N 
HETATM   17  H   UNL     1     -44.475  61.192 -48.579  1.00  0.00     0.159 HD
HETATM   18  H   UNL     1     -45.813  60.264 -47.902  1.00  0.00     0.159 HD
HETATM   19  O   UNL     1     -46.307  59.102 -50.068  1.00  0.00    -0.266 OA
ENDBRANCH   9  15
ENDBRANCH   2   5
BRANCH   1  20
HETATM   20  C   UNL     1     -41.123  54.160 -52.624  1.00  0.00     0.114 C 
HETATM   21  C   UNL     1     -40.705  53.367 -53.642  1.00  0.00    -0.027 C 
HETATM   22  C   UNL     1     -40.738  53.762 -55.101  1.00  0.00     0.050 C 
HETATM   23  C   UNL     1     -40.179  52.019 -53.332  1.00  0.00     0.005 A 
HETATM   24  C   UNL     1     -40.018  51.647 -52.000  1.00  0.00     0.090 A 
HETATM   25  C   UNL     1     -39.881  51.050 -54.303  1.00  0.00     0.015 A 
HETATM   26  O   UNL     1     -40.321  52.531 -50.959  1.00  0.00    -0.274 OA
HETATM   27  C   UNL     1     -39.562  50.383 -51.620  1.00  0.00     0.038 A 
HETATM   28  C   UNL     1     -40.859  53.777 -51.214  1.00  0.00     0.304 C 
HETATM   29  O   UNL     1     -41.065  54.557 -50.286  1.00  0.00    -0.259 OA
HETATM   30  C   UNL     1     -39.264  49.442 -52.599  1.00  0.00     0.003 A 
HETATM   31  C   UNL     1     -39.425  49.775 -53.941  1.00  0.00     0.001 A 
ENDBRANCH   1  20
TORSDOF 3
ENDMDL
MODEL 4
REMARK VINA RESULT:      -9.3      2.366      3.810
REMARK  3 active torsions:
REMARK  status: ('A' for Active; 'I' for Inactive)
REMARK    1  A    between atoms: C_3  and  C_4 
REMARK       I    between atoms: C_4  and  N_5 
REMARK    2  A    between atoms: N_5  and  C_6 
REMARK    3  A    between atoms: C_13  and  C_14 
REMARK       I    between atoms: C_14  and  N_15 
ROOT
HETATM    1  C   UNL     1     -41.344  55.626 -53.186  1.00  0.00     0.262 C 
HETATM    2  N   UNL     1     -42.686  55.582 -53.502  1.00  0.00    -0.323 N 
HETATM    3  O   UNL     1     -40.639  56.627 -53.272  1.00  0.00    -0.267 OA
HETATM    4  H   UNL     1     -43.125  54.662 -53.491  1.00  0.00     0.169 HD
ENDROOT
BRANCH   2   5
HETATM    5  C   UNL     1     -43.495  56.622 -54.014  1.00  0.00     0.036 A 
HETATM    6  C   UNL     1     -43.737  56.829 -55.378  1.00  0.00     0.046 A 
HETATM    7  C   UNL     1     -44.602  57.870 -55.783  1.00  0.00     0.030 A 
HETATM    8  C   UNL     1     -45.181  58.678 -54.812  1.00  0.00     0.063 A 
HETATM    9  C   UNL     1     -45.104  58.367 -57.024  1.00  0.00     0.156 A 
HETATM   10  N   UNL     1     -45.959  59.568 -55.496  1.00  0.00    -0.277 N 
HETATM   11  C   UNL     1     -44.945  58.514 -53.446  1.00  0.00     0.034 A 
HETATM   12  H   UNL     1     -46.534  60.306 -55.106  1.00  0.00     0.189 HD
HETATM   13  N   UNL     1     -45.943  59.412 -56.830  1.00  0.00    -0.168 NA
HETATM   14  C   UNL     1     -44.093  57.470 -53.071  1.00  0.00     0.032 A 
BRANCH   9  15
HETATM   15  C   UNL     1     -44.813  57.868 -58.375  1.00  0.00     0.270 C 
HETATM   16  N   UNL     1     -45.483  56.722 -58.702  1.00  0.00    -0.365 N 
HETATM   17  H   UNL     1     -46.103  56.309 -58.014  1.00  0.00     0.159 HD
HETATM   18  H   UNL     1     -45.337  56.296 -59.604  1.00  0.00     0.159 HD
HETATM   19  O   UNL     1     -44.043  58.400 -59.168  1.00  0.00    -0.266 OA
ENDBRANCH   9  15
ENDBRANCH   2   5
BRANCH   1  20
HETATM   20  C   UNL     1     -40.732  54.301 -52.775  1.00  0.00     0.114 C 
HETATM   21  C   UNL     1     -40.405  53.379 -53.716  1.00  0.00    -0.027 C 
HETATM   22  C   UNL     1     -40.366  53.654 -55.202  1.00  0.00     0.050 C 
HETATM   23  C   UNL     1     -40.062  52.006 -53.286  1.00  0.00     0.005 A 
HETATM   24  C   UNL     1     -39.969  51.728 -51.925  1.00  0.00     0.090 A 
HETATM   25  C   UNL     1     -39.876  50.931 -54.169  1.00  0.00     0.015 A 
HETATM   26  O   UNL     1     -40.171  52.725 -50.966  1.00  0.00    -0.274 OA
HETATM   27  C   UNL     1     -39.685  50.452 -51.435  1.00  0.00     0.038 A 
HETATM   28  C   UNL     1     -40.540  54.004 -51.333  1.00  0.00     0.304 C 
HETATM   29  O   UNL     1     -40.658  54.879 -50.475  1.00  0.00    -0.259 OA
HETATM   30  C   UNL     1     -39.496  49.403 -52.328  1.00  0.00     0.003 A 
HETATM   31  C   UNL     1     -39.594  49.642 -53.695  1.00  0.00     0.001 A 
ENDBRANCH   1  20
TORSDOF 3
ENDMDL
MODEL 5
REMARK VINA RESULT:      -9.0      2.408      3.145
REMARK  3 active torsions:
REMARK  status: ('A' for Active; 'I' for Inactive)
REMARK    1  A    between atoms: C_3  and  C_4 
REMARK       I    between atoms: C_4  and  N_5 
REMARK    2  A    between atoms: N_5  and  C_6 
REMARK    3  A    between atoms: C_13  and  C_14 
REMARK       I    between atoms: C_14  and  N_15 
ROOT
HETATM    1  C   UNL     1     -41.773  55.508 -52.508  1.00  0.00     0.262 C 
HETATM    2  N   UNL     1     -41.038  56.653 -52.283  1.00  0.00    -0.323 N 
HETATM    3  O   UNL     1     -42.977  55.487 -52.745  1.00  0.00    -0.267 OA
HETATM    4  H   UNL     1     -40.070  56.521 -51.988  1.00  0.00     0.169 HD
ENDROOT
BRANCH   2   5
HETATM    5  C   UNL     1     -41.498  57.988 -52.236  1.00  0.00     0.036 A 
HETATM    6  C   UNL     1     -41.881  58.727 -53.364  1.00  0.00     0.046 A 
HETATM    7  C   UNL     1     -42.376  60.041 -53.203  1.00  0.00     0.030 A 
HETATM    8  C   UNL     1     -42.453  60.576 -51.923  1.00  0.00     0.063 A 
HETATM    9  C   UNL     1     -42.873  61.066 -54.063  1.00  0.00     0.156 A 
HETATM   10  N   UNL     1     -42.969  61.831 -52.085  1.00  0.00    -0.277 N 
HETATM   11  C   UNL     1     -42.059  59.878 -50.780  1.00  0.00     0.034 A 
HETATM   12  H   UNL     1     -43.166  62.510 -51.360  1.00  0.00     0.189 HD
HETATM   13  N   UNL     1     -43.238  62.162 -53.359  1.00  0.00    -0.168 NA
HETATM   14  C   UNL     1     -41.584  58.576 -50.966  1.00  0.00     0.032 A 
BRANCH   9  15
HETATM   15  C   UNL     1     -43.016  61.021 -55.525  1.00  0.00     0.270 C 
HETATM   16  N   UNL     1     -42.394  62.050 -56.178  1.00  0.00    -0.365 N 
HETATM   17  H   UNL     1     -41.905  62.747 -55.629  1.00  0.00     0.159 HD
HETATM   18  H   UNL     1     -42.449  62.111 -57.182  1.00  0.00     0.159 HD
HETATM   19  O   UNL     1     -43.631  60.159 -56.143  1.00  0.00    -0.266 OA
ENDBRANCH   9  15
ENDBRANCH   2   5
BRANCH   1  20
HETATM   20  C   UNL     1     -41.005  54.208 -52.369  1.00  0.00     0.114 C 
HETATM   21  C   UNL     1     -40.716  53.466 -53.468  1.00  0.00    -0.027 C 
HETATM   22  C   UNL     1     -40.880  53.947 -54.891  1.00  0.00     0.050 C 
HETATM   23  C   UNL     1     -40.207  52.088 -53.288  1.00  0.00     0.005 A 
HETATM   24  C   UNL     1     -39.928  51.633 -52.003  1.00  0.00     0.090 A 
HETATM   25  C   UNL     1     -40.038  51.171 -54.338  1.00  0.00     0.015 A 
HETATM   26  O   UNL     1     -40.097  52.461 -50.888  1.00  0.00    -0.274 OA
HETATM   27  C   UNL     1     -39.478  50.337 -51.743  1.00  0.00     0.038 A 
HETATM   28  C   UNL     1     -40.615  53.734 -51.017  1.00  0.00     0.304 C 
HETATM   29  O   UNL     1     -40.703  54.463 -50.030  1.00  0.00    -0.259 OA
HETATM   30  C   UNL     1     -39.309  49.448 -52.799  1.00  0.00     0.003 A 
HETATM   31  C   UNL     1     -39.591  49.865 -54.096  1.00  0.00     0.001 A 
ENDBRANCH   1  20
TORSDOF 3
ENDMDL
MODEL 6
REMARK VINA RESULT:      -8.8      2.672      3.721
REMARK  3 active torsions:
REMARK  status: ('A' for Active; 'I' for Inactive)
REMARK    1  A    between atoms: C_3  and  C_4 
REMARK       I    between atoms: C_4  and  N_5 
REMARK    2  A    between atoms: N_5  and  C_6 
REMARK    3  A    between atoms: C_13  and  C_14 
REMARK       I    between atoms: C_14  and  N_15 
ROOT
HETATM    1  C   UNL     1     -41.778  55.633 -53.178  1.00  0.00     0.262 C 
HETATM    2  N   UNL     1     -41.012  56.780 -53.215  1.00  0.00    -0.323 N 
HETATM    3  O   UNL     1     -42.993  55.599 -53.355  1.00  0.00    -0.267 OA
HETATM    4  H   UNL     1     -40.034  56.681 -52.941  1.00  0.00     0.169 HD
ENDROOT
BRANCH   2   5
HETATM    5  C   UNL     1     -41.444  58.110 -53.412  1.00  0.00     0.036 A 
HETATM    6  C   UNL     1     -41.750  58.659 -54.665  1.00  0.00     0.046 A 
HETATM    7  C   UNL     1     -42.223  59.988 -54.748  1.00  0.00     0.030 A 
HETATM    8  C   UNL     1     -42.357  60.727 -53.579  1.00  0.00     0.063 A 
HETATM    9  C   UNL     1     -42.651  60.865 -55.790  1.00  0.00     0.156 A 
HETATM   10  N   UNL     1     -42.835  61.944 -53.971  1.00  0.00    -0.277 N 
HETATM   11  C   UNL     1     -42.041  60.220 -52.317  1.00  0.00     0.034 A 
HETATM   12  H   UNL     1     -43.056  62.736 -53.379  1.00  0.00     0.189 HD
HETATM   13  N   UNL     1     -43.029  62.067 -55.295  1.00  0.00    -0.168 NA
HETATM   14  C   UNL     1     -41.585  58.899 -52.261  1.00  0.00     0.032 A 
BRANCH   9  15
HETATM   15  C   UNL     1     -42.716  60.583 -57.231  1.00  0.00     0.270 C 
HETATM   16  N   UNL     1     -43.793  59.827 -57.603  1.00  0.00    -0.365 N 
HETATM   17  H   UNL     1     -44.441  59.520 -56.886  1.00  0.00     0.159 HD
HETATM   18  H   UNL     1     -43.914  59.570 -58.569  1.00  0.00     0.159 HD
HETATM   19  O   UNL     1     -41.897  60.969 -58.058  1.00  0.00    -0.266 OA
ENDBRANCH   9  15
ENDBRANCH   2   5
BRANCH   1  20
HETATM   20  C   UNL     1     -41.029  54.365 -52.820  1.00  0.00     0.114 C 
HETATM   21  C   UNL     1     -40.699  53.471 -53.785  1.00  0.00    -0.027 C 
HETATM   22  C   UNL     1     -40.796  53.743 -55.269  1.00  0.00     0.050 C 
HETATM   23  C   UNL     1     -40.211  52.132 -53.387  1.00  0.00     0.005 A 
HETATM   24  C   UNL     1     -39.993  51.867 -52.038  1.00  0.00     0.090 A 
HETATM   25  C   UNL     1     -40.005  51.073 -54.285  1.00  0.00     0.015 A 
HETATM   26  O   UNL     1     -40.203  52.847 -51.063  1.00  0.00    -0.274 OA
HETATM   27  C   UNL     1     -39.568  50.620 -51.574  1.00  0.00     0.038 A 
HETATM   28  C   UNL     1     -40.704  54.090 -51.397  1.00  0.00     0.304 C 
HETATM   29  O   UNL     1     -40.829  54.954 -50.530  1.00  0.00    -0.259 OA
HETATM   30  C   UNL     1     -39.360  49.588 -52.482  1.00  0.00     0.003 A 
HETATM   31  C   UNL     1     -39.581  49.814 -53.837  1.00  0.00     0.001 A 
ENDBRANCH   1  20
TORSDOF 3
ENDMDL
MODEL 7
REMARK VINA RESULT:      -8.4      2.143      3.367
REMARK  3 active torsions:
REMARK  status: ('A' for Active; 'I' for Inactive)
REMARK    1  A    between atoms: C_3  and  C_4 
REMARK       I    between atoms: C_4  and  N_5 
REMARK    2  A    between atoms: N_5  and  C_6 
REMARK    3  A    between atoms: C_13  and  C_14 
REMARK       I    between atoms: C_14  and  N_15 
ROOT
HETATM    1  C   UNL     1     -42.544  56.442 -52.694  1.00  0.00     0.262 C 
HETATM    2  N   UNL     1     -43.905  56.629 -52.568  1.00  0.00    -0.323 N 
HETATM    3  O   UNL     1     -41.706  57.336 -52.614  1.00  0.00    -0.267 OA
HETATM    4  H   UNL     1     -44.494  55.821 -52.767  1.00  0.00     0.169 HD
ENDROOT
BRANCH   2   5
HETATM    5  C   UNL     1     -44.602  57.842 -52.373  1.00  0.00     0.036 A 
HETATM    6  C   UNL     1     -44.808  58.799 -53.375  1.00  0.00     0.046 A 
HETATM    7  C   UNL     1     -45.564  59.958 -53.088  1.00  0.00     0.030 A 
HETATM    8  C   UNL     1     -46.072  60.128 -51.806  1.00  0.00     0.063 A 
HETATM    9  C   UNL     1     -46.002  61.107 -53.814  1.00  0.00     0.156 A 
HETATM   10  N   UNL     1     -46.753  61.311 -51.839  1.00  0.00    -0.277 N 
HETATM   11  C   UNL     1     -45.868  59.206 -50.778  1.00  0.00     0.034 A 
HETATM   12  H   UNL     1     -47.257  61.750 -51.077  1.00  0.00     0.189 HD
HETATM   13  N   UNL     1     -46.737  61.931 -53.031  1.00  0.00    -0.168 NA
HETATM   14  C   UNL     1     -45.126  58.063 -51.090  1.00  0.00     0.032 A 
BRANCH   9  15
HETATM   15  C   UNL     1     -45.747  61.430 -55.224  1.00  0.00     0.270 C 
HETATM   16  N   UNL     1     -46.524  60.730 -56.106  1.00  0.00    -0.365 N 
HETATM   17  H   UNL     1     -47.190  60.060 -55.739  1.00  0.00     0.159 HD
HETATM   18  H   UNL     1     -46.410  60.874 -57.097  1.00  0.00     0.159 HD
HETATM   19  O   UNL     1     -44.918  62.243 -55.618  1.00  0.00    -0.266 OA
ENDBRANCH   9  15
ENDBRANCH   2   5
BRANCH   1  20
HETATM   20  C   UNL     1     -42.112  55.026 -53.023  1.00  0.00     0.114 C 
HETATM   21  C   UNL     1     -41.423  54.293 -52.113  1.00  0.00    -0.027 C 
HETATM   22  C   UNL     1     -41.249  54.679 -50.662  1.00  0.00     0.050 C 
HETATM   23  C   UNL     1     -40.788  53.028 -52.544  1.00  0.00     0.005 A 
HETATM   24  C   UNL     1     -41.012  52.567 -53.838  1.00  0.00     0.090 A 
HETATM   25  C   UNL     1     -39.912  52.278 -51.744  1.00  0.00     0.015 A 
HETATM   26  O   UNL     1     -41.842  53.263 -54.723  1.00  0.00    -0.274 OA
HETATM   27  C   UNL     1     -40.423  51.402 -54.336  1.00  0.00     0.038 A 
HETATM   28  C   UNL     1     -42.411  54.470 -54.368  1.00  0.00     0.304 C 
HETATM   29  O   UNL     1     -43.181  55.036 -55.142  1.00  0.00    -0.259 OA
HETATM   30  C   UNL     1     -39.566  50.669 -53.523  1.00  0.00     0.003 A 
HETATM   31  C   UNL     1     -39.309  51.108 -52.227  1.00  0.00     0.001 A 
ENDBRANCH   1  20
TORSDOF 3
ENDMDL
MODEL 8
REMARK VINA RESULT:      -8.2      4.019      8.516
REMARK  3 active torsions:
REMARK  status: ('A' for Active; 'I' for Inactive)
REMARK    1  A    between atoms: C_3  and  C_4 
REMARK       I    between atoms: C_4  and  N_5 
REMARK    2  A    between atoms: N_5  and  C_6 
REMARK    3  A    between atoms: C_13  and  C_14 
REMARK       I    between atoms: C_14  and  N_15 
ROOT
HETATM    1  C   UNL     1     -42.637  56.441 -54.900  1.00  0.00     0.262 C 
HETATM    2  N   UNL     1     -41.438  56.240 -54.247  1.00  0.00    -0.323 N 
HETATM    3  O   UNL     1     -43.664  55.803 -54.685  1.00  0.00    -0.267 OA
HETATM    4  H   UNL     1     -40.636  56.761 -54.601  1.00  0.00     0.169 HD
ENDROOT
BRANCH   2   5
HETATM    5  C   UNL     1     -41.133  55.272 -53.264  1.00  0.00     0.036 A 
HETATM    6  C   UNL     1     -40.777  53.947 -53.551  1.00  0.00     0.046 A 
HETATM    7  C   UNL     1     -40.442  53.071 -52.494  1.00  0.00     0.030 A 
HETATM    8  C   UNL     1     -40.492  53.543 -51.189  1.00  0.00     0.063 A 
HETATM    9  C   UNL     1     -40.018  51.712 -52.379  1.00  0.00     0.156 A 
HETATM   10  N   UNL     1     -40.112  52.490 -50.406  1.00  0.00    -0.277 N 
HETATM   11  C   UNL     1     -40.864  54.849 -50.865  1.00  0.00     0.034 A 
HETATM   12  H   UNL     1     -40.030  52.475 -49.396  1.00  0.00     0.189 HD
HETATM   13  N   UNL     1     -39.815  51.370 -51.086  1.00  0.00    -0.168 NA
HETATM   14  C   UNL     1     -41.180  55.699 -51.930  1.00  0.00     0.032 A 
BRANCH   9  15
HETATM   15  C   UNL     1     -39.795  50.746 -53.464  1.00  0.00     0.270 C 
HETATM   16  N   UNL     1     -39.474  49.488 -53.033  1.00  0.00    -0.365 N 
HETATM   17  H   UNL     1     -39.408  49.319 -52.036  1.00  0.00     0.159 HD
HETATM   18  H   UNL     1     -39.290  48.760 -53.705  1.00  0.00     0.159 HD
HETATM   19  O   UNL     1     -39.876  51.004 -54.660  1.00  0.00    -0.266 OA
ENDBRANCH   9  15
ENDBRANCH   2   5
BRANCH   1  20
HETATM   20  C   UNL     1     -42.609  57.484 -56.000  1.00  0.00     0.114 C 
HETATM   21  C   UNL     1     -42.702  57.108 -57.300  1.00  0.00    -0.027 C 
HETATM   22  C   UNL     1     -43.088  55.722 -57.763  1.00  0.00     0.050 C 
HETATM   23  C   UNL     1     -42.408  58.102 -58.356  1.00  0.00     0.005 A 
HETATM   24  C   UNL     1     -42.160  59.422 -57.991  1.00  0.00     0.090 A 
HETATM   25  C   UNL     1     -42.303  57.788 -59.721  1.00  0.00     0.015 A 
HETATM   26  O   UNL     1     -42.207  59.825 -56.653  1.00  0.00    -0.274 OA
HETATM   27  C   UNL     1     -41.840  60.413 -58.921  1.00  0.00     0.038 A 
HETATM   28  C   UNL     1     -42.431  58.914 -55.640  1.00  0.00     0.304 C 
HETATM   29  O   UNL     1     -42.522  59.301 -54.476  1.00  0.00    -0.259 OA
HETATM   30  C   UNL     1     -41.751  60.083 -60.269  1.00  0.00     0.003 A 
HETATM   31  C   UNL     1     -41.980  58.770 -60.668  1.00  0.00     0.001 A 
ENDBRANCH   1  20
TORSDOF 3
ENDMDL
MODEL 9
REMARK VINA RESULT:      -8.1      2.156      3.380
REMARK  3 active torsions:
REMARK  status: ('A' for Active; 'I' for Inactive)
REMARK    1  A    between atoms: C_3  and  C_4 
REMARK       I    between atoms: C_4  and  N_5 
REMARK    2  A    between atoms: N_5  and  C_6 
REMARK    3  A    between atoms: C_13  and  C_14 
REMARK       I    between atoms: C_14  and  N_15 
ROOT
HETATM    1  C   UNL     1     -43.131  56.247 -51.728  1.00  0.00     0.262 C 
HETATM    2  N   UNL     1     -42.520  57.416 -52.133  1.00  0.00    -0.323 N 
HETATM    3  O   UNL     1     -44.043  56.184 -50.908  1.00  0.00    -0.267 OA
HETATM    4  H   UNL     1     -41.703  57.316 -52.735  1.00  0.00     0.169 HD
ENDROOT
BRANCH   2   5
HETATM    5  C   UNL     1     -42.769  58.731 -51.680  1.00  0.00     0.036 A 
HETATM    6  C   UNL     1     -43.918  59.467 -51.999  1.00  0.00     0.046 A 
HETATM    7  C   UNL     1     -44.094  60.758 -51.453  1.00  0.00     0.030 A 
HETATM    8  C   UNL     1     -43.108  61.275 -50.622  1.00  0.00     0.063 A 
HETATM    9  C   UNL     1     -45.097  61.773 -51.512  1.00  0.00     0.156 A 
HETATM   10  N   UNL     1     -43.558  62.510 -50.249  1.00  0.00    -0.277 N 
HETATM   11  C   UNL     1     -41.941  60.580 -50.300  1.00  0.00     0.034 A 
HETATM   12  H   UNL     1     -43.095  63.173 -49.639  1.00  0.00     0.189 HD
HETATM   13  N   UNL     1     -44.754  62.845 -50.762  1.00  0.00    -0.168 NA
HETATM   14  C   UNL     1     -41.797  59.300 -50.845  1.00  0.00     0.032 A 
BRANCH   9  15
HETATM   15  C   UNL     1     -46.366  61.740 -52.252  1.00  0.00     0.270 C 
HETATM   16  N   UNL     1     -46.592  62.848 -53.022  1.00  0.00    -0.365 N 
HETATM   17  H   UNL     1     -45.899  63.588 -53.022  1.00  0.00     0.159 HD
HETATM   18  H   UNL     1     -47.443  62.921 -53.556  1.00  0.00     0.159 HD
HETATM   19  O   UNL     1     -47.179  60.822 -52.210  1.00  0.00    -0.266 OA
ENDBRANCH   9  15
ENDBRANCH   2   5
BRANCH   1  20
HETATM   20  C   UNL     1     -42.550  54.976 -52.314  1.00  0.00     0.114 C 
HETATM   21  C   UNL     1     -41.718  54.201 -51.574  1.00  0.00    -0.027 C 
HETATM   22  C   UNL     1     -41.499  54.361 -50.087  1.00  0.00     0.050 C 
HETATM   23  C   UNL     1     -40.959  53.121 -52.243  1.00  0.00     0.005 A 
HETATM   24  C   UNL     1     -41.207  52.854 -53.586  1.00  0.00     0.090 A 
HETATM   25  C   UNL     1     -39.947  52.372 -51.622  1.00  0.00     0.015 A 
HETATM   26  O   UNL     1     -42.173  53.569 -54.302  1.00  0.00    -0.274 OA
HETATM   27  C   UNL     1     -40.511  51.877 -54.301  1.00  0.00     0.038 A 
HETATM   28  C   UNL     1     -42.863  54.614 -53.721  1.00  0.00     0.304 C 
HETATM   29  O   UNL     1     -43.746  55.193 -54.352  1.00  0.00    -0.259 OA
HETATM   30  C   UNL     1     -39.519  51.140 -53.664  1.00  0.00     0.003 A 
HETATM   31  C   UNL     1     -39.236  51.390 -52.324  1.00  0.00     0.001 A 
ENDBRANCH   1  20
TORSDOF 3
ENDMDL
MODEL 10
REMARK VINA RESULT:      -8.0      3.981      5.653
REMARK  3 active torsions:
REMARK  status: ('A' for Active; 'I' for Inactive)
REMARK    1  A    between atoms: C_3  and  C_4 
REMARK       I    between atoms: C_4  and  N_5 
REMARK    2  A    between atoms: N_5  and  C_6 
REMARK    3  A    between atoms: C_13  and  C_14 
REMARK       I    between atoms: C_14  and  N_15 
ROOT
HETATM    1  C   UNL     1     -43.049  55.329 -54.516  1.00  0.00     0.262 C 
HETATM    2  N   UNL     1     -42.140  55.856 -55.410  1.00  0.00    -0.323 N 
HETATM    3  O   UNL     1     -44.269  55.415 -54.628  1.00  0.00    -0.267 OA
HETATM    4  H   UNL     1     -41.158  55.809 -55.139  1.00  0.00     0.169 HD
ENDROOT
BRANCH   2   5
HETATM    5  C   UNL     1     -42.401  56.613 -56.574  1.00  0.00     0.036 A 
HETATM    6  C   UNL     1     -42.073  57.967 -56.719  1.00  0.00     0.046 A 
HETATM    7  C   UNL     1     -42.333  58.620 -57.946  1.00  0.00     0.030 A 
HETATM    8  C   UNL     1     -42.927  57.902 -58.975  1.00  0.00     0.063 A 
HETATM    9  C   UNL     1     -42.129  59.930 -58.477  1.00  0.00     0.156 A 
HETATM   10  N   UNL     1     -43.039  58.782 -60.014  1.00  0.00    -0.277 N 
HETATM   11  C   UNL     1     -43.288  56.559 -58.858  1.00  0.00     0.034 A 
HETATM   12  H   UNL     1     -43.425  58.600 -60.933  1.00  0.00     0.189 HD
HETATM   13  N   UNL     1     -42.567  60.013 -59.755  1.00  0.00    -0.168 NA
HETATM   14  C   UNL     1     -43.010  55.933 -57.639  1.00  0.00     0.032 A 
BRANCH   9  15
HETATM   15  C   UNL     1     -41.526  61.088 -57.805  1.00  0.00     0.270 C 
HETATM   16  N   UNL     1     -42.290  61.608 -56.797  1.00  0.00    -0.365 N 
HETATM   17  H   UNL     1     -43.186  61.179 -56.597  1.00  0.00     0.159 HD
HETATM   18  H   UNL     1     -41.965  62.414 -56.286  1.00  0.00     0.159 HD
HETATM   19  O   UNL     1     -40.439  61.578 -58.093  1.00  0.00    -0.266 OA
ENDBRANCH   9  15
ENDBRANCH   2   5
BRANCH   1  20
HETATM   20  C   UNL     1     -42.446  54.670 -53.291  1.00  0.00     0.114 C 
HETATM   21  C   UNL     1     -42.604  55.231 -52.066  1.00  0.00    -0.027 C 
HETATM   22  C   UNL     1     -43.561  56.361 -51.762  1.00  0.00     0.050 C 
HETATM   23  C   UNL     1     -41.794  54.725 -50.936  1.00  0.00     0.005 A 
HETATM   24  C   UNL     1     -40.981  53.612 -51.132  1.00  0.00     0.090 A 
HETATM   25  C   UNL     1     -41.743  55.335 -49.672  1.00  0.00     0.015 A 
HETATM   26  O   UNL     1     -40.937  52.956 -52.366  1.00  0.00    -0.274 OA
HETATM   27  C   UNL     1     -40.160  53.093 -50.129  1.00  0.00     0.038 A 
HETATM   28  C   UNL     1     -41.642  53.431 -53.454  1.00  0.00     0.304 C 
HETATM   29  O   UNL     1     -41.631  52.806 -54.513  1.00  0.00    -0.259 OA
HETATM   30  C   UNL     1     -40.132  53.707 -48.882  1.00  0.00     0.003 A 
HETATM   31  C   UNL     1     -40.923  54.830 -48.655  1.00  0.00     0.001 A 
ENDBRANCH   1  20
TORSDOF 3
ENDMDL
