MODEL 1
REMARK VINA RESULT:      -8.2      0.000      0.000
REMARK  7 active torsions:
REMARK  status: ('A' for Active; 'I' for Inactive)
REMARK    1  A    between atoms: O_2  and  C_3 
REMARK    2  A    between atoms: C_6  and  N_7 
REMARK    3  A    between atoms: N_7  and  C_8 
REMARK    4  A    between atoms: C_8  and  C_9 
REMARK       I    between atoms: C_9  and  N_10 
REMARK    5  A    between atoms: N_10  and  N_11 
REMARK       I    between atoms: N_11  and  C_12 
REMARK    6  A    between atoms: C_12  and  C_13 
REMARK    7  A    between atoms: N_15  and  C_16 
ROOT
HETATM    1  N   UNL     1     -42.093  56.716 -57.451  1.00  0.00    -0.263 N 
HETATM    2  C   UNL     1     -43.062  56.754 -56.465  1.00  0.00     0.273 C 
HETATM    3  O   UNL     1     -43.987  57.565 -56.485  1.00  0.00    -0.266 OA
HETATM    4  H   UNL     1     -41.175  56.328 -57.240  1.00  0.00     0.190 HD
ENDROOT
BRANCH   1   5
HETATM    5  N   UNL     1     -42.091  57.760 -58.400  1.00  0.00    -0.266 N 
HETATM    6  C   UNL     1     -42.056  57.394 -59.736  1.00  0.00     0.253 C 
HETATM    7  O   UNL     1     -42.155  56.221 -60.102  1.00  0.00    -0.270 OA
HETATM    8  H   UNL     1     -41.647  58.625 -58.094  1.00  0.00     0.190 HD
BRANCH   6   9
HETATM    9  C   UNL     1     -41.902  58.576 -60.700  1.00  0.00     0.224 C 
BRANCH   9  10
HETATM   10  N   UNL     1     -42.412  59.792 -60.071  1.00  0.00    -0.381 N 
HETATM   11  H   UNL     1     -43.407  59.930 -60.247  1.00  0.00     0.160 HD
BRANCH  10  12
HETATM   12  C   UNL     1     -41.667  60.963 -60.027  1.00  0.00     0.028 A 
HETATM   13  C   UNL     1     -41.139  61.371 -58.794  1.00  0.00     0.032 A 
HETATM   14  C   UNL     1     -40.278  62.472 -58.686  1.00  0.00     0.039 A 
HETATM   15  C   UNL     1     -39.902  63.176 -59.827  1.00  0.00     0.068 A 
HETATM   16  C   UNL     1     -40.414  62.778 -61.061  1.00  0.00     0.039 A 
HETATM   17  C   UNL     1     -41.275  61.678 -61.162  1.00  0.00     0.032 A 
BRANCH  15  18
HETATM   18  O   UNL     1     -39.053  64.245 -59.870  1.00  0.00    -0.356 OA
HETATM   19  C   UNL     1     -38.255  64.377 -61.040  1.00  0.00     0.210 C 
ENDBRANCH  15  18
ENDBRANCH  10  12
ENDBRANCH   9  10
ENDBRANCH   6   9
ENDBRANCH   1   5
BRANCH   2  20
HETATM   20  C   UNL     1     -42.900  55.773 -55.412  1.00  0.00     0.070 A 
HETATM   21  C   UNL     1     -41.770  55.013 -55.178  1.00  0.00     0.137 A 
HETATM   22  N   UNL     1     -42.013  54.230 -54.071  1.00  0.00    -0.244 N 
HETATM   23  N   UNL     1     -43.253  54.465 -53.572  1.00  0.00    -0.179 NA
HETATM   24  C   UNL     1     -43.778  55.383 -54.383  1.00  0.00     0.157 A 
BRANCH  22  25
HETATM   25  C   UNL     1     -41.148  53.282 -53.459  1.00  0.00     0.059 A 
HETATM   26  C   UNL     1     -40.716  52.168 -54.200  1.00  0.00     0.055 A 
HETATM   27  C   UNL     1     -39.875  51.227 -53.609  1.00  0.00     0.036 A 
HETATM   28 CL   UNL     1     -39.361  49.854 -54.512  1.00  0.00    -0.084 Cl
HETATM   29  C   UNL     1     -39.448  51.384 -52.293  1.00  0.00     0.024 A 
HETATM   30  C   UNL     1     -39.868  52.491 -51.556  1.00  0.00     0.004 A 
HETATM   31  C   UNL     1     -40.720  53.438 -52.133  1.00  0.00     0.031 A 
ENDBRANCH  22  25
ENDBRANCH   2  20
TORSDOF 7
ENDMDL
MODEL 2
REMARK VINA RESULT:      -8.1      6.847      9.306
REMARK  7 active torsions:
REMARK  status: ('A' for Active; 'I' for Inactive)
REMARK    1  A    between atoms: O_2  and  C_3 
REMARK    2  A    between atoms: C_6  and  N_7 
REMARK    3  A    between atoms: N_7  and  C_8 
REMARK    4  A    between atoms: C_8  and  C_9 
REMARK       I    between atoms: C_9  and  N_10 
REMARK    5  A    between atoms: N_10  and  N_11 
REMARK       I    between atoms: N_11  and  C_12 
REMARK    6  A    between atoms: C_12  and  C_13 
REMARK    7  A    between atoms: N_15  and  C_16 
ROOT
HETATM    1  N   UNL     1     -43.149  57.574 -51.572  1.00  0.00    -0.263 N 
HETATM    2  C   UNL     1     -41.832  57.211 -51.355  1.00  0.00     0.273 C 
HETATM    3  O   UNL     1     -41.139  57.745 -50.489  1.00  0.00    -0.266 OA
HETATM    4  H   UNL     1     -43.570  57.414 -52.486  1.00  0.00     0.190 HD
ENDROOT
BRANCH   1   5
HETATM    5  N   UNL     1     -43.631  58.709 -50.887  1.00  0.00    -0.266 N 
HETATM    6  C   UNL     1     -44.997  58.771 -50.660  1.00  0.00     0.253 C 
HETATM    7  O   UNL     1     -45.753  57.833 -50.919  1.00  0.00    -0.270 OA
HETATM    8  H   UNL     1     -43.095  59.564 -51.031  1.00  0.00     0.190 HD
BRANCH   6   9
HETATM    9  C   UNL     1     -45.465  60.098 -50.050  1.00  0.00     0.224 C 
BRANCH   9  10
HETATM   10  N   UNL     1     -44.480  60.564 -49.076  1.00  0.00    -0.381 N 
HETATM   11  H   UNL     1     -43.870  59.813 -48.754  1.00  0.00     0.160 HD
BRANCH  10  12
HETATM   12  C   UNL     1     -44.798  61.504 -48.104  1.00  0.00     0.028 A 
HETATM   13  C   UNL     1     -44.989  61.063 -46.787  1.00  0.00     0.032 A 
HETATM   14  C   UNL     1     -45.192  61.959 -45.729  1.00  0.00     0.039 A 
HETATM   15  C   UNL     1     -45.178  63.331 -45.967  1.00  0.00     0.068 A 
HETATM   16  C   UNL     1     -44.982  63.785 -47.270  1.00  0.00     0.039 A 
HETATM   17  C   UNL     1     -44.781  62.884 -48.323  1.00  0.00     0.032 A 
BRANCH  15  18
HETATM   18  O   UNL     1     -45.334  64.312 -45.029  1.00  0.00    -0.356 OA
HETATM   19  C   UNL     1     -45.038  63.960 -43.684  1.00  0.00     0.210 C 
ENDBRANCH  15  18
ENDBRANCH  10  12
ENDBRANCH   9  10
ENDBRANCH   6   9
ENDBRANCH   1   5
BRANCH   2  20
HETATM   20  C   UNL     1     -41.335  56.164 -52.224  1.00  0.00     0.070 A 
HETATM   21  C   UNL     1     -41.154  54.839 -51.876  1.00  0.00     0.137 A 
HETATM   22  N   UNL     1     -40.698  54.171 -52.990  1.00  0.00    -0.244 N 
HETATM   23  N   UNL     1     -40.590  55.012 -54.050  1.00  0.00    -0.179 NA
HETATM   24  C   UNL     1     -40.967  56.201 -53.581  1.00  0.00     0.157 A 
BRANCH  22  25
HETATM   25  C   UNL     1     -40.362  52.795 -53.113  1.00  0.00     0.059 A 
HETATM   26  C   UNL     1     -40.032  52.063 -51.960  1.00  0.00     0.055 A 
HETATM   27  C   UNL     1     -39.693  50.715 -52.068  1.00  0.00     0.036 A 
HETATM   28 CL   UNL     1     -39.271  49.824 -50.657  1.00  0.00    -0.084 Cl
HETATM   29  C   UNL     1     -39.689  50.082 -53.309  1.00  0.00     0.024 A 
HETATM   30  C   UNL     1     -40.023  50.803 -54.455  1.00  0.00     0.004 A 
HETATM   31  C   UNL     1     -40.355  52.157 -54.362  1.00  0.00     0.031 A 
ENDBRANCH  22  25
ENDBRANCH   2  20
TORSDOF 7
ENDMDL
MODEL 3
REMARK VINA RESULT:      -7.7      6.966      9.379
REMARK  7 active torsions:
REMARK  status: ('A' for Active; 'I' for Inactive)
REMARK    1  A    between atoms: O_2  and  C_3 
REMARK    2  A    between atoms: C_6  and  N_7 
REMARK    3  A    between atoms: N_7  and  C_8 
REMARK    4  A    between atoms: C_8  and  C_9 
REMARK       I    between atoms: C_9  and  N_10 
REMARK    5  A    between atoms: N_10  and  N_11 
REMARK       I    between atoms: N_11  and  C_12 
REMARK    6  A    between atoms: C_12  and  C_13 
REMARK    7  A    between atoms: N_15  and  C_16 
ROOT
HETATM    1  N   UNL     1     -43.240  57.963 -51.286  1.00  0.00    -0.263 N 
HETATM    2  C   UNL     1     -43.656  57.589 -52.551  1.00  0.00     0.273 C 
HETATM    3  O   UNL     1     -44.409  58.290 -53.226  1.00  0.00    -0.266 OA
HETATM    4  H   UNL     1     -42.952  57.247 -50.620  1.00  0.00     0.190 HD
ENDROOT
BRANCH   1   5
HETATM    5  N   UNL     1     -43.848  59.097 -50.709  1.00  0.00    -0.266 N 
HETATM    6  C   UNL     1     -43.073  60.240 -50.604  1.00  0.00     0.253 C 
HETATM    7  O   UNL     1     -41.948  60.323 -51.102  1.00  0.00    -0.270 OA
HETATM    8  H   UNL     1     -44.567  58.899 -50.014  1.00  0.00     0.190 HD
BRANCH   6   9
HETATM    9  C   UNL     1     -43.748  61.381 -49.833  1.00  0.00     0.224 C 
BRANCH   9  10
HETATM   10  N   UNL     1     -44.600  60.825 -48.784  1.00  0.00    -0.381 N 
HETATM   11  H   UNL     1     -45.352  60.249 -49.162  1.00  0.00     0.160 HD
BRANCH  10  12
HETATM   12  C   UNL     1     -44.949  61.558 -47.657  1.00  0.00     0.028 A 
HETATM   13  C   UNL     1     -44.712  60.995 -46.396  1.00  0.00     0.032 A 
HETATM   14  C   UNL     1     -44.922  61.715 -45.212  1.00  0.00     0.039 A 
HETATM   15  C   UNL     1     -45.351  63.038 -45.270  1.00  0.00     0.068 A 
HETATM   16  C   UNL     1     -45.585  63.615 -46.518  1.00  0.00     0.039 A 
HETATM   17  C   UNL     1     -45.374  62.889 -47.696  1.00  0.00     0.032 A 
BRANCH  15  18
HETATM   18  O   UNL     1     -45.568  63.862 -44.202  1.00  0.00    -0.356 OA
HETATM   19  C   UNL     1     -46.795  64.581 -44.192  1.00  0.00     0.210 C 
ENDBRANCH  15  18
ENDBRANCH  10  12
ENDBRANCH   9  10
ENDBRANCH   6   9
ENDBRANCH   1   5
BRANCH   2  20
HETATM   20  C   UNL     1     -43.144  56.316 -53.012  1.00  0.00     0.070 A 
HETATM   21  C   UNL     1     -42.188  55.547 -52.375  1.00  0.00     0.137 A 
HETATM   22  N   UNL     1     -42.005  54.404 -53.120  1.00  0.00    -0.244 N 
HETATM   23  N   UNL     1     -42.816  54.397 -54.207  1.00  0.00    -0.179 NA
HETATM   24  C   UNL     1     -43.488  55.546 -54.138  1.00  0.00     0.157 A 
BRANCH  22  25
HETATM   25  C   UNL     1     -41.117  53.323 -52.865  1.00  0.00     0.059 A 
HETATM   26  C   UNL     1     -40.922  52.346 -53.857  1.00  0.00     0.055 A 
HETATM   27  C   UNL     1     -40.060  51.277 -53.617  1.00  0.00     0.036 A 
HETATM   28 CL   UNL     1     -39.838  50.072 -54.826  1.00  0.00    -0.084 Cl
HETATM   29  C   UNL     1     -39.380  51.172 -52.407  1.00  0.00     0.024 A 
HETATM   30  C   UNL     1     -39.564  52.143 -51.423  1.00  0.00     0.004 A 
HETATM   31  C   UNL     1     -40.433  53.215 -51.646  1.00  0.00     0.031 A 
ENDBRANCH  22  25
ENDBRANCH   2  20
TORSDOF 7
ENDMDL
MODEL 4
REMARK VINA RESULT:      -7.7      3.625      4.971
REMARK  7 active torsions:
REMARK  status: ('A' for Active; 'I' for Inactive)
REMARK    1  A    between atoms: O_2  and  C_3 
REMARK    2  A    between atoms: C_6  and  N_7 
REMARK    3  A    between atoms: N_7  and  C_8 
REMARK    4  A    between atoms: C_8  and  C_9 
REMARK       I    between atoms: C_9  and  N_10 
REMARK    5  A    between atoms: N_10  and  N_11 
REMARK       I    between atoms: N_11  and  C_12 
REMARK    6  A    between atoms: C_12  and  C_13 
REMARK    7  A    between atoms: N_15  and  C_16 
ROOT
HETATM    1  N   UNL     1     -41.896  56.962 -53.783  1.00  0.00    -0.263 N 
HETATM    2  C   UNL     1     -41.568  57.045 -52.442  1.00  0.00     0.273 C 
HETATM    3  O   UNL     1     -41.595  58.110 -51.825  1.00  0.00    -0.266 OA
HETATM    4  H   UNL     1     -41.522  56.200 -54.346  1.00  0.00     0.190 HD
ENDROOT
BRANCH   1   5
HETATM    5  N   UNL     1     -42.094  58.172 -54.479  1.00  0.00    -0.266 N 
HETATM    6  C   UNL     1     -43.306  58.332 -55.129  1.00  0.00     0.253 C 
HETATM    7  O   UNL     1     -44.231  57.526 -55.009  1.00  0.00    -0.270 OA
HETATM    8  H   UNL     1     -41.248  58.599 -54.858  1.00  0.00     0.190 HD
BRANCH   6   9
HETATM    9  C   UNL     1     -43.389  59.600 -55.988  1.00  0.00     0.224 C 
BRANCH   9  10
HETATM   10  N   UNL     1     -42.574  59.432 -57.190  1.00  0.00    -0.381 N 
HETATM   11  H   UNL     1     -42.141  60.305 -57.488  1.00  0.00     0.160 HD
BRANCH  10  12
HETATM   12  C   UNL     1     -42.964  58.598 -58.230  1.00  0.00     0.028 A 
HETATM   13  C   UNL     1     -41.972  57.893 -58.926  1.00  0.00     0.032 A 
HETATM   14  C   UNL     1     -42.291  56.942 -59.906  1.00  0.00     0.039 A 
HETATM   15  C   UNL     1     -43.623  56.655 -60.190  1.00  0.00     0.068 A 
HETATM   16  C   UNL     1     -44.620  57.343 -59.501  1.00  0.00     0.039 A 
HETATM   17  C   UNL     1     -44.295  58.293 -58.524  1.00  0.00     0.032 A 
BRANCH  15  18
HETATM   18  O   UNL     1     -44.073  55.737 -61.095  1.00  0.00    -0.356 OA
HETATM   19  C   UNL     1     -45.064  54.825 -60.638  1.00  0.00     0.210 C 
ENDBRANCH  15  18
ENDBRANCH  10  12
ENDBRANCH   9  10
ENDBRANCH   6   9
ENDBRANCH   1   5
BRANCH   2  20
HETATM   20  C   UNL     1     -41.189  55.790 -51.826  1.00  0.00     0.070 A 
HETATM   21  C   UNL     1     -40.926  54.607 -52.491  1.00  0.00     0.137 A 
HETATM   22  N   UNL     1     -40.574  53.666 -51.550  1.00  0.00    -0.244 N 
HETATM   23  N   UNL     1     -40.585  54.199 -50.302  1.00  0.00    -0.179 NA
HETATM   24  C   UNL     1     -40.960  55.466 -50.476  1.00  0.00     0.157 A 
BRANCH  22  25
HETATM   25  C   UNL     1     -40.227  52.303 -51.757  1.00  0.00     0.059 A 
HETATM   26  C   UNL     1     -40.074  51.826 -53.070  1.00  0.00     0.055 A 
HETATM   27  C   UNL     1     -39.741  50.490 -53.288  1.00  0.00     0.036 A 
HETATM   28 CL   UNL     1     -39.573  49.902 -54.897  1.00  0.00    -0.084 Cl
HETATM   29  C   UNL     1     -39.547  49.623 -52.215  1.00  0.00     0.024 A 
HETATM   30  C   UNL     1     -39.690  50.094 -50.910  1.00  0.00     0.004 A 
HETATM   31  C   UNL     1     -40.033  51.429 -50.678  1.00  0.00     0.031 A 
ENDBRANCH  22  25
ENDBRANCH   2  20
TORSDOF 7
ENDMDL
MODEL 5
REMARK VINA RESULT:      -7.6     16.607     19.669
REMARK  7 active torsions:
REMARK  status: ('A' for Active; 'I' for Inactive)
REMARK    1  A    between atoms: O_2  and  C_3 
REMARK    2  A    between atoms: C_6  and  N_7 
REMARK    3  A    between atoms: N_7  and  C_8 
REMARK    4  A    between atoms: C_8  and  C_9 
REMARK       I    between atoms: C_9  and  N_10 
REMARK    5  A    between atoms: N_10  and  N_11 
REMARK       I    between atoms: N_11  and  C_12 
REMARK    6  A    between atoms: C_12  and  C_13 
REMARK    7  A    between atoms: N_15  and  C_16 
ROOT
HETATM    1  N   UNL     1     -33.854  40.910 -52.993  1.00  0.00    -0.263 N 
HETATM    2  C   UNL     1     -32.628  40.269 -52.990  1.00  0.00     0.273 C 
HETATM    3  O   UNL     1     -31.829  40.379 -53.920  1.00  0.00    -0.266 OA
HETATM    4  H   UNL     1     -34.621  40.531 -52.440  1.00  0.00     0.190 HD
ENDROOT
BRANCH   1   5
HETATM    5  N   UNL     1     -34.245  41.560 -54.182  1.00  0.00    -0.266 N 
HETATM    6  C   UNL     1     -35.464  42.218 -54.166  1.00  0.00     0.253 C 
HETATM    7  O   UNL     1     -36.129  42.352 -53.137  1.00  0.00    -0.270 OA
HETATM    8  H   UNL     1     -33.903  41.134 -55.043  1.00  0.00     0.190 HD
BRANCH   6   9
HETATM    9  C   UNL     1     -35.892  42.767 -55.533  1.00  0.00     0.224 C 
BRANCH   9  10
HETATM   10  N   UNL     1     -37.238  42.296 -55.851  1.00  0.00    -0.381 N 
HETATM   11  H   UNL     1     -37.724  41.933 -55.031  1.00  0.00     0.160 HD
BRANCH  10  12
HETATM   12  C   UNL     1     -37.520  41.623 -57.032  1.00  0.00     0.028 A 
HETATM   13  C   UNL     1     -37.029  42.151 -58.234  1.00  0.00     0.032 A 
HETATM   14  C   UNL     1     -37.165  41.471 -59.452  1.00  0.00     0.039 A 
HETATM   15  C   UNL     1     -37.778  40.221 -59.485  1.00  0.00     0.068 A 
HETATM   16  C   UNL     1     -38.266  39.679 -58.297  1.00  0.00     0.039 A 
HETATM   17  C   UNL     1     -38.127  40.366 -57.084  1.00  0.00     0.032 A 
BRANCH  15  18
HETATM   18  O   UNL     1     -37.952  39.439 -60.592  1.00  0.00    -0.356 OA
HETATM   19  C   UNL     1     -38.839  38.336 -60.458  1.00  0.00     0.210 C 
ENDBRANCH  15  18
ENDBRANCH  10  12
ENDBRANCH   9  10
ENDBRANCH   6   9
ENDBRANCH   1   5
BRANCH   2  20
HETATM   20  C   UNL     1     -32.364  39.461 -51.818  1.00  0.00     0.070 A 
HETATM   21  C   UNL     1     -32.311  39.915 -50.515  1.00  0.00     0.137 A 
HETATM   22  N   UNL     1     -32.066  38.831 -49.702  1.00  0.00    -0.244 N 
HETATM   23  N   UNL     1     -31.972  37.689 -50.430  1.00  0.00    -0.179 NA
HETATM   24  C   UNL     1     -32.145  38.076 -51.693  1.00  0.00     0.157 A 
BRANCH  22  25
HETATM   25  C   UNL     1     -31.918  38.809 -48.288  1.00  0.00     0.059 A 
HETATM   26  C   UNL     1     -31.012  39.692 -47.677  1.00  0.00     0.055 A 
HETATM   27  C   UNL     1     -30.852  39.674 -46.293  1.00  0.00     0.036 A 
HETATM   28 CL   UNL     1     -29.727  40.745 -45.549  1.00  0.00    -0.084 Cl
HETATM   29  C   UNL     1     -31.591  38.796 -45.505  1.00  0.00     0.024 A 
HETATM   30  C   UNL     1     -32.498  37.923 -46.105  1.00  0.00     0.004 A 
HETATM   31  C   UNL     1     -32.661  37.923 -47.493  1.00  0.00     0.031 A 
ENDBRANCH  22  25
ENDBRANCH   2  20
TORSDOF 7
ENDMDL
MODEL 6
REMARK VINA RESULT:      -7.5      5.112     10.578
REMARK  7 active torsions:
REMARK  status: ('A' for Active; 'I' for Inactive)
REMARK    1  A    between atoms: O_2  and  C_3 
REMARK    2  A    between atoms: C_6  and  N_7 
REMARK    3  A    between atoms: N_7  and  C_8 
REMARK    4  A    between atoms: C_8  and  C_9 
REMARK       I    between atoms: C_9  and  N_10 
REMARK    5  A    between atoms: N_10  and  N_11 
REMARK       I    between atoms: N_11  and  C_12 
REMARK    6  A    between atoms: C_12  and  C_13 
REMARK    7  A    between atoms: N_15  and  C_16 
ROOT
HETATM    1  N   UNL     1     -42.765  55.420 -57.225  1.00  0.00    -0.263 N 
HETATM    2  C   UNL     1     -42.961  56.447 -58.130  1.00  0.00     0.273 C 
HETATM    3  O   UNL     1     -42.233  57.439 -58.164  1.00  0.00    -0.266 OA
HETATM    4  H   UNL     1     -43.549  54.827 -56.959  1.00  0.00     0.190 HD
ENDROOT
BRANCH   1   5
HETATM    5  N   UNL     1     -41.805  55.621 -56.212  1.00  0.00    -0.266 N 
HETATM    6  C   UNL     1     -42.282  55.856 -54.933  1.00  0.00     0.253 C 
HETATM    7  O   UNL     1     -43.478  55.769 -54.647  1.00  0.00    -0.270 OA
HETATM    8  H   UNL     1     -40.930  56.045 -56.519  1.00  0.00     0.190 HD
BRANCH   6   9
HETATM    9  C   UNL     1     -41.190  56.216 -53.918  1.00  0.00     0.224 C 
BRANCH   9  10
HETATM   10  N   UNL     1     -41.410  55.477 -52.677  1.00  0.00    -0.381 N 
HETATM   11  H   UNL     1     -41.474  56.092 -51.867  1.00  0.00     0.160 HD
BRANCH  10  12
HETATM   12  C   UNL     1     -40.790  54.259 -52.428  1.00  0.00     0.028 A 
HETATM   13  C   UNL     1     -40.571  53.883 -51.096  1.00  0.00     0.032 A 
HETATM   14  C   UNL     1     -40.062  52.622 -50.758  1.00  0.00     0.039 A 
HETATM   15  C   UNL     1     -39.788  51.691 -51.756  1.00  0.00     0.068 A 
HETATM   16  C   UNL     1     -40.007  52.048 -53.086  1.00  0.00     0.039 A 
HETATM   17  C   UNL     1     -40.514  53.312 -53.417  1.00  0.00     0.032 A 
BRANCH  15  18
HETATM   18  O   UNL     1     -39.318  50.423 -51.568  1.00  0.00    -0.356 OA
HETATM   19  C   UNL     1     -39.593  49.482 -52.598  1.00  0.00     0.210 C 
ENDBRANCH  15  18
ENDBRANCH  10  12
ENDBRANCH   9  10
ENDBRANCH   6   9
ENDBRANCH   1   5
BRANCH   2  20
HETATM   20  C   UNL     1     -44.086  56.266 -59.025  1.00  0.00     0.070 A 
HETATM   21  C   UNL     1     -44.993  57.241 -59.394  1.00  0.00     0.137 A 
HETATM   22  N   UNL     1     -45.884  56.672 -60.276  1.00  0.00    -0.244 N 
HETATM   23  N   UNL     1     -45.579  55.369 -60.503  1.00  0.00    -0.179 NA
HETATM   24  C   UNL     1     -44.507  55.134 -59.746  1.00  0.00     0.157 A 
BRANCH  22  25
HETATM   25  C   UNL     1     -46.997  57.283 -60.916  1.00  0.00     0.059 A 
HETATM   26  C   UNL     1     -47.199  58.666 -60.772  1.00  0.00     0.055 A 
HETATM   27  C   UNL     1     -48.291  59.275 -61.388  1.00  0.00     0.036 A 
HETATM   28 CL   UNL     1     -48.547  60.967 -61.195  1.00  0.00    -0.084 Cl
HETATM   29  C   UNL     1     -49.181  58.527 -62.155  1.00  0.00     0.024 A 
HETATM   30  C   UNL     1     -48.981  57.156 -62.307  1.00  0.00     0.004 A 
HETATM   31  C   UNL     1     -47.895  56.530 -61.687  1.00  0.00     0.031 A 
ENDBRANCH  22  25
ENDBRANCH   2  20
TORSDOF 7
ENDMDL
MODEL 7
REMARK VINA RESULT:      -7.5      4.288      5.832
REMARK  7 active torsions:
REMARK  status: ('A' for Active; 'I' for Inactive)
REMARK    1  A    between atoms: O_2  and  C_3 
REMARK    2  A    between atoms: C_6  and  N_7 
REMARK    3  A    between atoms: N_7  and  C_8 
REMARK    4  A    between atoms: C_8  and  C_9 
REMARK       I    between atoms: C_9  and  N_10 
REMARK    5  A    between atoms: N_10  and  N_11 
REMARK       I    between atoms: N_11  and  C_12 
REMARK    6  A    between atoms: C_12  and  C_13 
REMARK    7  A    between atoms: N_15  and  C_16 
ROOT
HETATM    1  N   UNL     1     -44.222  57.053 -56.808  1.00  0.00    -0.263 N 
HETATM    2  C   UNL     1     -43.257  56.066 -56.889  1.00  0.00     0.273 C 
HETATM    3  O   UNL     1     -42.852  55.633 -57.967  1.00  0.00    -0.266 OA
HETATM    4  H   UNL     1     -44.796  57.127 -55.970  1.00  0.00     0.190 HD
ENDROOT
BRANCH   1   5
HETATM    5  N   UNL     1     -44.868  57.431 -58.004  1.00  0.00    -0.266 N 
HETATM    6  C   UNL     1     -44.468  58.624 -58.584  1.00  0.00     0.253 C 
HETATM    7  O   UNL     1     -43.508  59.273 -58.164  1.00  0.00    -0.270 OA
HETATM    8  H   UNL     1     -45.832  57.113 -58.096  1.00  0.00     0.190 HD
BRANCH   6   9
HETATM    9  C   UNL     1     -45.316  59.043 -59.791  1.00  0.00     0.224 C 
BRANCH   9  10
HETATM   10  N   UNL     1     -45.908  57.858 -60.409  1.00  0.00    -0.381 N 
HETATM   11  H   UNL     1     -45.210  57.272 -60.867  1.00  0.00     0.160 HD
BRANCH  10  12
HETATM   12  C   UNL     1     -47.135  57.904 -61.056  1.00  0.00     0.028 A 
HETATM   13  C   UNL     1     -47.678  59.158 -61.369  1.00  0.00     0.032 A 
HETATM   14  C   UNL     1     -48.850  59.289 -62.126  1.00  0.00     0.039 A 
HETATM   15  C   UNL     1     -49.492  58.156 -62.616  1.00  0.00     0.068 A 
HETATM   16  C   UNL     1     -48.961  56.901 -62.319  1.00  0.00     0.039 A 
HETATM   17  C   UNL     1     -47.790  56.778 -61.560  1.00  0.00     0.032 A 
BRANCH  15  18
HETATM   18  O   UNL     1     -50.621  58.139 -63.386  1.00  0.00    -0.356 OA
HETATM   19  C   UNL     1     -51.272  59.387 -63.588  1.00  0.00     0.210 C 
ENDBRANCH  15  18
ENDBRANCH  10  12
ENDBRANCH   9  10
ENDBRANCH   6   9
ENDBRANCH   1   5
BRANCH   2  20
HETATM   20  C   UNL     1     -42.767  55.584 -55.614  1.00  0.00     0.070 A 
HETATM   21  C   UNL     1     -41.963  54.477 -55.420  1.00  0.00     0.137 A 
HETATM   22  N   UNL     1     -41.700  54.381 -54.072  1.00  0.00    -0.244 N 
HETATM   23  N   UNL     1     -42.291  55.393 -53.388  1.00  0.00    -0.179 NA
HETATM   24  C   UNL     1     -42.932  56.102 -54.316  1.00  0.00     0.157 A 
BRANCH  22  25
HETATM   25  C   UNL     1     -40.925  53.399 -53.397  1.00  0.00     0.059 A 
HETATM   26  C   UNL     1     -40.523  52.244 -54.090  1.00  0.00     0.055 A 
HETATM   27  C   UNL     1     -39.770  51.270 -53.437  1.00  0.00     0.036 A 
HETATM   28 CL   UNL     1     -39.295  49.848 -54.282  1.00  0.00    -0.084 Cl
HETATM   29  C   UNL     1     -39.400  51.434 -52.104  1.00  0.00     0.024 A 
HETATM   30  C   UNL     1     -39.790  52.582 -51.414  1.00  0.00     0.004 A 
HETATM   31  C   UNL     1     -40.554  53.562 -52.054  1.00  0.00     0.031 A 
ENDBRANCH  22  25
ENDBRANCH   2  20
TORSDOF 7
ENDMDL
MODEL 8
REMARK VINA RESULT:      -7.3      3.825     10.075
REMARK  7 active torsions:
REMARK  status: ('A' for Active; 'I' for Inactive)
REMARK    1  A    between atoms: O_2  and  C_3 
REMARK    2  A    between atoms: C_6  and  N_7 
REMARK    3  A    between atoms: N_7  and  C_8 
REMARK    4  A    between atoms: C_8  and  C_9 
REMARK       I    between atoms: C_9  and  N_10 
REMARK    5  A    between atoms: N_10  and  N_11 
REMARK       I    between atoms: N_11  and  C_12 
REMARK    6  A    between atoms: C_12  and  C_13 
REMARK    7  A    between atoms: N_15  and  C_16 
ROOT
HETATM    1  N   UNL     1     -44.294  56.514 -54.782  1.00  0.00    -0.263 N 
HETATM    2  C   UNL     1     -43.197  56.070 -55.497  1.00  0.00     0.273 C 
HETATM    3  O   UNL     1     -42.406  55.246 -55.039  1.00  0.00    -0.266 OA
HETATM    4  H   UNL     1     -44.699  57.424 -54.996  1.00  0.00     0.190 HD
ENDROOT
BRANCH   1   5
HETATM    5  N   UNL     1     -44.388  56.127 -53.428  1.00  0.00    -0.266 N 
HETATM    6  C   UNL     1     -44.002  57.061 -52.481  1.00  0.00     0.253 C 
HETATM    7  O   UNL     1     -43.713  58.223 -52.777  1.00  0.00    -0.270 OA
HETATM    8  H   UNL     1     -44.258  55.132 -53.250  1.00  0.00     0.190 HD
BRANCH   6   9
HETATM    9  C   UNL     1     -43.986  56.521 -51.046  1.00  0.00     0.224 C 
BRANCH   9  10
HETATM   10  N   UNL     1     -42.612  56.492 -50.548  1.00  0.00    -0.381 N 
HETATM   11  H   UNL     1     -42.101  57.344 -50.777  1.00  0.00     0.160 HD
BRANCH  10  12
HETATM   12  C   UNL     1     -41.845  55.335 -50.579  1.00  0.00     0.028 A 
HETATM   13  C   UNL     1     -41.423  54.782 -49.361  1.00  0.00     0.032 A 
HETATM   14  C   UNL     1     -40.751  53.554 -49.300  1.00  0.00     0.039 A 
HETATM   15  C   UNL     1     -40.511  52.833 -50.466  1.00  0.00     0.068 A 
HETATM   16  C   UNL     1     -40.930  53.366 -51.684  1.00  0.00     0.039 A 
HETATM   17  C   UNL     1     -41.601  54.595 -51.738  1.00  0.00     0.032 A 
BRANCH  15  18
HETATM   18  O   UNL     1     -39.894  51.617 -50.548  1.00  0.00    -0.356 OA
HETATM   19  C   UNL     1     -39.497  51.191 -51.846  1.00  0.00     0.210 C 
ENDBRANCH  15  18
ENDBRANCH  10  12
ENDBRANCH   9  10
ENDBRANCH   6   9
ENDBRANCH   1   5
BRANCH   2  20
HETATM   20  C   UNL     1     -43.051  56.650 -56.816  1.00  0.00     0.070 A 
HETATM   21  C   UNL     1     -42.585  57.921 -57.096  1.00  0.00     0.137 A 
HETATM   22  N   UNL     1     -42.572  58.070 -58.464  1.00  0.00    -0.244 N 
HETATM   23  N   UNL     1     -42.999  56.939 -59.081  1.00  0.00    -0.179 NA
HETATM   24  C   UNL     1     -43.289  56.099 -58.088  1.00  0.00     0.157 A 
BRANCH  22  25
HETATM   25  C   UNL     1     -42.181  59.209 -59.220  1.00  0.00     0.059 A 
HETATM   26  C   UNL     1     -41.657  60.330 -58.552  1.00  0.00     0.055 A 
HETATM   27  C   UNL     1     -41.277  61.456 -59.280  1.00  0.00     0.036 A 
HETATM   28 CL   UNL     1     -40.653  62.834 -58.458  1.00  0.00    -0.084 Cl
HETATM   29  C   UNL     1     -41.400  61.479 -60.667  1.00  0.00     0.024 A 
HETATM   30  C   UNL     1     -41.912  60.367 -61.335  1.00  0.00     0.004 A 
HETATM   31  C   UNL     1     -42.307  59.234 -60.616  1.00  0.00     0.031 A 
ENDBRANCH  22  25
ENDBRANCH   2  20
TORSDOF 7
ENDMDL
MODEL 9
REMARK VINA RESULT:      -7.1      2.056      2.876
REMARK  7 active torsions:
REMARK  status: ('A' for Active; 'I' for Inactive)
REMARK    1  A    between atoms: O_2  and  C_3 
REMARK    2  A    between atoms: C_6  and  N_7 
REMARK    3  A    between atoms: N_7  and  C_8 
REMARK    4  A    between atoms: C_8  and  C_9 
REMARK       I    between atoms: C_9  and  N_10 
REMARK    5  A    between atoms: N_10  and  N_11 
REMARK       I    between atoms: N_11  and  C_12 
REMARK    6  A    between atoms: C_12  and  C_13 
REMARK    7  A    between atoms: N_15  and  C_16 
ROOT
HETATM    1  N   UNL     1     -42.100  56.798 -54.346  1.00  0.00    -0.263 N 
HETATM    2  C   UNL     1     -41.603  57.081 -53.087  1.00  0.00     0.273 C 
HETATM    3  O   UNL     1     -41.491  58.234 -52.671  1.00  0.00    -0.266 OA
HETATM    4  H   UNL     1     -41.843  55.924 -54.803  1.00  0.00     0.190 HD
ENDROOT
BRANCH   1   5
HETATM    5  N   UNL     1     -42.313  57.884 -55.221  1.00  0.00    -0.266 N 
HETATM    6  C   UNL     1     -43.443  57.834 -56.019  1.00  0.00     0.253 C 
HETATM    7  O   UNL     1     -44.302  56.959 -55.894  1.00  0.00    -0.270 OA
HETATM    8  H   UNL     1     -41.467  58.344 -55.556  1.00  0.00     0.190 HD
BRANCH   6   9
HETATM    9  C   UNL     1     -43.528  58.968 -57.048  1.00  0.00     0.224 C 
BRANCH   9  10
HETATM   10  N   UNL     1     -42.216  59.596 -57.195  1.00  0.00    -0.381 N 
HETATM   11  H   UNL     1     -41.849  59.935 -56.306  1.00  0.00     0.160 HD
BRANCH  10  12
HETATM   12  C   UNL     1     -41.901  60.390 -58.289  1.00  0.00     0.028 A 
HETATM   13  C   UNL     1     -40.995  61.445 -58.109  1.00  0.00     0.032 A 
HETATM   14  C   UNL     1     -40.533  62.215 -59.184  1.00  0.00     0.039 A 
HETATM   15  C   UNL     1     -40.951  61.924 -60.479  1.00  0.00     0.068 A 
HETATM   16  C   UNL     1     -41.847  60.874 -60.676  1.00  0.00     0.039 A 
HETATM   17  C   UNL     1     -42.306  60.109 -59.596  1.00  0.00     0.032 A 
BRANCH  15  18
HETATM   18  O   UNL     1     -40.561  62.572 -61.617  1.00  0.00    -0.356 OA
HETATM   19  C   UNL     1     -39.336  63.291 -61.551  1.00  0.00     0.210 C 
ENDBRANCH  15  18
ENDBRANCH  10  12
ENDBRANCH   9  10
ENDBRANCH   6   9
ENDBRANCH   1   5
BRANCH   2  20
HETATM   20  C   UNL     1     -41.223  55.923 -52.305  1.00  0.00     0.070 A 
HETATM   21  C   UNL     1     -40.968  54.659 -52.799  1.00  0.00     0.137 A 
HETATM   22  N   UNL     1     -40.612  53.857 -51.738  1.00  0.00    -0.244 N 
HETATM   23  N   UNL     1     -40.612  54.559 -50.577  1.00  0.00    -0.179 NA
HETATM   24  C   UNL     1     -40.985  55.791 -50.924  1.00  0.00     0.157 A 
BRANCH  22  25
HETATM   25  C   UNL     1     -40.269  52.477 -51.755  1.00  0.00     0.059 A 
HETATM   26  C   UNL     1     -39.973  51.858 -52.981  1.00  0.00     0.055 A 
HETATM   27  C   UNL     1     -39.645  50.504 -53.013  1.00  0.00     0.036 A 
HETATM   28 CL   UNL     1     -39.300  49.743 -54.519  1.00  0.00    -0.084 Cl
HETATM   29  C   UNL     1     -39.595  49.758 -51.838  1.00  0.00     0.024 A 
HETATM   30  C   UNL     1     -39.880  50.370 -50.618  1.00  0.00     0.004 A 
HETATM   31  C   UNL     1     -40.221  51.725 -50.572  1.00  0.00     0.031 A 
ENDBRANCH  22  25
ENDBRANCH   2  20
TORSDOF 7
ENDMDL
MODEL 10
REMARK VINA RESULT:      -7.0      5.334     10.704
REMARK  7 active torsions:
REMARK  status: ('A' for Active; 'I' for Inactive)
REMARK    1  A    between atoms: O_2  and  C_3 
REMARK    2  A    between atoms: C_6  and  N_7 
REMARK    3  A    between atoms: N_7  and  C_8 
REMARK    4  A    between atoms: C_8  and  C_9 
REMARK       I    between atoms: C_9  and  N_10 
REMARK    5  A    between atoms: N_10  and  N_11 
REMARK       I    between atoms: N_11  and  C_12 
REMARK    6  A    between atoms: C_12  and  C_13 
REMARK    7  A    between atoms: N_15  and  C_16 
ROOT
HETATM    1  N   UNL     1     -43.641  55.491 -57.599  1.00  0.00    -0.263 N 
HETATM    2  C   UNL     1     -43.543  55.931 -58.906  1.00  0.00     0.273 C 
HETATM    3  O   UNL     1     -42.464  56.009 -59.493  1.00  0.00    -0.266 OA
HETATM    4  H   UNL     1     -44.435  55.779 -57.029  1.00  0.00     0.190 HD
ENDROOT
BRANCH   1   5
HETATM    5  N   UNL     1     -42.439  55.298 -56.886  1.00  0.00    -0.266 N 
HETATM    6  C   UNL     1     -42.263  56.052 -55.737  1.00  0.00     0.253 C 
HETATM    7  O   UNL     1     -43.154  56.765 -55.272  1.00  0.00    -0.270 OA
HETATM    8  H   UNL     1     -41.635  55.031 -57.453  1.00  0.00     0.190 HD
BRANCH   6   9
HETATM    9  C   UNL     1     -40.874  55.902 -55.103  1.00  0.00     0.224 C 
BRANCH   9  10
HETATM   10  N   UNL     1     -41.015  55.462 -53.716  1.00  0.00    -0.381 N 
HETATM   11  H   UNL     1     -40.772  56.196 -53.051  1.00  0.00     0.160 HD
BRANCH  10  12
HETATM   12  C   UNL     1     -40.660  54.181 -53.314  1.00  0.00     0.028 A 
HETATM   13  C   UNL     1     -40.379  53.226 -54.301  1.00  0.00     0.032 A 
HETATM   14  C   UNL     1     -39.898  51.949 -53.979  1.00  0.00     0.039 A 
HETATM   15  C   UNL     1     -39.660  51.610 -52.650  1.00  0.00     0.068 A 
HETATM   16  C   UNL     1     -39.928  52.551 -51.658  1.00  0.00     0.039 A 
HETATM   17  C   UNL     1     -40.410  53.825 -51.986  1.00  0.00     0.032 A 
BRANCH  15  18
HETATM   18  O   UNL     1     -39.168  50.418 -52.199  1.00  0.00    -0.356 OA
HETATM   19  C   UNL     1     -39.600  49.998 -50.911  1.00  0.00     0.210 C 
ENDBRANCH  15  18
ENDBRANCH  10  12
ENDBRANCH   9  10
ENDBRANCH   6   9
ENDBRANCH   1   5
BRANCH   2  20
HETATM   20  C   UNL     1     -44.801  56.296 -59.524  1.00  0.00     0.070 A 
HETATM   21  C   UNL     1     -45.329  57.571 -59.599  1.00  0.00     0.137 A 
HETATM   22  N   UNL     1     -46.518  57.492 -60.288  1.00  0.00    -0.244 N 
HETATM   23  N   UNL     1     -46.773  56.217 -60.674  1.00  0.00    -0.179 NA
HETATM   24  C   UNL     1     -45.745  55.508 -60.208  1.00  0.00     0.157 A 
BRANCH  22  25
HETATM   25  C   UNL     1     -47.421  58.544 -60.605  1.00  0.00     0.059 A 
HETATM   26  C   UNL     1     -48.141  58.492 -61.810  1.00  0.00     0.055 A 
HETATM   27  C   UNL     1     -49.023  59.521 -62.136  1.00  0.00     0.036 A 
HETATM   28 CL   UNL     1     -49.890  59.464 -63.622  1.00  0.00    -0.084 Cl
HETATM   29  C   UNL     1     -49.208  60.597 -61.272  1.00  0.00     0.024 A 
HETATM   30  C   UNL     1     -48.501  60.650 -60.071  1.00  0.00     0.004 A 
HETATM   31  C   UNL     1     -47.606  59.630 -59.736  1.00  0.00     0.031 A 
ENDBRANCH  22  25
ENDBRANCH   2  20
TORSDOF 7
ENDMDL
