MODEL 1
REMARK VINA RESULT:      -8.8      0.000      0.000
REMARK  7 active torsions:
REMARK  status: ('A' for Active; 'I' for Inactive)
REMARK    1  A    between atoms: C_3  and  C_4 
REMARK    2  A    between atoms: C_11  and  N_12 
REMARK       I    between atoms: N_12  and  C_13 
REMARK    3  A    between atoms: C_13  and  C_14 
REMARK    4  A    between atoms: C_21  and  C_22 
REMARK       I    between atoms: C_22  and  N_23 
REMARK    5  A    between atoms: N_23  and  C_24 
REMARK    6  A    between atoms: C_24  and  C_25 
REMARK    7  A    between atoms: C_25  and  C_26 
ROOT
HETATM    1  C   UNL     1     -42.539  58.673 -59.703  1.00  0.00     0.158 C 
HETATM    2  N   UNL     1     -42.719  57.772 -58.590  1.00  0.00    -0.335 N 
HETATM    3  C   UNL     1     -43.121  56.458 -58.686  1.00  0.00     0.111 A 
HETATM    4  N   UNL     1     -43.098  55.873 -57.510  1.00  0.00    -0.233 NA
HETATM    5  C   UNL     1     -42.722  56.840 -56.620  1.00  0.00     0.089 A 
HETATM    6  C   UNL     1     -42.481  58.062 -57.256  1.00  0.00     0.091 A 
HETATM    7  C   UNL     1     -42.068  59.208 -56.537  1.00  0.00     0.065 A 
HETATM    8  C   UNL     1     -41.943  59.055 -55.146  1.00  0.00     0.049 A 
HETATM    9  C   UNL     1     -42.191  57.835 -54.501  1.00  0.00     0.036 A 
HETATM   10  C   UNL     1     -42.578  56.711 -55.231  1.00  0.00     0.051 A 
ENDROOT
BRANCH   9  11
HETATM   11  C   UNL     1     -42.081  57.795 -53.020  1.00  0.00     0.251 C 
HETATM   12  N   UNL     1     -42.888  56.885 -52.362  1.00  0.00    -0.357 N 
HETATM   13  H   UNL     1     -43.311  56.147 -52.910  1.00  0.00     0.162 HD
HETATM   14  O   UNL     1     -41.278  58.524 -52.451  1.00  0.00    -0.268 OA
BRANCH  12  15
HETATM   15  C   UNL     1     -42.673  56.649 -50.944  1.00  0.00     0.127 C 
BRANCH  15  16
HETATM   16  C   UNL     1     -43.015  55.221 -50.518  1.00  0.00     0.060 C 
BRANCH  16  17
HETATM   17  C   UNL     1     -41.859  54.292 -50.722  1.00  0.00    -0.029 A 
HETATM   18  C   UNL     1     -41.479  53.661 -51.950  1.00  0.00    -0.002 A 
HETATM   19  C   UNL     1     -40.379  52.844 -51.680  1.00  0.00     0.042 A 
HETATM   20  C   UNL     1     -41.980  53.696 -53.268  1.00  0.00     0.014 A 
HETATM   21  C   UNL     1     -39.759  52.061 -52.661  1.00  0.00     0.030 A 
HETATM   22  N   UNL     1     -40.095  52.983 -50.343  1.00  0.00    -0.365 N 
HETATM   23  C   UNL     1     -40.276  52.115 -53.958  1.00  0.00     0.002 A 
HETATM   24  C   UNL     1     -41.370  52.921 -54.261  1.00  0.00     0.001 A 
HETATM   25  H   UNL     1     -39.346  52.499 -49.866  1.00  0.00     0.165 HD
HETATM   26  C   UNL     1     -40.976  53.851 -49.756  1.00  0.00     0.096 A 
ENDBRANCH  16  17
ENDBRANCH  15  16
ENDBRANCH  12  15
ENDBRANCH   9  11
BRANCH   7  27
HETATM   27  N   UNL     1     -41.808  60.431 -57.183  1.00  0.00    -0.323 N 
HETATM   28  C   UNL     1     -42.648  61.528 -57.318  1.00  0.00     0.251 C 
HETATM   29  O   UNL     1     -43.791  61.634 -56.888  1.00  0.00    -0.270 OA
HETATM   30  H   UNL     1     -40.909  60.564 -57.627  1.00  0.00     0.169 HD
BRANCH  28  31
HETATM   31  C   UNL     1     -41.912  62.714 -57.973  1.00  0.00     0.213 C 
HETATM   32  O   UNL     1     -40.509  62.427 -58.149  1.00  0.00    -0.376 OA
HETATM   33  C   UNL     1     -40.200  62.568 -59.544  1.00  0.00     0.168 C 
HETATM   34  C   UNL     1     -41.510  62.436 -60.287  1.00  0.00     0.029 C 
HETATM   35  C   UNL     1     -42.477  63.094 -59.334  1.00  0.00     0.044 C 
ENDBRANCH  28  31
ENDBRANCH   7  27
BRANCH   3  36
HETATM   36  C   UNL     1     -43.538  55.720 -59.958  1.00  0.00     0.056 C 
HETATM   37  C   UNL     1     -44.346  54.416 -59.669  1.00  0.00     0.012 C 
HETATM   38  C   UNL     1     -45.204  54.759 -60.900  1.00  0.00     0.002 C 
HETATM   39  C   UNL     1     -44.848  56.232 -60.626  1.00  0.00     0.012 C 
ENDBRANCH   3  36
TORSDOF 7
ENDMDL
MODEL 2
REMARK VINA RESULT:      -8.7      3.854      5.649
REMARK  7 active torsions:
REMARK  status: ('A' for Active; 'I' for Inactive)
REMARK    1  A    between atoms: C_3  and  C_4 
REMARK    2  A    between atoms: C_11  and  N_12 
REMARK       I    between atoms: N_12  and  C_13 
REMARK    3  A    between atoms: C_13  and  C_14 
REMARK    4  A    between atoms: C_21  and  C_22 
REMARK       I    between atoms: C_22  and  N_23 
REMARK    5  A    between atoms: N_23  and  C_24 
REMARK    6  A    between atoms: C_24  and  C_25 
REMARK    7  A    between atoms: C_25  and  C_26 
ROOT
HETATM    1  C   UNL     1     -45.411  60.565 -54.473  1.00  0.00     0.158 C 
HETATM    2  N   UNL     1     -45.031  59.181 -54.620  1.00  0.00    -0.335 N 
HETATM    3  C   UNL     1     -45.035  58.474 -55.803  1.00  0.00     0.111 A 
HETATM    4  N   UNL     1     -44.545  57.268 -55.631  1.00  0.00    -0.233 NA
HETATM    5  C   UNL     1     -44.262  57.167 -54.297  1.00  0.00     0.089 A 
HETATM    6  C   UNL     1     -44.562  58.350 -53.615  1.00  0.00     0.091 A 
HETATM    7  C   UNL     1     -44.341  58.486 -52.224  1.00  0.00     0.065 A 
HETATM    8  C   UNL     1     -43.832  57.354 -51.565  1.00  0.00     0.049 A 
HETATM    9  C   UNL     1     -43.537  56.163 -52.242  1.00  0.00     0.036 A 
HETATM   10  C   UNL     1     -43.743  56.056 -53.617  1.00  0.00     0.051 A 
ENDROOT
BRANCH   9  11
HETATM   11  C   UNL     1     -43.051  55.009 -51.442  1.00  0.00     0.251 C 
HETATM   12  N   UNL     1     -42.076  55.274 -50.497  1.00  0.00    -0.357 N 
HETATM   13  H   UNL     1     -41.928  56.239 -50.231  1.00  0.00     0.162 HD
HETATM   14  O   UNL     1     -43.539  53.899 -51.618  1.00  0.00    -0.268 OA
BRANCH  12  15
HETATM   15  C   UNL     1     -41.717  54.237 -49.544  1.00  0.00     0.127 C 
BRANCH  15  16
HETATM   16  C   UNL     1     -40.259  53.794 -49.666  1.00  0.00     0.060 C 
BRANCH  16  17
HETATM   17  C   UNL     1     -40.116  52.605 -50.564  1.00  0.00    -0.029 A 
HETATM   18  C   UNL     1     -40.121  52.614 -51.997  1.00  0.00    -0.002 A 
HETATM   19  C   UNL     1     -40.008  51.290 -52.425  1.00  0.00     0.042 A 
HETATM   20  C   UNL     1     -40.229  53.628 -52.972  1.00  0.00     0.014 A 
HETATM   21  C   UNL     1     -40.000  50.930 -53.778  1.00  0.00     0.030 A 
HETATM   22  N   UNL     1     -39.925  50.508 -51.298  1.00  0.00    -0.365 N 
HETATM   23  C   UNL     1     -40.108  51.954 -54.723  1.00  0.00     0.002 A 
HETATM   24  C   UNL     1     -40.220  53.285 -54.329  1.00  0.00     0.001 A 
HETATM   25  H   UNL     1     -39.842  49.501 -51.307  1.00  0.00     0.165 HD
HETATM   26  C   UNL     1     -39.987  51.287 -50.173  1.00  0.00     0.096 A 
ENDBRANCH  16  17
ENDBRANCH  15  16
ENDBRANCH  12  15
ENDBRANCH   9  11
BRANCH   7  27
HETATM   27  N   UNL     1     -44.627  59.684 -51.544  1.00  0.00    -0.323 N 
HETATM   28  C   UNL     1     -45.542  59.896 -50.522  1.00  0.00     0.251 C 
HETATM   29  O   UNL     1     -46.282  59.061 -50.015  1.00  0.00    -0.270 OA
HETATM   30  H   UNL     1     -44.129  60.524 -51.811  1.00  0.00     0.169 HD
BRANCH  28  31
HETATM   31  C   UNL     1     -45.430  61.329 -49.965  1.00  0.00     0.213 C 
HETATM   32  O   UNL     1     -46.586  61.678 -49.176  1.00  0.00    -0.376 OA
HETATM   33  C   UNL     1     -46.132  62.045 -47.864  1.00  0.00     0.168 C 
HETATM   34  C   UNL     1     -44.760  61.431 -47.699  1.00  0.00     0.029 C 
HETATM   35  C   UNL     1     -44.200  61.541 -49.095  1.00  0.00     0.044 C 
ENDBRANCH  28  31
ENDBRANCH   7  27
BRANCH   3  36
HETATM   36  C   UNL     1     -45.519  58.974 -57.164  1.00  0.00     0.056 C 
HETATM   37  C   UNL     1     -45.056  58.065 -58.346  1.00  0.00     0.012 C 
HETATM   38  C   UNL     1     -46.430  58.322 -58.990  1.00  0.00     0.002 C 
HETATM   39  C   UNL     1     -46.960  58.535 -57.560  1.00  0.00     0.012 C 
ENDBRANCH   3  36
TORSDOF 7
ENDMDL
MODEL 3
REMARK VINA RESULT:      -8.4      3.088      5.537
REMARK  7 active torsions:
REMARK  status: ('A' for Active; 'I' for Inactive)
REMARK    1  A    between atoms: C_3  and  C_4 
REMARK    2  A    between atoms: C_11  and  N_12 
REMARK       I    between atoms: N_12  and  C_13 
REMARK    3  A    between atoms: C_13  and  C_14 
REMARK    4  A    between atoms: C_21  and  C_22 
REMARK       I    between atoms: C_22  and  N_23 
REMARK    5  A    between atoms: N_23  and  C_24 
REMARK    6  A    between atoms: C_24  and  C_25 
REMARK    7  A    between atoms: C_25  and  C_26 
ROOT
HETATM    1  C   UNL     1     -45.539  60.202 -55.490  1.00  0.00     0.158 C 
HETATM    2  N   UNL     1     -45.157  59.792 -54.160  1.00  0.00    -0.335 N 
HETATM    3  C   UNL     1     -45.250  60.572 -53.028  1.00  0.00     0.111 A 
HETATM    4  N   UNL     1     -44.918  59.887 -51.958  1.00  0.00    -0.233 NA
HETATM    5  C   UNL     1     -44.551  58.648 -52.406  1.00  0.00     0.089 A 
HETATM    6  C   UNL     1     -44.677  58.544 -53.795  1.00  0.00     0.091 A 
HETATM    7  C   UNL     1     -44.365  57.349 -54.484  1.00  0.00     0.065 A 
HETATM    8  C   UNL     1     -43.895  56.284 -53.697  1.00  0.00     0.049 A 
HETATM    9  C   UNL     1     -43.759  56.385 -52.305  1.00  0.00     0.036 A 
HETATM   10  C   UNL     1     -44.091  57.567 -51.642  1.00  0.00     0.051 A 
ENDROOT
BRANCH   9  11
HETATM   11  C   UNL     1     -43.204  55.218 -51.573  1.00  0.00     0.251 C 
HETATM   12  N   UNL     1     -42.332  55.493 -50.536  1.00  0.00    -0.357 N 
HETATM   13  H   UNL     1     -42.310  56.438 -50.176  1.00  0.00     0.162 HD
HETATM   14  O   UNL     1     -43.552  54.085 -51.883  1.00  0.00    -0.268 OA
BRANCH  12  15
HETATM   15  C   UNL     1     -41.925  54.413 -49.651  1.00  0.00     0.127 C 
BRANCH  15  16
HETATM   16  C   UNL     1     -40.436  54.084 -49.758  1.00  0.00     0.060 C 
BRANCH  16  17
HETATM   17  C   UNL     1     -40.202  52.834 -50.549  1.00  0.00    -0.029 A 
HETATM   18  C   UNL     1     -40.181  52.720 -51.976  1.00  0.00    -0.002 A 
HETATM   19  C   UNL     1     -39.977  51.375 -52.287  1.00  0.00     0.042 A 
HETATM   20  C   UNL     1     -40.333  53.638 -53.037  1.00  0.00     0.014 A 
HETATM   21  C   UNL     1     -39.921  50.902 -53.604  1.00  0.00     0.030 A 
HETATM   22  N   UNL     1     -39.867  50.699 -51.095  1.00  0.00    -0.365 N 
HETATM   23  C   UNL     1     -40.075  51.832 -54.635  1.00  0.00     0.002 A 
HETATM   24  C   UNL     1     -40.277  53.182 -54.359  1.00  0.00     0.001 A 
HETATM   25  H   UNL     1     -39.721  49.702 -51.017  1.00  0.00     0.165 HD
HETATM   26  C   UNL     1     -39.998  51.565 -50.043  1.00  0.00     0.096 A 
ENDBRANCH  16  17
ENDBRANCH  15  16
ENDBRANCH  12  15
ENDBRANCH   9  11
BRANCH   7  27
HETATM   27  N   UNL     1     -44.511  57.242 -55.880  1.00  0.00    -0.323 N 
HETATM   28  C   UNL     1     -43.545  57.416 -56.862  1.00  0.00     0.251 C 
HETATM   29  O   UNL     1     -42.365  57.699 -56.687  1.00  0.00    -0.270 OA
HETATM   30  H   UNL     1     -45.423  57.021 -56.257  1.00  0.00     0.169 HD
BRANCH  28  31
HETATM   31  C   UNL     1     -44.100  57.062 -58.256  1.00  0.00     0.213 C 
HETATM   32  O   UNL     1     -43.721  58.049 -59.237  1.00  0.00    -0.376 OA
HETATM   33  C   UNL     1     -43.010  57.377 -60.288  1.00  0.00     0.168 C 
HETATM   34  C   UNL     1     -42.511  56.076 -59.703  1.00  0.00     0.029 C 
HETATM   35  C   UNL     1     -43.632  55.707 -58.763  1.00  0.00     0.044 C 
ENDBRANCH  28  31
ENDBRANCH   7  27
BRANCH   3  36
HETATM   36  C   UNL     1     -45.684  62.036 -52.959  1.00  0.00     0.056 C 
HETATM   37  C   UNL     1     -46.711  62.313 -51.817  1.00  0.00     0.012 C 
HETATM   38  C   UNL     1     -45.993  63.657 -51.595  1.00  0.00     0.002 C 
HETATM   39  C   UNL     1     -44.733  62.976 -52.160  1.00  0.00     0.012 C 
ENDBRANCH   3  36
TORSDOF 7
ENDMDL
MODEL 4
REMARK VINA RESULT:      -8.4      3.192      6.939
REMARK  7 active torsions:
REMARK  status: ('A' for Active; 'I' for Inactive)
REMARK    1  A    between atoms: C_3  and  C_4 
REMARK    2  A    between atoms: C_11  and  N_12 
REMARK       I    between atoms: N_12  and  C_13 
REMARK    3  A    between atoms: C_13  and  C_14 
REMARK    4  A    between atoms: C_21  and  C_22 
REMARK       I    between atoms: C_22  and  N_23 
REMARK    5  A    between atoms: N_23  and  C_24 
REMARK    6  A    between atoms: C_24  and  C_25 
REMARK    7  A    between atoms: C_25  and  C_26 
ROOT
HETATM    1  C   UNL     1     -41.840  54.652 -55.845  1.00  0.00     0.158 C 
HETATM    2  N   UNL     1     -41.973  54.927 -54.434  1.00  0.00    -0.335 N 
HETATM    3  C   UNL     1     -41.224  54.345 -53.434  1.00  0.00     0.111 A 
HETATM    4  N   UNL     1     -41.511  54.871 -52.266  1.00  0.00    -0.233 NA
HETATM    5  C   UNL     1     -42.505  55.782 -52.501  1.00  0.00     0.089 A 
HETATM    6  C   UNL     1     -42.836  55.845 -53.858  1.00  0.00     0.091 A 
HETATM    7  C   UNL     1     -43.832  56.726 -54.342  1.00  0.00     0.065 A 
HETATM    8  C   UNL     1     -44.486  57.511 -53.377  1.00  0.00     0.049 A 
HETATM    9  C   UNL     1     -44.163  57.447 -52.015  1.00  0.00     0.036 A 
HETATM   10  C   UNL     1     -43.164  56.585 -51.561  1.00  0.00     0.051 A 
ENDROOT
BRANCH   9  11
HETATM   11  C   UNL     1     -44.951  58.282 -51.072  1.00  0.00     0.251 C 
HETATM   12  N   UNL     1     -44.321  59.401 -50.558  1.00  0.00    -0.357 N 
HETATM   13  H   UNL     1     -43.482  59.724 -51.021  1.00  0.00     0.162 HD
HETATM   14  O   UNL     1     -46.109  57.978 -50.814  1.00  0.00    -0.268 OA
BRANCH  12  15
HETATM   15  C   UNL     1     -45.104  60.366 -49.804  1.00  0.00     0.127 C 
BRANCH  15  16
HETATM   16  C   UNL     1     -45.233  61.714 -50.514  1.00  0.00     0.060 C 
BRANCH  16  17
HETATM   17  C   UNL     1     -45.771  61.557 -51.902  1.00  0.00    -0.029 A 
HETATM   18  C   UNL     1     -45.004  61.410 -53.103  1.00  0.00    -0.002 A 
HETATM   19  C   UNL     1     -45.901  61.343 -54.170  1.00  0.00     0.042 A 
HETATM   20  C   UNL     1     -43.623  61.343 -53.383  1.00  0.00     0.014 A 
HETATM   21  C   UNL     1     -45.487  61.216 -55.501  1.00  0.00     0.030 A 
HETATM   22  N   UNL     1     -47.166  61.434 -53.638  1.00  0.00    -0.365 N 
HETATM   23  C   UNL     1     -44.114  61.152 -55.750  1.00  0.00     0.002 A 
HETATM   24  C   UNL     1     -43.192  61.214 -54.708  1.00  0.00     0.001 A 
HETATM   25  H   UNL     1     -48.016  61.420 -54.184  1.00  0.00     0.165 HD
HETATM   26  C   UNL     1     -47.101  61.561 -52.276  1.00  0.00     0.096 A 
ENDBRANCH  16  17
ENDBRANCH  15  16
ENDBRANCH  12  15
ENDBRANCH   9  11
BRANCH   7  27
HETATM   27  N   UNL     1     -44.149  56.801 -55.711  1.00  0.00    -0.323 N 
HETATM   28  C   UNL     1     -43.474  57.482 -56.715  1.00  0.00     0.251 C 
HETATM   29  O   UNL     1     -42.457  58.154 -56.588  1.00  0.00    -0.270 OA
HETATM   30  H   UNL     1     -44.973  56.318 -56.045  1.00  0.00     0.169 HD
BRANCH  28  31
HETATM   31  C   UNL     1     -44.082  57.178 -58.098  1.00  0.00     0.213 C 
HETATM   32  O   UNL     1     -43.728  58.191 -59.061  1.00  0.00    -0.376 OA
HETATM   33  C   UNL     1     -43.062  57.545 -60.158  1.00  0.00     0.168 C 
HETATM   34  C   UNL     1     -42.556  56.221 -59.631  1.00  0.00     0.029 C 
HETATM   35  C   UNL     1     -43.647  55.834 -58.663  1.00  0.00     0.044 C 
ENDBRANCH  28  31
ENDBRANCH   7  27
BRANCH   3  36
HETATM   36  C   UNL     1     -40.180  53.241 -53.599  1.00  0.00     0.056 C 
HETATM   37  C   UNL     1     -39.926  52.442 -52.283  1.00  0.00     0.012 C 
HETATM   38  C   UNL     1     -39.797  51.181 -53.156  1.00  0.00     0.002 C 
HETATM   39  C   UNL     1     -40.720  51.892 -54.162  1.00  0.00     0.012 C 
ENDBRANCH   3  36
TORSDOF 7
ENDMDL
MODEL 5
REMARK VINA RESULT:      -8.4      2.791      5.099
REMARK  7 active torsions:
REMARK  status: ('A' for Active; 'I' for Inactive)
REMARK    1  A    between atoms: C_3  and  C_4 
REMARK    2  A    between atoms: C_11  and  N_12 
REMARK       I    between atoms: N_12  and  C_13 
REMARK    3  A    between atoms: C_13  and  C_14 
REMARK    4  A    between atoms: C_21  and  C_22 
REMARK       I    between atoms: C_22  and  N_23 
REMARK    5  A    between atoms: N_23  and  C_24 
REMARK    6  A    between atoms: C_24  and  C_25 
REMARK    7  A    between atoms: C_25  and  C_26 
ROOT
HETATM    1  C   UNL     1     -45.431  59.097 -57.795  1.00  0.00     0.158 C 
HETATM    2  N   UNL     1     -45.259  59.302 -56.378  1.00  0.00    -0.335 N 
HETATM    3  C   UNL     1     -45.735  60.381 -55.664  1.00  0.00     0.111 A 
HETATM    4  N   UNL     1     -45.503  60.234 -54.380  1.00  0.00    -0.233 NA
HETATM    5  C   UNL     1     -44.815  59.058 -54.257  1.00  0.00     0.089 A 
HETATM    6  C   UNL     1     -44.629  58.437 -55.497  1.00  0.00     0.091 A 
HETATM    7  C   UNL     1     -43.954  57.200 -55.617  1.00  0.00     0.065 A 
HETATM    8  C   UNL     1     -43.456  56.647 -54.425  1.00  0.00     0.049 A 
HETATM    9  C   UNL     1     -43.633  57.268 -53.180  1.00  0.00     0.036 A 
HETATM   10  C   UNL     1     -44.320  58.479 -53.081  1.00  0.00     0.051 A 
ENDROOT
BRANCH   9  11
HETATM   11  C   UNL     1     -43.023  56.626 -51.988  1.00  0.00     0.251 C 
HETATM   12  N   UNL     1     -42.950  55.245 -51.995  1.00  0.00    -0.357 N 
HETATM   13  H   UNL     1     -43.078  54.771 -52.880  1.00  0.00     0.162 HD
HETATM   14  O   UNL     1     -42.587  57.322 -51.079  1.00  0.00    -0.268 OA
BRANCH  12  15
HETATM   15  C   UNL     1     -42.176  54.574 -50.963  1.00  0.00     0.127 C 
BRANCH  15  16
HETATM   16  C   UNL     1     -40.696  54.443 -51.319  1.00  0.00     0.060 C 
BRANCH  16  17
HETATM   17  C   UNL     1     -40.479  53.460 -52.428  1.00  0.00    -0.029 A 
HETATM   18  C   UNL     1     -40.137  52.076 -52.286  1.00  0.00    -0.002 A 
HETATM   19  C   UNL     1     -39.985  51.548 -53.568  1.00  0.00     0.042 A 
HETATM   20  C   UNL     1     -39.925  51.226 -51.180  1.00  0.00     0.014 A 
HETATM   21  C   UNL     1     -39.631  50.213 -53.800  1.00  0.00     0.030 A 
HETATM   22  N   UNL     1     -40.238  52.566 -54.456  1.00  0.00    -0.365 N 
HETATM   23  C   UNL     1     -39.426  49.393 -52.687  1.00  0.00     0.002 A 
HETATM   24  C   UNL     1     -39.572  49.889 -51.394  1.00  0.00     0.001 A 
HETATM   25  H   UNL     1     -40.194  52.471 -55.461  1.00  0.00     0.165 HD
HETATM   26  C   UNL     1     -40.537  53.721 -53.783  1.00  0.00     0.096 A 
ENDBRANCH  16  17
ENDBRANCH  15  16
ENDBRANCH  12  15
ENDBRANCH   9  11
BRANCH   7  27
HETATM   27  N   UNL     1     -43.785  56.569 -56.863  1.00  0.00    -0.323 N 
HETATM   28  C   UNL     1     -42.886  56.887 -57.874  1.00  0.00     0.251 C 
HETATM   29  O   UNL     1     -42.060  57.792 -57.861  1.00  0.00    -0.270 OA
HETATM   30  H   UNL     1     -44.381  55.786 -57.096  1.00  0.00     0.169 HD
BRANCH  28  31
HETATM   31  C   UNL     1     -42.940  55.848 -59.011  1.00  0.00     0.213 C 
HETATM   32  O   UNL     1     -43.937  54.838 -58.752  1.00  0.00    -0.376 OA
HETATM   33  C   UNL     1     -44.857  54.833 -59.855  1.00  0.00     0.168 C 
HETATM   34  C   UNL     1     -44.721  56.178 -60.532  1.00  0.00     0.029 C 
HETATM   35  C   UNL     1     -43.248  56.460 -60.369  1.00  0.00     0.044 C 
ENDBRANCH  28  31
ENDBRANCH   7  27
BRANCH   3  36
HETATM   36  C   UNL     1     -46.452  61.606 -56.230  1.00  0.00     0.056 C 
HETATM   37  C   UNL     1     -46.794  62.669 -55.139  1.00  0.00     0.012 C 
HETATM   38  C   UNL     1     -46.457  63.747 -56.185  1.00  0.00     0.002 C 
HETATM   39  C   UNL     1     -45.524  62.705 -56.828  1.00  0.00     0.012 C 
ENDBRANCH   3  36
TORSDOF 7
ENDMDL
MODEL 6
REMARK VINA RESULT:      -8.3      2.563      7.719
REMARK  7 active torsions:
REMARK  status: ('A' for Active; 'I' for Inactive)
REMARK    1  A    between atoms: C_3  and  C_4 
REMARK    2  A    between atoms: C_11  and  N_12 
REMARK       I    between atoms: N_12  and  C_13 
REMARK    3  A    between atoms: C_13  and  C_14 
REMARK    4  A    between atoms: C_21  and  C_22 
REMARK       I    between atoms: C_22  and  N_23 
REMARK    5  A    between atoms: N_23  and  C_24 
REMARK    6  A    between atoms: C_24  and  C_25 
REMARK    7  A    between atoms: C_25  and  C_26 
ROOT
HETATM    1  C   UNL     1     -43.314  55.995 -51.582  1.00  0.00     0.158 C 
HETATM    2  N   UNL     1     -43.239  55.972 -53.022  1.00  0.00    -0.335 N 
HETATM    3  C   UNL     1     -42.711  54.947 -53.777  1.00  0.00     0.111 A 
HETATM    4  N   UNL     1     -42.875  55.176 -55.060  1.00  0.00    -0.233 NA
HETATM    5  C   UNL     1     -43.476  56.401 -55.147  1.00  0.00     0.089 A 
HETATM    6  C   UNL     1     -43.718  56.948 -53.882  1.00  0.00     0.091 A 
HETATM    7  C   UNL     1     -44.344  58.206 -53.721  1.00  0.00     0.065 A 
HETATM    8  C   UNL     1     -44.681  58.886 -54.904  1.00  0.00     0.049 A 
HETATM    9  C   UNL     1     -44.435  58.347 -56.174  1.00  0.00     0.036 A 
HETATM   10  C   UNL     1     -43.835  57.095 -56.311  1.00  0.00     0.051 A 
ENDROOT
BRANCH   9  11
HETATM   11  C   UNL     1     -44.783  59.170 -57.360  1.00  0.00     0.251 C 
HETATM   12  N   UNL     1     -43.729  59.712 -58.072  1.00  0.00    -0.357 N 
HETATM   13  H   UNL     1     -42.805  59.331 -57.909  1.00  0.00     0.162 HD
HETATM   14  O   UNL     1     -45.958  59.311 -57.678  1.00  0.00    -0.268 OA
BRANCH  12  15
HETATM   15  C   UNL     1     -43.994  60.343 -59.354  1.00  0.00     0.127 C 
BRANCH  15  16
HETATM   16  C   UNL     1     -43.235  59.690 -60.509  1.00  0.00     0.060 C 
BRANCH  16  17
HETATM   17  C   UNL     1     -42.978  58.238 -60.250  1.00  0.00    -0.029 A 
HETATM   18  C   UNL     1     -43.952  57.188 -60.247  1.00  0.00    -0.002 A 
HETATM   19  C   UNL     1     -43.292  56.004 -59.915  1.00  0.00     0.042 A 
HETATM   20  C   UNL     1     -45.342  57.138 -60.481  1.00  0.00     0.014 A 
HETATM   21  C   UNL     1     -43.952  54.774 -59.803  1.00  0.00     0.030 A 
HETATM   22  N   UNL     1     -41.966  56.319 -59.735  1.00  0.00    -0.365 N 
HETATM   23  C   UNL     1     -45.329  54.753 -60.040  1.00  0.00     0.002 A 
HETATM   24  C   UNL     1     -46.017  55.916 -60.376  1.00  0.00     0.001 A 
HETATM   25  H   UNL     1     -41.251  55.652 -59.479  1.00  0.00     0.165 HD
HETATM   26  C   UNL     1     -41.764  57.659 -59.935  1.00  0.00     0.096 A 
ENDBRANCH  16  17
ENDBRANCH  15  16
ENDBRANCH  12  15
ENDBRANCH   9  11
BRANCH   7  27
HETATM   27  N   UNL     1     -44.602  58.745 -52.447  1.00  0.00    -0.323 N 
HETATM   28  C   UNL     1     -43.853  59.675 -51.738  1.00  0.00     0.251 C 
HETATM   29  O   UNL     1     -42.811  60.207 -52.102  1.00  0.00    -0.270 OA
HETATM   30  H   UNL     1     -45.424  58.433 -51.946  1.00  0.00     0.169 HD
BRANCH  28  31
HETATM   31  C   UNL     1     -44.574  60.097 -50.443  1.00  0.00     0.213 C 
HETATM   32  O   UNL     1     -43.769  61.007 -49.667  1.00  0.00    -0.376 OA
HETATM   33  C   UNL     1     -44.527  62.211 -49.471  1.00  0.00     0.168 C 
HETATM   34  C   UNL     1     -45.581  62.234 -50.554  1.00  0.00     0.029 C 
HETATM   35  C   UNL     1     -45.915  60.769 -50.694  1.00  0.00     0.044 C 
ENDBRANCH  28  31
ENDBRANCH   7  27
BRANCH   3  36
HETATM   36  C   UNL     1     -42.027  53.685 -53.253  1.00  0.00     0.056 C 
HETATM   37  C   UNL     1     -41.338  52.853 -54.380  1.00  0.00     0.012 C 
HETATM   38  C   UNL     1     -40.209  52.559 -53.376  1.00  0.00     0.002 C 
HETATM   39  C   UNL     1     -40.586  53.890 -52.699  1.00  0.00     0.012 C 
ENDBRANCH   3  36
TORSDOF 7
ENDMDL
MODEL 7
REMARK VINA RESULT:      -8.3      3.235      8.043
REMARK  7 active torsions:
REMARK  status: ('A' for Active; 'I' for Inactive)
REMARK    1  A    between atoms: C_3  and  C_4 
REMARK    2  A    between atoms: C_11  and  N_12 
REMARK       I    between atoms: N_12  and  C_13 
REMARK    3  A    between atoms: C_13  and  C_14 
REMARK    4  A    between atoms: C_21  and  C_22 
REMARK       I    between atoms: C_22  and  N_23 
REMARK    5  A    between atoms: N_23  and  C_24 
REMARK    6  A    between atoms: C_24  and  C_25 
REMARK    7  A    between atoms: C_25  and  C_26 
ROOT
HETATM    1  C   UNL     1     -43.272  56.913 -50.897  1.00  0.00     0.158 C 
HETATM    2  N   UNL     1     -43.496  56.694 -52.305  1.00  0.00    -0.335 N 
HETATM    3  C   UNL     1     -43.173  55.546 -52.996  1.00  0.00     0.111 A 
HETATM    4  N   UNL     1     -43.588  55.613 -54.239  1.00  0.00    -0.233 NA
HETATM    5  C   UNL     1     -44.150  56.853 -54.379  1.00  0.00     0.089 A 
HETATM    6  C   UNL     1     -44.106  57.577 -53.183  1.00  0.00     0.091 A 
HETATM    7  C   UNL     1     -44.639  58.883 -53.082  1.00  0.00     0.065 A 
HETATM    8  C   UNL     1     -45.188  59.420 -54.259  1.00  0.00     0.049 A 
HETATM    9  C   UNL     1     -45.228  58.703 -55.463  1.00  0.00     0.036 A 
HETATM   10  C   UNL     1     -44.714  57.408 -55.536  1.00  0.00     0.051 A 
ENDROOT
BRANCH   9  11
HETATM   11  C   UNL     1     -45.782  59.383 -56.662  1.00  0.00     0.251 C 
HETATM   12  N   UNL     1     -46.823  58.745 -57.312  1.00  0.00    -0.357 N 
HETATM   13  H   UNL     1     -47.304  58.005 -56.818  1.00  0.00     0.162 HD
HETATM   14  O   UNL     1     -45.334  60.470 -57.005  1.00  0.00    -0.268 OA
BRANCH  12  15
HETATM   15  C   UNL     1     -47.544  59.456 -58.355  1.00  0.00     0.127 C 
BRANCH  15  16
HETATM   16  C   UNL     1     -47.089  59.071 -59.762  1.00  0.00     0.060 C 
BRANCH  16  17
HETATM   17  C   UNL     1     -46.482  57.703 -59.792  1.00  0.00    -0.029 A 
HETATM   18  C   UNL     1     -45.086  57.387 -59.714  1.00  0.00    -0.002 A 
HETATM   19  C   UNL     1     -44.962  56.002 -59.825  1.00  0.00     0.042 A 
HETATM   20  C   UNL     1     -43.913  58.157 -59.575  1.00  0.00     0.014 A 
HETATM   21  C   UNL     1     -43.724  55.348 -59.807  1.00  0.00     0.030 A 
HETATM   22  N   UNL     1     -46.233  55.493 -59.954  1.00  0.00    -0.365 N 
HETATM   23  C   UNL     1     -42.577  56.135 -59.669  1.00  0.00     0.002 A 
HETATM   24  C   UNL     1     -42.667  57.520 -59.553  1.00  0.00     0.001 A 
HETATM   25  H   UNL     1     -46.445  54.510 -60.059  1.00  0.00     0.165 HD
HETATM   26  C   UNL     1     -47.155  56.505 -59.933  1.00  0.00     0.096 A 
ENDBRANCH  16  17
ENDBRANCH  15  16
ENDBRANCH  12  15
ENDBRANCH   9  11
BRANCH   7  27
HETATM   27  N   UNL     1     -44.610  59.601 -51.873  1.00  0.00    -0.323 N 
HETATM   28  C   UNL     1     -45.506  59.537 -50.813  1.00  0.00     0.251 C 
HETATM   29  O   UNL     1     -46.503  58.829 -50.738  1.00  0.00    -0.270 OA
HETATM   30  H   UNL     1     -43.863  60.265 -51.720  1.00  0.00     0.169 HD
BRANCH  28  31
HETATM   31  C   UNL     1     -45.019  60.386 -49.623  1.00  0.00     0.213 C 
HETATM   32  O   UNL     1     -43.686  60.890 -49.849  1.00  0.00    -0.376 OA
HETATM   33  C   UNL     1     -43.733  62.323 -49.752  1.00  0.00     0.168 C 
HETATM   34  C   UNL     1     -45.174  62.720 -49.977  1.00  0.00     0.029 C 
HETATM   35  C   UNL     1     -45.917  61.578 -49.327  1.00  0.00     0.044 C 
ENDBRANCH  28  31
ENDBRANCH   7  27
BRANCH   3  36
HETATM   36  C   UNL     1     -42.442  54.323 -52.443  1.00  0.00     0.056 C 
HETATM   37  C   UNL     1     -41.820  53.429 -53.561  1.00  0.00     0.012 C 
HETATM   38  C   UNL     1     -40.624  53.204 -52.618  1.00  0.00     0.002 C 
HETATM   39  C   UNL     1     -40.969  54.571 -52.000  1.00  0.00     0.012 C 
ENDBRANCH   3  36
TORSDOF 7
ENDMDL
MODEL 8
REMARK VINA RESULT:      -8.3      2.271      7.961
REMARK  7 active torsions:
REMARK  status: ('A' for Active; 'I' for Inactive)
REMARK    1  A    between atoms: C_3  and  C_4 
REMARK    2  A    between atoms: C_11  and  N_12 
REMARK       I    between atoms: N_12  and  C_13 
REMARK    3  A    between atoms: C_13  and  C_14 
REMARK    4  A    between atoms: C_21  and  C_22 
REMARK       I    between atoms: C_22  and  N_23 
REMARK    5  A    between atoms: N_23  and  C_24 
REMARK    6  A    between atoms: C_24  and  C_25 
REMARK    7  A    between atoms: C_25  and  C_26 
ROOT
HETATM    1  C   UNL     1     -41.494  56.715 -51.704  1.00  0.00     0.158 C 
HETATM    2  N   UNL     1     -41.522  55.877 -52.878  1.00  0.00    -0.335 N 
HETATM    3  C   UNL     1     -41.029  54.592 -52.952  1.00  0.00     0.111 A 
HETATM    4  N   UNL     1     -41.289  54.056 -54.122  1.00  0.00    -0.233 NA
HETATM    5  C   UNL     1     -41.919  55.030 -54.847  1.00  0.00     0.089 A 
HETATM    6  C   UNL     1     -42.081  56.203 -54.104  1.00  0.00     0.091 A 
HETATM    7  C   UNL     1     -42.719  57.345 -54.642  1.00  0.00     0.065 A 
HETATM    8  C   UNL     1     -43.153  57.241 -55.974  1.00  0.00     0.049 A 
HETATM    9  C   UNL     1     -42.988  56.070 -56.727  1.00  0.00     0.036 A 
HETATM   10  C   UNL     1     -42.374  54.948 -56.171  1.00  0.00     0.051 A 
ENDROOT
BRANCH   9  11
HETATM   11  C   UNL     1     -43.436  56.083 -58.143  1.00  0.00     0.251 C 
HETATM   12  N   UNL     1     -44.722  56.534 -58.384  1.00  0.00    -0.357 N 
HETATM   13  H   UNL     1     -45.186  57.048 -57.647  1.00  0.00     0.162 HD
HETATM   14  O   UNL     1     -42.664  55.735 -59.029  1.00  0.00    -0.268 OA
BRANCH  12  15
HETATM   15  C   UNL     1     -45.141  56.770 -59.756  1.00  0.00     0.127 C 
BRANCH  15  16
HETATM   16  C   UNL     1     -45.256  58.256 -60.096  1.00  0.00     0.060 C 
BRANCH  16  17
HETATM   17  C   UNL     1     -43.982  58.989 -59.808  1.00  0.00    -0.029 A 
HETATM   18  C   UNL     1     -43.712  59.812 -58.667  1.00  0.00    -0.002 A 
HETATM   19  C   UNL     1     -42.428  60.336 -58.822  1.00  0.00     0.042 A 
HETATM   20  C   UNL     1     -44.450  60.173 -57.520  1.00  0.00     0.014 A 
HETATM   21  C   UNL     1     -41.847  61.205 -57.890  1.00  0.00     0.030 A 
HETATM   22  N   UNL     1     -41.932  59.842 -60.004  1.00  0.00    -0.365 N 
HETATM   23  C   UNL     1     -42.600  61.547 -56.764  1.00  0.00     0.002 A 
HETATM   24  C   UNL     1     -43.883  61.039 -56.578  1.00  0.00     0.001 A 
HETATM   25  H   UNL     1     -41.018  60.062 -60.375  1.00  0.00     0.165 HD
HETATM   26  C   UNL     1     -42.856  59.029 -60.606  1.00  0.00     0.096 A 
ENDBRANCH  16  17
ENDBRANCH  15  16
ENDBRANCH  12  15
ENDBRANCH   9  11
BRANCH   7  27
HETATM   27  N   UNL     1     -42.896  58.518 -53.885  1.00  0.00    -0.323 N 
HETATM   28  C   UNL     1     -41.971  59.519 -53.620  1.00  0.00     0.251 C 
HETATM   29  O   UNL     1     -40.810  59.564 -54.007  1.00  0.00    -0.270 OA
HETATM   30  H   UNL     1     -43.796  58.686 -53.453  1.00  0.00     0.169 HD
BRANCH  28  31
HETATM   31  C   UNL     1     -42.626  60.696 -52.870  1.00  0.00     0.213 C 
HETATM   32  O   UNL     1     -44.053  60.723 -53.081  1.00  0.00    -0.376 OA
HETATM   33  C   UNL     1     -44.691  60.660 -51.795  1.00  0.00     0.168 C 
HETATM   34  C   UNL     1     -43.673  60.079 -50.840  1.00  0.00     0.029 C 
HETATM   35  C   UNL     1     -42.384  60.659 -51.368  1.00  0.00     0.044 C 
ENDBRANCH  28  31
ENDBRANCH   7  27
BRANCH   3  36
HETATM   36  C   UNL     1     -40.284  53.834 -51.853  1.00  0.00     0.056 C 
HETATM   37  C   UNL     1     -41.240  53.219 -50.783  1.00  0.00     0.012 C 
HETATM   38  C   UNL     1     -40.295  52.004 -50.741  1.00  0.00     0.002 C 
HETATM   39  C   UNL     1     -39.920  52.358 -52.192  1.00  0.00     0.012 C 
ENDBRANCH   3  36
TORSDOF 7
ENDMDL
MODEL 9
REMARK VINA RESULT:      -8.3      2.760      3.518
REMARK  7 active torsions:
REMARK  status: ('A' for Active; 'I' for Inactive)
REMARK    1  A    between atoms: C_3  and  C_4 
REMARK    2  A    between atoms: C_11  and  N_12 
REMARK       I    between atoms: N_12  and  C_13 
REMARK    3  A    between atoms: C_13  and  C_14 
REMARK    4  A    between atoms: C_21  and  C_22 
REMARK       I    between atoms: C_22  and  N_23 
REMARK    5  A    between atoms: N_23  and  C_24 
REMARK    6  A    between atoms: C_24  and  C_25 
REMARK    7  A    between atoms: C_25  and  C_26 
ROOT
HETATM    1  C   UNL     1     -45.455  59.444 -57.736  1.00  0.00     0.158 C 
HETATM    2  N   UNL     1     -44.789  58.354 -57.065  1.00  0.00    -0.335 N 
HETATM    3  C   UNL     1     -44.137  57.312 -57.689  1.00  0.00     0.111 A 
HETATM    4  N   UNL     1     -43.549  56.533 -56.810  1.00  0.00    -0.233 NA
HETATM    5  C   UNL     1     -43.866  57.047 -55.583  1.00  0.00     0.089 A 
HETATM    6  C   UNL     1     -44.657  58.196 -55.694  1.00  0.00     0.091 A 
HETATM    7  C   UNL     1     -45.099  58.910 -54.556  1.00  0.00     0.065 A 
HETATM    8  C   UNL     1     -44.722  58.382 -53.309  1.00  0.00     0.049 A 
HETATM    9  C   UNL     1     -43.935  57.228 -53.191  1.00  0.00     0.036 A 
HETATM   10  C   UNL     1     -43.493  56.549 -54.328  1.00  0.00     0.051 A 
ENDROOT
BRANCH   9  11
HETATM   11  C   UNL     1     -43.636  56.725 -51.826  1.00  0.00     0.251 C 
HETATM   12  N   UNL     1     -43.608  55.352 -51.662  1.00  0.00    -0.357 N 
HETATM   13  H   UNL     1     -43.545  54.779 -52.493  1.00  0.00     0.162 HD
HETATM   14  O   UNL     1     -43.399  57.519 -50.924  1.00  0.00    -0.268 OA
BRANCH  12  15
HETATM   15  C   UNL     1     -43.115  54.801 -50.410  1.00  0.00     0.127 C 
BRANCH  15  16
HETATM   16  C   UNL     1     -41.596  54.898 -50.274  1.00  0.00     0.060 C 
BRANCH  16  17
HETATM   17  C   UNL     1     -40.914  53.675 -50.806  1.00  0.00    -0.029 A 
HETATM   18  C   UNL     1     -40.639  53.382 -52.181  1.00  0.00    -0.002 A 
HETATM   19  C   UNL     1     -40.037  52.124 -52.230  1.00  0.00     0.042 A 
HETATM   20  C   UNL     1     -40.862  54.067 -53.394  1.00  0.00     0.014 A 
HETATM   21  C   UNL     1     -39.650  51.516 -53.430  1.00  0.00     0.030 A 
HETATM   22  N   UNL     1     -39.940  51.674 -50.935  1.00  0.00    -0.365 N 
HETATM   23  C   UNL     1     -39.883  52.216 -54.617  1.00  0.00     0.002 A 
HETATM   24  C   UNL     1     -40.479  53.474 -54.602  1.00  0.00     0.001 A 
HETATM   25  H   UNL     1     -39.547  50.781 -50.669  1.00  0.00     0.165 HD
HETATM   26  C   UNL     1     -40.462  52.598 -50.069  1.00  0.00     0.096 A 
ENDBRANCH  16  17
ENDBRANCH  15  16
ENDBRANCH  12  15
ENDBRANCH   9  11
BRANCH   7  27
HETATM   27  N   UNL     1     -45.879  60.075 -54.672  1.00  0.00    -0.323 N 
HETATM   28  C   UNL     1     -45.480  61.396 -54.513  1.00  0.00     0.251 C 
HETATM   29  O   UNL     1     -44.355  61.793 -54.238  1.00  0.00    -0.270 OA
HETATM   30  H   UNL     1     -46.862  59.982 -54.889  1.00  0.00     0.169 HD
BRANCH  28  31
HETATM   31  C   UNL     1     -46.622  62.367 -54.872  1.00  0.00     0.213 C 
HETATM   32  O   UNL     1     -47.554  62.508 -53.780  1.00  0.00    -0.376 OA
HETATM   33  C   UNL     1     -47.624  63.900 -53.436  1.00  0.00     0.168 C 
HETATM   34  C   UNL     1     -46.361  64.537 -53.968  1.00  0.00     0.029 C 
HETATM   35  C   UNL     1     -46.133  63.759 -55.241  1.00  0.00     0.044 C 
ENDBRANCH  28  31
ENDBRANCH   7  27
BRANCH   3  36
HETATM   36  C   UNL     1     -44.063  57.050 -59.193  1.00  0.00     0.056 C 
HETATM   37  C   UNL     1     -43.328  55.718 -59.543  1.00  0.00     0.012 C 
HETATM   38  C   UNL     1     -44.357  55.530 -60.672  1.00  0.00     0.002 C 
HETATM   39  C   UNL     1     -45.320  56.371 -59.814  1.00  0.00     0.012 C 
ENDBRANCH   3  36
TORSDOF 7
ENDMDL
MODEL 10
REMARK VINA RESULT:      -8.2      3.248      8.876
REMARK  7 active torsions:
REMARK  status: ('A' for Active; 'I' for Inactive)
REMARK    1  A    between atoms: C_3  and  C_4 
REMARK    2  A    between atoms: C_11  and  N_12 
REMARK       I    between atoms: N_12  and  C_13 
REMARK    3  A    between atoms: C_13  and  C_14 
REMARK    4  A    between atoms: C_21  and  C_22 
REMARK       I    between atoms: C_22  and  N_23 
REMARK    5  A    between atoms: N_23  and  C_24 
REMARK    6  A    between atoms: C_24  and  C_25 
REMARK    7  A    between atoms: C_25  and  C_26 
ROOT
HETATM    1  C   UNL     1     -44.219  57.435 -51.552  1.00  0.00     0.158 C 
HETATM    2  N   UNL     1     -44.696  58.578 -52.293  1.00  0.00    -0.335 N 
HETATM    3  C   UNL     1     -44.949  59.824 -51.762  1.00  0.00     0.111 A 
HETATM    4  N   UNL     1     -45.277  60.678 -52.704  1.00  0.00    -0.233 NA
HETATM    5  C   UNL     1     -45.289  59.962 -53.869  1.00  0.00     0.089 A 
HETATM    6  C   UNL     1     -44.937  58.625 -53.658  1.00  0.00     0.091 A 
HETATM    7  C   UNL     1     -44.869  57.694 -54.721  1.00  0.00     0.065 A 
HETATM    8  C   UNL     1     -45.205  58.184 -55.995  1.00  0.00     0.049 A 
HETATM    9  C   UNL     1     -45.566  59.521 -56.212  1.00  0.00     0.036 A 
HETATM   10  C   UNL     1     -45.607  60.428 -55.153  1.00  0.00     0.051 A 
ENDROOT
BRANCH   9  11
HETATM   11  C   UNL     1     -45.952  59.923 -57.589  1.00  0.00     0.251 C 
HETATM   12  N   UNL     1     -46.986  59.216 -58.175  1.00  0.00    -0.357 N 
HETATM   13  H   UNL     1     -47.573  58.653 -57.574  1.00  0.00     0.162 HD
HETATM   14  O   UNL     1     -45.381  60.862 -58.131  1.00  0.00    -0.268 OA
BRANCH  12  15
HETATM   15  C   UNL     1     -47.548  59.698 -59.427  1.00  0.00     0.127 C 
BRANCH  15  16
HETATM   16  C   UNL     1     -46.947  59.012 -60.653  1.00  0.00     0.060 C 
BRANCH  16  17
HETATM   17  C   UNL     1     -46.403  57.657 -60.318  1.00  0.00    -0.029 A 
HETATM   18  C   UNL     1     -45.027  57.318 -60.114  1.00  0.00    -0.002 A 
HETATM   19  C   UNL     1     -44.964  55.945 -59.870  1.00  0.00     0.042 A 
HETATM   20  C   UNL     1     -43.822  58.052 -60.130  1.00  0.00     0.014 A 
HETATM   21  C   UNL     1     -43.758  55.270 -59.645  1.00  0.00     0.030 A 
HETATM   22  N   UNL     1     -46.253  55.470 -59.912  1.00  0.00    -0.365 N 
HETATM   23  C   UNL     1     -42.580  56.021 -59.667  1.00  0.00     0.002 A 
HETATM   24  C   UNL     1     -42.608  57.393 -59.904  1.00  0.00     0.001 A 
HETATM   25  H   UNL     1     -46.509  54.502 -59.776  1.00  0.00     0.165 HD
HETATM   26  C   UNL     1     -47.128  56.490 -60.179  1.00  0.00     0.096 A 
ENDBRANCH  16  17
ENDBRANCH  15  16
ENDBRANCH  12  15
ENDBRANCH   9  11
BRANCH   7  27
HETATM   27  N   UNL     1     -44.496  56.355 -54.507  1.00  0.00    -0.323 N 
HETATM   28  C   UNL     1     -43.255  55.765 -54.710  1.00  0.00     0.251 C 
HETATM   29  O   UNL     1     -42.240  56.316 -55.120  1.00  0.00    -0.270 OA
HETATM   30  H   UNL     1     -45.193  55.704 -54.171  1.00  0.00     0.169 HD
BRANCH  28  31
HETATM   31  C   UNL     1     -43.246  54.307 -54.211  1.00  0.00     0.213 C 
HETATM   32  O   UNL     1     -42.286  53.510 -54.936  1.00  0.00    -0.376 OA
HETATM   33  C   UNL     1     -41.372  52.945 -53.983  1.00  0.00     0.168 C 
HETATM   34  C   UNL     1     -41.461  53.804 -52.743  1.00  0.00     0.029 C 
HETATM   35  C   UNL     1     -42.921  54.181 -52.730  1.00  0.00     0.044 C 
ENDBRANCH  28  31
ENDBRANCH   7  27
BRANCH   3  36
HETATM   36  C   UNL     1     -44.864  60.223 -50.289  1.00  0.00     0.056 C 
HETATM   37  C   UNL     1     -43.596  61.072 -49.960  1.00  0.00     0.012 C 
HETATM   38  C   UNL     1     -44.478  61.887 -48.997  1.00  0.00     0.002 C 
HETATM   39  C   UNL     1     -45.665  61.501 -49.899  1.00  0.00     0.012 C 
ENDBRANCH   3  36
TORSDOF 7
ENDMDL
