MODEL 1
REMARK VINA RESULT:      -9.6      0.000      0.000
REMARK  4 active torsions:
REMARK  status: ('A' for Active; 'I' for Inactive)
REMARK    1  A    between atoms: C_6  and  C_7 
REMARK    2  A    between atoms: C_15  and  C_16 
REMARK       I    between atoms: C_16  and  N_17 
REMARK    3  A    between atoms: N_17  and  N_18 
REMARK       I    between atoms: N_18  and  C_19 
REMARK       I    between atoms: C_19  and  N_20 
REMARK    4  A    between atoms: N_20  and  C_21 
ROOT
HETATM    1  C   UNL     1     -42.045  58.149 -51.863  1.00  0.00     0.001 A 
HETATM    2  C   UNL     1     -42.312  57.326 -52.955  1.00  0.00     0.015 A 
HETATM    3  C   UNL     1     -41.841  55.987 -53.001  1.00  0.00     0.009 A 
HETATM    4  C   UNL     1     -41.106  55.492 -51.908  1.00  0.00     0.068 A 
HETATM    5  N   UNL     1     -40.642  54.234 -51.847  1.00  0.00    -0.248 NA
HETATM    6  C   UNL     1     -40.870  53.379 -52.873  1.00  0.00     0.070 A 
HETATM    7  C   UNL     1     -41.548  53.780 -54.011  1.00  0.00     0.050 A 
HETATM    8  C   UNL     1     -42.064  55.078 -54.060  1.00  0.00     0.048 A 
HETATM    9  C   UNL     1     -40.856  56.332 -50.831  1.00  0.00     0.032 A 
HETATM   10  C   UNL     1     -41.314  57.651 -50.797  1.00  0.00     0.002 A 
ENDROOT
BRANCH   8  11
HETATM   11  C   UNL     1     -42.874  55.456 -55.247  1.00  0.00     0.271 C 
HETATM   12  N   UNL     1     -42.197  55.387 -56.448  1.00  0.00    -0.262 N 
HETATM   13  H   UNL     1     -41.197  55.219 -56.525  1.00  0.00     0.190 HD
HETATM   14  O   UNL     1     -44.052  55.778 -55.141  1.00  0.00    -0.266 OA
BRANCH  12  15
HETATM   15  N   UNL     1     -42.841  55.810 -57.613  1.00  0.00    -0.249 N 
HETATM   16  C   UNL     1     -42.732  57.128 -57.973  1.00  0.00     0.341 C 
HETATM   17  N   UNL     1     -43.454  57.555 -59.044  1.00  0.00    -0.286 N 
HETATM   18  O   UNL     1     -41.975  57.911 -57.394  1.00  0.00    -0.245 OA
HETATM   19  H   UNL     1     -43.325  58.518 -59.312  1.00  0.00     0.172 HD
HETATM   20  H   UNL     1     -43.682  55.296 -57.886  1.00  0.00     0.192 HD
BRANCH  17  21
HETATM   21  C   UNL     1     -44.285  56.782 -59.798  1.00  0.00     0.174 A 
HETATM   22  S   UNL     1     -45.944  57.129 -59.626  1.00  0.00    -0.062 SA
HETATM   23  C   UNL     1     -46.294  55.908 -60.781  1.00  0.00     0.072 A 
HETATM   24  C   UNL     1     -45.118  55.319 -61.200  1.00  0.00     0.126 A 
HETATM   25  N   UNL     1     -43.964  55.821 -60.630  1.00  0.00    -0.236 NA
ENDBRANCH  17  21
ENDBRANCH  12  15
ENDBRANCH   8  11
BRANCH   6  26
HETATM   26  C   UNL     1     -40.324  52.022 -52.692  1.00  0.00     0.014 A 
HETATM   27  C   UNL     1     -40.062  51.436 -51.437  1.00  0.00     0.046 A 
HETATM   28 CL   UNL     1     -40.298  52.282 -49.942  1.00  0.00    -0.083 Cl
HETATM   29  C   UNL     1     -39.546  50.136 -51.341  1.00  0.00     0.025 A 
HETATM   30  C   UNL     1     -39.262  49.401 -52.490  1.00  0.00     0.002 A 
HETATM   31  C   UNL     1     -39.489  49.965 -53.740  1.00  0.00     0.001 A 
HETATM   32  C   UNL     1     -40.012  51.258 -53.837  1.00  0.00     0.015 A 
ENDBRANCH   6  26
TORSDOF 4
ENDMDL
MODEL 2
REMARK VINA RESULT:      -9.6      1.048      1.417
REMARK  4 active torsions:
REMARK  status: ('A' for Active; 'I' for Inactive)
REMARK    1  A    between atoms: C_6  and  C_7 
REMARK    2  A    between atoms: C_15  and  C_16 
REMARK       I    between atoms: C_16  and  N_17 
REMARK    3  A    between atoms: N_17  and  N_18 
REMARK       I    between atoms: N_18  and  C_19 
REMARK       I    between atoms: C_19  and  N_20 
REMARK    4  A    between atoms: N_20  and  C_21 
ROOT
HETATM    1  C   UNL     1     -41.963  58.498 -51.845  1.00  0.00     0.001 A 
HETATM    2  C   UNL     1     -42.235  57.552 -52.831  1.00  0.00     0.015 A 
HETATM    3  C   UNL     1     -41.812  56.203 -52.695  1.00  0.00     0.009 A 
HETATM    4  C   UNL     1     -41.119  55.827 -51.530  1.00  0.00     0.068 A 
HETATM    5  N   UNL     1     -40.702  54.572 -51.299  1.00  0.00    -0.248 NA
HETATM    6  C   UNL     1     -40.939  53.602 -52.214  1.00  0.00     0.070 A 
HETATM    7  C   UNL     1     -41.576  53.877 -53.411  1.00  0.00     0.050 A 
HETATM    8  C   UNL     1     -42.044  55.175 -53.637  1.00  0.00     0.048 A 
HETATM    9  C   UNL     1     -40.862  56.788 -50.561  1.00  0.00     0.032 A 
HETATM   10  C   UNL     1     -41.273  58.114 -50.705  1.00  0.00     0.002 A 
ENDROOT
BRANCH   8  11
HETATM   11  C   UNL     1     -42.814  55.425 -54.883  1.00  0.00     0.271 C 
HETATM   12  N   UNL     1     -42.037  55.622 -56.007  1.00  0.00    -0.262 N 
HETATM   13  H   UNL     1     -41.024  55.718 -55.985  1.00  0.00     0.190 HD
HETATM   14  O   UNL     1     -44.040  55.430 -54.887  1.00  0.00    -0.266 OA
BRANCH  12  15
HETATM   15  N   UNL     1     -42.661  55.956 -57.211  1.00  0.00    -0.249 N 
HETATM   16  C   UNL     1     -42.707  57.277 -57.573  1.00  0.00     0.341 C 
HETATM   17  N   UNL     1     -43.415  57.605 -58.688  1.00  0.00    -0.286 N 
HETATM   18  O   UNL     1     -42.097  58.153 -56.956  1.00  0.00    -0.245 OA
HETATM   19  H   UNL     1     -43.399  58.576 -58.954  1.00  0.00     0.172 HD
HETATM   20  H   UNL     1     -43.409  55.335 -57.530  1.00  0.00     0.192 HD
BRANCH  17  21
HETATM   21  C   UNL     1     -44.088  56.728 -59.484  1.00  0.00     0.174 A 
HETATM   22  S   UNL     1     -45.778  56.948 -59.528  1.00  0.00    -0.062 SA
HETATM   23  C   UNL     1     -45.894  55.644 -60.638  1.00  0.00     0.072 A 
HETATM   24  C   UNL     1     -44.636  55.131 -60.880  1.00  0.00     0.126 A 
HETATM   25  N   UNL     1     -43.599  55.755 -60.212  1.00  0.00    -0.236 NA
ENDBRANCH  17  21
ENDBRANCH  12  15
ENDBRANCH   8  11
BRANCH   6  26
HETATM   26  C   UNL     1     -40.445  52.261 -51.849  1.00  0.00     0.014 A 
HETATM   27  C   UNL     1     -39.945  51.323 -52.775  1.00  0.00     0.046 A 
HETATM   28 CL   UNL     1     -39.913  51.622 -54.482  1.00  0.00    -0.083 Cl
HETATM   29  C   UNL     1     -39.488  50.067 -52.354  1.00  0.00     0.025 A 
HETATM   30  C   UNL     1     -39.536  49.712 -51.008  1.00  0.00     0.002 A 
HETATM   31  C   UNL     1     -40.046  50.610 -50.077  1.00  0.00     0.001 A 
HETATM   32  C   UNL     1     -40.494  51.866 -50.495  1.00  0.00     0.015 A 
ENDBRANCH   6  26
TORSDOF 4
ENDMDL
MODEL 3
REMARK VINA RESULT:      -9.3      2.035      2.433
REMARK  4 active torsions:
REMARK  status: ('A' for Active; 'I' for Inactive)
REMARK    1  A    between atoms: C_6  and  C_7 
REMARK    2  A    between atoms: C_15  and  C_16 
REMARK       I    between atoms: C_16  and  N_17 
REMARK    3  A    between atoms: N_17  and  N_18 
REMARK       I    between atoms: N_18  and  C_19 
REMARK       I    between atoms: C_19  and  N_20 
REMARK    4  A    between atoms: N_20  and  C_21 
ROOT
HETATM    1  C   UNL     1     -44.785  57.786 -51.906  1.00  0.00     0.001 A 
HETATM    2  C   UNL     1     -44.165  57.497 -53.121  1.00  0.00     0.015 A 
HETATM    3  C   UNL     1     -43.321  56.364 -53.266  1.00  0.00     0.009 A 
HETATM    4  C   UNL     1     -43.129  55.519 -52.158  1.00  0.00     0.068 A 
HETATM    5  N   UNL     1     -42.371  54.412 -52.204  1.00  0.00    -0.248 NA
HETATM    6  C   UNL     1     -41.745  54.069 -53.355  1.00  0.00     0.070 A 
HETATM    7  C   UNL     1     -41.837  54.855 -54.490  1.00  0.00     0.050 A 
HETATM    8  C   UNL     1     -42.655  55.988 -54.455  1.00  0.00     0.048 A 
HETATM    9  C   UNL     1     -43.759  55.828 -50.959  1.00  0.00     0.032 A 
HETATM   10  C   UNL     1     -44.580  56.949 -50.821  1.00  0.00     0.002 A 
ENDROOT
BRANCH   8  11
HETATM   11  C   UNL     1     -42.819  56.762 -55.712  1.00  0.00     0.271 C 
HETATM   12  N   UNL     1     -43.803  56.285 -56.554  1.00  0.00    -0.262 N 
HETATM   13  H   UNL     1     -44.299  55.409 -56.407  1.00  0.00     0.190 HD
HETATM   14  O   UNL     1     -42.136  57.752 -55.948  1.00  0.00    -0.266 OA
BRANCH  12  15
HETATM   15  N   UNL     1     -43.975  56.886 -57.804  1.00  0.00    -0.249 N 
HETATM   16  C   UNL     1     -43.868  56.100 -58.921  1.00  0.00     0.341 C 
HETATM   17  N   UNL     1     -43.924  56.712 -60.135  1.00  0.00    -0.286 N 
HETATM   18  O   UNL     1     -43.775  54.872 -58.860  1.00  0.00    -0.245 OA
HETATM   19  H   UNL     1     -43.884  56.108 -60.940  1.00  0.00     0.172 HD
HETATM   20  H   UNL     1     -43.728  57.876 -57.876  1.00  0.00     0.192 HD
BRANCH  17  21
HETATM   21  C   UNL     1     -44.077  58.051 -60.340  1.00  0.00     0.174 A 
HETATM   22  S   UNL     1     -42.628  58.910 -60.600  1.00  0.00    -0.062 SA
HETATM   23  C   UNL     1     -43.544  60.349 -60.790  1.00  0.00     0.072 A 
HETATM   24  C   UNL     1     -44.885  60.067 -60.628  1.00  0.00     0.126 A 
HETATM   25  N   UNL     1     -45.189  58.745 -60.365  1.00  0.00    -0.236 NA
ENDBRANCH  17  21
ENDBRANCH  12  15
ENDBRANCH   8  11
BRANCH   6  26
HETATM   26  C   UNL     1     -40.950  52.829 -53.292  1.00  0.00     0.014 A 
HETATM   27  C   UNL     1     -40.079  52.501 -52.233  1.00  0.00     0.046 A 
HETATM   28 CL   UNL     1     -39.793  53.565 -50.894  1.00  0.00    -0.083 Cl
HETATM   29  C   UNL     1     -39.357  51.299 -52.237  1.00  0.00     0.025 A 
HETATM   30  C   UNL     1     -39.473  50.409 -53.303  1.00  0.00     0.002 A 
HETATM   31  C   UNL     1     -40.307  50.720 -54.371  1.00  0.00     0.001 A 
HETATM   32  C   UNL     1     -41.033  51.914 -54.363  1.00  0.00     0.015 A 
ENDBRANCH   6  26
TORSDOF 4
ENDMDL
MODEL 4
REMARK VINA RESULT:      -8.9      5.076      7.651
REMARK  4 active torsions:
REMARK  status: ('A' for Active; 'I' for Inactive)
REMARK    1  A    between atoms: C_6  and  C_7 
REMARK    2  A    between atoms: C_15  and  C_16 
REMARK       I    between atoms: C_16  and  N_17 
REMARK    3  A    between atoms: N_17  and  N_18 
REMARK       I    between atoms: N_18  and  C_19 
REMARK       I    between atoms: C_19  and  N_20 
REMARK    4  A    between atoms: N_20  and  C_21 
ROOT
HETATM    1  C   UNL     1     -44.840  58.475 -55.699  1.00  0.00     0.001 A 
HETATM    2  C   UNL     1     -44.818  58.250 -54.323  1.00  0.00     0.015 A 
HETATM    3  C   UNL     1     -43.995  57.243 -53.754  1.00  0.00     0.009 A 
HETATM    4  C   UNL     1     -43.181  56.475 -54.606  1.00  0.00     0.068 A 
HETATM    5  N   UNL     1     -42.351  55.518 -54.160  1.00  0.00    -0.248 NA
HETATM    6  C   UNL     1     -42.276  55.253 -52.834  1.00  0.00     0.070 A 
HETATM    7  C   UNL     1     -43.065  55.924 -51.917  1.00  0.00     0.050 A 
HETATM    8  C   UNL     1     -43.903  56.946 -52.375  1.00  0.00     0.048 A 
HETATM    9  C   UNL     1     -43.219  56.719 -55.973  1.00  0.00     0.032 A 
HETATM   10  C   UNL     1     -44.038  57.705 -56.527  1.00  0.00     0.002 A 
ENDROOT
BRANCH   8  11
HETATM   11  C   UNL     1     -44.665  57.721 -51.363  1.00  0.00     0.271 C 
HETATM   12  N   UNL     1     -44.107  58.939 -51.034  1.00  0.00    -0.262 N 
HETATM   13  H   UNL     1     -43.190  59.245 -51.349  1.00  0.00     0.190 HD
HETATM   14  O   UNL     1     -45.714  57.296 -50.890  1.00  0.00    -0.266 OA
BRANCH  12  15
HETATM   15  N   UNL     1     -44.697  59.704 -50.025  1.00  0.00    -0.249 N 
HETATM   16  C   UNL     1     -45.401  60.822 -50.386  1.00  0.00     0.341 C 
HETATM   17  N   UNL     1     -45.875  61.622 -49.392  1.00  0.00    -0.286 N 
HETATM   18  O   UNL     1     -45.654  61.093 -51.562  1.00  0.00    -0.245 OA
HETATM   19  H   UNL     1     -46.423  62.415 -49.684  1.00  0.00     0.172 HD
HETATM   20  H   UNL     1     -44.242  59.686 -49.108  1.00  0.00     0.192 HD
BRANCH  17  21
HETATM   21  C   UNL     1     -45.710  61.408 -48.057  1.00  0.00     0.174 A 
HETATM   22  S   UNL     1     -45.098  62.738 -47.185  1.00  0.00    -0.062 SA
HETATM   23  C   UNL     1     -45.194  61.807 -45.746  1.00  0.00     0.072 A 
HETATM   24  C   UNL     1     -45.673  60.548 -46.042  1.00  0.00     0.126 A 
HETATM   25  N   UNL     1     -45.965  60.319 -47.373  1.00  0.00    -0.236 NA
ENDBRANCH  17  21
ENDBRANCH  12  15
ENDBRANCH   8  11
BRANCH   6  26
HETATM   26  C   UNL     1     -41.324  54.191 -52.460  1.00  0.00     0.014 A 
HETATM   27  C   UNL     1     -40.647  54.136 -51.225  1.00  0.00     0.046 A 
HETATM   28 CL   UNL     1     -40.812  55.365 -50.013  1.00  0.00    -0.083 Cl
HETATM   29  C   UNL     1     -39.758  53.092 -50.935  1.00  0.00     0.025 A 
HETATM   30  C   UNL     1     -39.511  52.093 -51.874  1.00  0.00     0.002 A 
HETATM   31  C   UNL     1     -40.148  52.137 -53.109  1.00  0.00     0.001 A 
HETATM   32  C   UNL     1     -41.041  53.173 -53.395  1.00  0.00     0.015 A 
ENDBRANCH   6  26
TORSDOF 4
ENDMDL
MODEL 5
REMARK VINA RESULT:      -8.8      5.187      8.414
REMARK  4 active torsions:
REMARK  status: ('A' for Active; 'I' for Inactive)
REMARK    1  A    between atoms: C_6  and  C_7 
REMARK    2  A    between atoms: C_15  and  C_16 
REMARK       I    between atoms: C_16  and  N_17 
REMARK    3  A    between atoms: N_17  and  N_18 
REMARK       I    between atoms: N_18  and  C_19 
REMARK       I    between atoms: C_19  and  N_20 
REMARK    4  A    between atoms: N_20  and  C_21 
ROOT
HETATM    1  C   UNL     1     -41.213  54.446 -49.934  1.00  0.00     0.001 A 
HETATM    2  C   UNL     1     -42.127  55.436 -50.287  1.00  0.00     0.015 A 
HETATM    3  C   UNL     1     -42.321  55.811 -51.643  1.00  0.00     0.009 A 
HETATM    4  C   UNL     1     -41.578  55.151 -52.639  1.00  0.00     0.068 A 
HETATM    5  N   UNL     1     -41.709  55.418 -53.948  1.00  0.00    -0.248 NA
HETATM    6  C   UNL     1     -42.585  56.365 -54.361  1.00  0.00     0.070 A 
HETATM    7  C   UNL     1     -43.334  57.099 -53.458  1.00  0.00     0.050 A 
HETATM    8  C   UNL     1     -43.225  56.798 -52.097  1.00  0.00     0.048 A 
HETATM    9  C   UNL     1     -40.674  54.167 -52.262  1.00  0.00     0.032 A 
HETATM   10  C   UNL     1     -40.482  53.809 -50.926  1.00  0.00     0.002 A 
ENDROOT
BRANCH   8  11
HETATM   11  C   UNL     1     -44.111  57.529 -51.155  1.00  0.00     0.271 C 
HETATM   12  N   UNL     1     -43.781  58.856 -50.970  1.00  0.00    -0.262 N 
HETATM   13  H   UNL     1     -42.936  59.286 -51.338  1.00  0.00     0.190 HD
HETATM   14  O   UNL     1     -45.063  56.978 -50.614  1.00  0.00    -0.266 OA
BRANCH  12  15
HETATM   15  N   UNL     1     -44.495  59.608 -50.034  1.00  0.00    -0.249 N 
HETATM   16  C   UNL     1     -45.281  60.634 -50.488  1.00  0.00     0.341 C 
HETATM   17  N   UNL     1     -45.881  61.431 -49.564  1.00  0.00    -0.286 N 
HETATM   18  O   UNL     1     -45.493  60.823 -51.689  1.00  0.00    -0.245 OA
HETATM   19  H   UNL     1     -46.485  62.152 -49.924  1.00  0.00     0.172 HD
HETATM   20  H   UNL     1     -44.092  59.678 -49.096  1.00  0.00     0.192 HD
BRANCH  17  21
HETATM   21  C   UNL     1     -45.771  61.298 -48.212  1.00  0.00     0.174 A 
HETATM   22  S   UNL     1     -45.144  62.661 -47.404  1.00  0.00    -0.062 SA
HETATM   23  C   UNL     1     -45.322  61.829 -45.914  1.00  0.00     0.072 A 
HETATM   24  C   UNL     1     -45.834  60.569 -46.147  1.00  0.00     0.126 A 
HETATM   25  N   UNL     1     -46.087  60.265 -47.471  1.00  0.00    -0.236 NA
ENDBRANCH  17  21
ENDBRANCH  12  15
ENDBRANCH   8  11
BRANCH   6  26
HETATM   26  C   UNL     1     -42.653  56.564 -55.820  1.00  0.00     0.014 A 
HETATM   27  C   UNL     1     -42.403  57.794 -56.462  1.00  0.00     0.046 A 
HETATM   28 CL   UNL     1     -42.044  59.249 -55.590  1.00  0.00    -0.083 Cl
HETATM   29  C   UNL     1     -42.481  57.908 -57.857  1.00  0.00     0.025 A 
HETATM   30  C   UNL     1     -42.827  56.808 -58.639  1.00  0.00     0.002 A 
HETATM   31  C   UNL     1     -43.101  55.589 -58.027  1.00  0.00     0.001 A 
HETATM   32  C   UNL     1     -43.015  55.472 -56.637  1.00  0.00     0.015 A 
ENDBRANCH   6  26
TORSDOF 4
ENDMDL
MODEL 6
REMARK VINA RESULT:      -8.6      4.216      6.644
REMARK  4 active torsions:
REMARK  status: ('A' for Active; 'I' for Inactive)
REMARK    1  A    between atoms: C_6  and  C_7 
REMARK    2  A    between atoms: C_15  and  C_16 
REMARK       I    between atoms: C_16  and  N_17 
REMARK    3  A    between atoms: N_17  and  N_18 
REMARK       I    between atoms: N_18  and  C_19 
REMARK       I    between atoms: C_19  and  N_20 
REMARK    4  A    between atoms: N_20  and  C_21 
ROOT
HETATM    1  C   UNL     1     -43.868  57.586 -56.973  1.00  0.00     0.001 A 
HETATM    2  C   UNL     1     -43.637  57.630 -55.599  1.00  0.00     0.015 A 
HETATM    3  C   UNL     1     -42.975  56.568 -54.929  1.00  0.00     0.009 A 
HETATM    4  C   UNL     1     -42.539  55.462 -55.682  1.00  0.00     0.068 A 
HETATM    5  N   UNL     1     -41.884  54.421 -55.143  1.00  0.00    -0.248 NA
HETATM    6  C   UNL     1     -41.620  54.404 -53.814  1.00  0.00     0.070 A 
HETATM    7  C   UNL     1     -42.042  55.423 -52.980  1.00  0.00     0.050 A 
HETATM    8  C   UNL     1     -42.692  56.525 -53.545  1.00  0.00     0.048 A 
HETATM    9  C   UNL     1     -42.781  55.442 -57.049  1.00  0.00     0.032 A 
HETATM   10  C   UNL     1     -43.439  56.487 -57.701  1.00  0.00     0.002 A 
ENDROOT
BRANCH   8  11
HETATM   11  C   UNL     1     -43.048  57.653 -52.646  1.00  0.00     0.271 C 
HETATM   12  N   UNL     1     -44.360  57.656 -52.221  1.00  0.00    -0.262 N 
HETATM   13  H   UNL     1     -45.073  57.024 -52.579  1.00  0.00     0.190 HD
HETATM   14  O   UNL     1     -42.216  58.489 -52.310  1.00  0.00    -0.266 OA
BRANCH  12  15
HETATM   15  N   UNL     1     -44.819  58.726 -51.448  1.00  0.00    -0.249 N 
HETATM   16  C   UNL     1     -45.423  59.776 -52.088  1.00  0.00     0.341 C 
HETATM   17  N   UNL     1     -45.764  60.862 -51.342  1.00  0.00    -0.286 N 
HETATM   18  O   UNL     1     -45.705  59.746 -53.288  1.00  0.00    -0.245 OA
HETATM   19  H   UNL     1     -46.243  61.602 -51.828  1.00  0.00     0.172 HD
HETATM   20  H   UNL     1     -44.324  58.906 -50.571  1.00  0.00     0.192 HD
BRANCH  17  21
HETATM   21  C   UNL     1     -45.556  60.999 -50.002  1.00  0.00     0.174 A 
HETATM   22  S   UNL     1     -44.697  62.399 -49.547  1.00  0.00    -0.062 SA
HETATM   23  C   UNL     1     -44.851  61.929 -47.904  1.00  0.00     0.072 A 
HETATM   24  C   UNL     1     -45.534  60.732 -47.828  1.00  0.00     0.126 A 
HETATM   25  N   UNL     1     -45.935  60.197 -49.037  1.00  0.00    -0.236 NA
ENDBRANCH  17  21
ENDBRANCH  12  15
ENDBRANCH   8  11
BRANCH   6  26
HETATM   26  C   UNL     1     -40.886  53.218 -53.336  1.00  0.00     0.014 A 
HETATM   27  C   UNL     1     -40.390  53.070 -52.025  1.00  0.00     0.046 A 
HETATM   28 CL   UNL     1     -40.535  54.314 -50.825  1.00  0.00    -0.083 Cl
HETATM   29  C   UNL     1     -39.703  51.911 -51.638  1.00  0.00     0.025 A 
HETATM   30  C   UNL     1     -39.481  50.883 -52.553  1.00  0.00     0.002 A 
HETATM   31  C   UNL     1     -39.939  51.014 -53.859  1.00  0.00     0.001 A 
HETATM   32  C   UNL     1     -40.631  52.166 -54.243  1.00  0.00     0.015 A 
ENDBRANCH   6  26
TORSDOF 4
ENDMDL
MODEL 7
REMARK VINA RESULT:      -8.6      4.183      6.563
REMARK  4 active torsions:
REMARK  status: ('A' for Active; 'I' for Inactive)
REMARK    1  A    between atoms: C_6  and  C_7 
REMARK    2  A    between atoms: C_15  and  C_16 
REMARK       I    between atoms: C_16  and  N_17 
REMARK    3  A    between atoms: N_17  and  N_18 
REMARK       I    between atoms: N_18  and  C_19 
REMARK       I    between atoms: C_19  and  N_20 
REMARK    4  A    between atoms: N_20  and  C_21 
ROOT
HETATM    1  C   UNL     1     -44.098  57.429 -57.254  1.00  0.00     0.001 A 
HETATM    2  C   UNL     1     -43.986  57.447 -55.865  1.00  0.00     0.015 A 
HETATM    3  C   UNL     1     -43.284  56.427 -55.170  1.00  0.00     0.009 A 
HETATM    4  C   UNL     1     -42.683  55.394 -55.912  1.00  0.00     0.068 A 
HETATM    5  N   UNL     1     -41.978  54.401 -55.347  1.00  0.00    -0.248 NA
HETATM    6  C   UNL     1     -41.825  54.361 -54.002  1.00  0.00     0.070 A 
HETATM    7  C   UNL     1     -42.410  55.307 -53.179  1.00  0.00     0.050 A 
HETATM    8  C   UNL     1     -43.114  56.362 -53.768  1.00  0.00     0.048 A 
HETATM    9  C   UNL     1     -42.807  55.400 -57.295  1.00  0.00     0.032 A 
HETATM   10  C   UNL     1     -43.507  56.401 -57.972  1.00  0.00     0.002 A 
ENDROOT
BRANCH   8  11
HETATM   11  C   UNL     1     -43.649  57.420 -52.873  1.00  0.00     0.271 C 
HETATM   12  N   UNL     1     -42.841  58.533 -52.754  1.00  0.00    -0.262 N 
HETATM   13  H   UNL     1     -41.899  58.592 -53.134  1.00  0.00     0.190 HD
HETATM   14  O   UNL     1     -44.734  57.298 -52.315  1.00  0.00    -0.266 OA
BRANCH  12  15
HETATM   15  N   UNL     1     -43.209  59.545 -51.864  1.00  0.00    -0.249 N 
HETATM   16  C   UNL     1     -42.430  59.749 -50.755  1.00  0.00     0.341 C 
HETATM   17  N   UNL     1     -42.858  60.658 -49.838  1.00  0.00    -0.286 N 
HETATM   18  O   UNL     1     -41.349  59.179 -50.593  1.00  0.00    -0.245 OA
HETATM   19  H   UNL     1     -42.247  60.819 -49.053  1.00  0.00     0.172 HD
HETATM   20  H   UNL     1     -44.206  59.771 -51.811  1.00  0.00     0.192 HD
BRANCH  17  21
HETATM   21  C   UNL     1     -44.004  61.391 -49.924  1.00  0.00     0.174 A 
HETATM   22  S   UNL     1     -45.072  61.213 -48.608  1.00  0.00    -0.062 SA
HETATM   23  C   UNL     1     -46.133  62.341 -49.349  1.00  0.00     0.072 A 
HETATM   24  C   UNL     1     -45.598  62.757 -50.551  1.00  0.00     0.126 A 
HETATM   25  N   UNL     1     -44.374  62.206 -50.881  1.00  0.00    -0.236 NA
ENDBRANCH  17  21
ENDBRANCH  12  15
ENDBRANCH   8  11
BRANCH   6  26
HETATM   26  C   UNL     1     -41.022  53.233 -53.495  1.00  0.00     0.014 A 
HETATM   27  C   UNL     1     -40.518  53.149 -52.181  1.00  0.00     0.046 A 
HETATM   28 CL   UNL     1     -40.734  54.412 -51.014  1.00  0.00    -0.083 Cl
HETATM   29  C   UNL     1     -39.765  52.041 -51.767  1.00  0.00     0.025 A 
HETATM   30  C   UNL     1     -39.484  51.005 -52.655  1.00  0.00     0.002 A 
HETATM   31  C   UNL     1     -39.950  51.075 -53.963  1.00  0.00     0.001 A 
HETATM   32  C   UNL     1     -40.708  52.175 -54.375  1.00  0.00     0.015 A 
ENDBRANCH   6  26
TORSDOF 4
ENDMDL
MODEL 8
REMARK VINA RESULT:      -8.4      3.848      8.931
REMARK  4 active torsions:
REMARK  status: ('A' for Active; 'I' for Inactive)
REMARK    1  A    between atoms: C_6  and  C_7 
REMARK    2  A    between atoms: C_15  and  C_16 
REMARK       I    between atoms: C_16  and  N_17 
REMARK    3  A    between atoms: N_17  and  N_18 
REMARK       I    between atoms: N_18  and  C_19 
REMARK       I    between atoms: C_19  and  N_20 
REMARK    4  A    between atoms: N_20  and  C_21 
ROOT
HETATM    1  C   UNL     1     -44.690  54.109 -59.999  1.00  0.00     0.001 A 
HETATM    2  C   UNL     1     -44.048  54.388 -58.794  1.00  0.00     0.015 A 
HETATM    3  C   UNL     1     -43.627  55.705 -58.472  1.00  0.00     0.009 A 
HETATM    4  C   UNL     1     -43.883  56.740 -59.390  1.00  0.00     0.068 A 
HETATM    5  N   UNL     1     -43.546  58.020 -59.164  1.00  0.00    -0.248 NA
HETATM    6  C   UNL     1     -42.925  58.361 -58.010  1.00  0.00     0.070 A 
HETATM    7  C   UNL     1     -42.592  57.412 -57.059  1.00  0.00     0.050 A 
HETATM    8  C   UNL     1     -42.974  56.085 -57.277  1.00  0.00     0.048 A 
HETATM    9  C   UNL     1     -44.526  56.436 -60.583  1.00  0.00     0.032 A 
HETATM   10  C   UNL     1     -44.929  55.137 -60.897  1.00  0.00     0.002 A 
ENDROOT
BRANCH   8  11
HETATM   11  C   UNL     1     -42.696  55.100 -56.200  1.00  0.00     0.271 C 
HETATM   12  N   UNL     1     -41.355  54.863 -55.972  1.00  0.00    -0.262 N 
HETATM   13  H   UNL     1     -40.609  55.223 -56.562  1.00  0.00     0.190 HD
HETATM   14  O   UNL     1     -43.603  54.572 -55.567  1.00  0.00    -0.266 OA
BRANCH  12  15
HETATM   15  N   UNL     1     -40.989  53.886 -55.043  1.00  0.00    -0.249 N 
HETATM   16  C   UNL     1     -40.625  54.290 -53.786  1.00  0.00     0.341 C 
HETATM   17  N   UNL     1     -40.161  53.344 -52.925  1.00  0.00    -0.286 N 
HETATM   18  O   UNL     1     -40.749  55.456 -53.404  1.00  0.00    -0.245 OA
HETATM   19  H   UNL     1     -39.939  53.660 -51.995  1.00  0.00     0.172 HD
HETATM   20  H   UNL     1     -40.582  53.025 -55.418  1.00  0.00     0.192 HD
BRANCH  17  21
HETATM   21  C   UNL     1     -40.025  52.017 -53.205  1.00  0.00     0.174 A 
HETATM   22  S   UNL     1     -39.542  51.050 -51.887  1.00  0.00    -0.062 SA
HETATM   23  C   UNL     1     -39.616  49.670 -52.905  1.00  0.00     0.072 A 
HETATM   24  C   UNL     1     -39.991  50.054 -54.176  1.00  0.00     0.126 A 
HETATM   25  N   UNL     1     -40.221  51.406 -54.347  1.00  0.00    -0.236 NA
ENDBRANCH  17  21
ENDBRANCH  12  15
ENDBRANCH   8  11
BRANCH   6  26
HETATM   26  C   UNL     1     -42.613  59.795 -57.865  1.00  0.00     0.014 A 
HETATM   27  C   UNL     1     -43.302  60.671 -57.002  1.00  0.00     0.046 A 
HETATM   28 CL   UNL     1     -44.657  60.166 -56.044  1.00  0.00    -0.083 Cl
HETATM   29  C   UNL     1     -42.948  62.024 -56.913  1.00  0.00     0.025 A 
HETATM   30  C   UNL     1     -41.913  62.537 -57.694  1.00  0.00     0.002 A 
HETATM   31  C   UNL     1     -41.234  61.699 -58.570  1.00  0.00     0.001 A 
HETATM   32  C   UNL     1     -41.581  60.348 -58.653  1.00  0.00     0.015 A 
ENDBRANCH   6  26
TORSDOF 4
ENDMDL
MODEL 9
REMARK VINA RESULT:      -8.3      4.415      7.999
REMARK  4 active torsions:
REMARK  status: ('A' for Active; 'I' for Inactive)
REMARK    1  A    between atoms: C_6  and  C_7 
REMARK    2  A    between atoms: C_15  and  C_16 
REMARK       I    between atoms: C_16  and  N_17 
REMARK    3  A    between atoms: N_17  and  N_18 
REMARK       I    between atoms: N_18  and  C_19 
REMARK       I    between atoms: C_19  and  N_20 
REMARK    4  A    between atoms: N_20  and  C_21 
ROOT
HETATM    1  C   UNL     1     -40.679  53.761 -52.200  1.00  0.00     0.001 A 
HETATM    2  C   UNL     1     -41.210  55.036 -52.381  1.00  0.00     0.015 A 
HETATM    3  C   UNL     1     -41.616  55.491 -53.663  1.00  0.00     0.009 A 
HETATM    4  C   UNL     1     -41.485  54.620 -54.761  1.00  0.00     0.068 A 
HETATM    5  N   UNL     1     -41.864  54.949 -56.006  1.00  0.00    -0.248 NA
HETATM    6  C   UNL     1     -42.394  56.171 -56.250  1.00  0.00     0.070 A 
HETATM    7  C   UNL     1     -42.527  57.115 -55.247  1.00  0.00     0.050 A 
HETATM    8  C   UNL     1     -42.168  56.762 -53.944  1.00  0.00     0.048 A 
HETATM    9  C   UNL     1     -40.955  53.353 -54.554  1.00  0.00     0.032 A 
HETATM   10  C   UNL     1     -40.550  52.916 -53.292  1.00  0.00     0.002 A 
ENDROOT
BRANCH   8  11
HETATM   11  C   UNL     1     -42.412  57.754 -52.866  1.00  0.00     0.271 C 
HETATM   12  N   UNL     1     -43.744  57.998 -52.602  1.00  0.00    -0.262 N 
HETATM   13  H   UNL     1     -44.509  57.637 -53.169  1.00  0.00     0.190 HD
HETATM   14  O   UNL     1     -41.485  58.284 -52.262  1.00  0.00    -0.266 OA
BRANCH  12  15
HETATM   15  N   UNL     1     -44.081  58.983 -51.670  1.00  0.00    -0.249 N 
HETATM   16  C   UNL     1     -45.010  58.677 -50.710  1.00  0.00     0.341 C 
HETATM   17  N   UNL     1     -45.415  59.675 -49.879  1.00  0.00    -0.286 N 
HETATM   18  O   UNL     1     -45.443  57.533 -50.550  1.00  0.00    -0.245 OA
HETATM   19  H   UNL     1     -46.067  59.414 -49.157  1.00  0.00     0.172 HD
HETATM   20  H   UNL     1     -43.997  59.955 -51.978  1.00  0.00     0.192 HD
BRANCH  17  21
HETATM   21  C   UNL     1     -44.976  60.965 -49.917  1.00  0.00     0.174 A 
HETATM   22  S   UNL     1     -46.177  62.123 -50.259  1.00  0.00    -0.062 SA
HETATM   23  C   UNL     1     -44.993  63.357 -50.115  1.00  0.00     0.072 A 
HETATM   24  C   UNL     1     -43.768  62.790 -49.831  1.00  0.00     0.126 A 
HETATM   25  N   UNL     1     -43.760  61.412 -49.721  1.00  0.00    -0.236 NA
ENDBRANCH  17  21
ENDBRANCH  12  15
ENDBRANCH   8  11
BRANCH   6  26
HETATM   26  C   UNL     1     -42.784  56.418 -57.651  1.00  0.00     0.014 A 
HETATM   27  C   UNL     1     -42.588  57.641 -58.323  1.00  0.00     0.046 A 
HETATM   28 CL   UNL     1     -41.913  59.036 -57.546  1.00  0.00    -0.083 Cl
HETATM   29  C   UNL     1     -42.980  57.802 -59.659  1.00  0.00     0.025 A 
HETATM   30  C   UNL     1     -43.591  56.756 -60.347  1.00  0.00     0.002 A 
HETATM   31  C   UNL     1     -43.817  55.547 -59.700  1.00  0.00     0.001 A 
HETATM   32  C   UNL     1     -43.419  55.383 -58.370  1.00  0.00     0.015 A 
ENDBRANCH   6  26
TORSDOF 4
ENDMDL
MODEL 10
REMARK VINA RESULT:      -8.2      2.258      5.354
REMARK  4 active torsions:
REMARK  status: ('A' for Active; 'I' for Inactive)
REMARK    1  A    between atoms: C_6  and  C_7 
REMARK    2  A    between atoms: C_15  and  C_16 
REMARK       I    between atoms: C_16  and  N_17 
REMARK    3  A    between atoms: N_17  and  N_18 
REMARK       I    between atoms: N_18  and  C_19 
REMARK       I    between atoms: C_19  and  N_20 
REMARK    4  A    between atoms: N_20  and  C_21 
ROOT
HETATM    1  C   UNL     1     -40.632  53.006 -52.718  1.00  0.00     0.001 A 
HETATM    2  C   UNL     1     -41.323  53.846 -53.588  1.00  0.00     0.015 A 
HETATM    3  C   UNL     1     -41.952  55.031 -53.124  1.00  0.00     0.009 A 
HETATM    4  C   UNL     1     -41.855  55.357 -51.759  1.00  0.00     0.068 A 
HETATM    5  N   UNL     1     -42.394  56.467 -51.230  1.00  0.00    -0.248 NA
HETATM    6  C   UNL     1     -43.074  57.331 -52.021  1.00  0.00     0.070 A 
HETATM    7  C   UNL     1     -43.261  57.082 -53.370  1.00  0.00     0.050 A 
HETATM    8  C   UNL     1     -42.670  55.946 -53.929  1.00  0.00     0.048 A 
HETATM    9  C   UNL     1     -41.159  54.504 -50.912  1.00  0.00     0.032 A 
HETATM   10  C   UNL     1     -40.551  53.335 -51.374  1.00  0.00     0.002 A 
ENDROOT
BRANCH   8  11
HETATM   11  C   UNL     1     -42.798  55.750 -55.396  1.00  0.00     0.271 C 
HETATM   12  N   UNL     1     -43.343  56.823 -56.071  1.00  0.00    -0.262 N 
HETATM   13  H   UNL     1     -43.746  57.636 -55.611  1.00  0.00     0.190 HD
HETATM   14  O   UNL     1     -42.423  54.717 -55.938  1.00  0.00    -0.266 OA
BRANCH  12  15
HETATM   15  N   UNL     1     -43.592  56.705 -57.441  1.00  0.00    -0.249 N 
HETATM   16  C   UNL     1     -42.885  57.506 -58.300  1.00  0.00     0.341 C 
HETATM   17  N   UNL     1     -43.214  57.466 -59.619  1.00  0.00    -0.286 N 
HETATM   18  O   UNL     1     -41.945  58.210 -57.924  1.00  0.00    -0.245 OA
HETATM   19  H   UNL     1     -42.652  58.033 -60.234  1.00  0.00     0.172 HD
HETATM   20  H   UNL     1     -44.531  56.403 -57.714  1.00  0.00     0.192 HD
BRANCH  17  21
HETATM   21  C   UNL     1     -44.193  56.694 -60.169  1.00  0.00     0.174 A 
HETATM   22  S   UNL     1     -45.766  57.339 -60.055  1.00  0.00    -0.062 SA
HETATM   23  C   UNL     1     -46.363  55.969 -60.900  1.00  0.00     0.072 A 
HETATM   24  C   UNL     1     -45.318  55.117 -61.193  1.00  0.00     0.126 A 
HETATM   25  N   UNL     1     -44.071  55.535 -60.767  1.00  0.00    -0.236 NA
ENDBRANCH  17  21
ENDBRANCH  12  15
ENDBRANCH   8  11
BRANCH   6  26
HETATM   26  C   UNL     1     -43.612  58.520 -51.335  1.00  0.00     0.014 A 
HETATM   27  C   UNL     1     -42.831  59.622 -50.934  1.00  0.00     0.046 A 
HETATM   28 CL   UNL     1     -41.111  59.677 -51.149  1.00  0.00    -0.083 Cl
HETATM   29  C   UNL     1     -43.412  60.723 -50.289  1.00  0.00     0.025 A 
HETATM   30  C   UNL     1     -44.778  60.740 -50.014  1.00  0.00     0.002 A 
HETATM   31  C   UNL     1     -45.567  59.655 -50.378  1.00  0.00     0.001 A 
HETATM   32  C   UNL     1     -44.989  58.561 -51.029  1.00  0.00     0.015 A 
ENDBRANCH   6  26
TORSDOF 4
ENDMDL
