MODEL 1
REMARK VINA RESULT:      -7.9      0.000      0.000
REMARK  3 active torsions:
REMARK  status: ('A' for Active; 'I' for Inactive)
REMARK    1  A    between atoms: C_2  and  N_3 
REMARK    2  A    between atoms: C_2  and  C_10 
REMARK    3  A    between atoms: C_13  and  C_14 
ROOT
HETATM    1  C   UNL     1     -41.368  57.503 -51.379  1.00  0.00    -0.028 A 
HETATM    2  C   UNL     1     -41.259  57.012 -52.690  1.00  0.00     0.010 A 
HETATM    3  C   UNL     1     -40.973  55.661 -52.933  1.00  0.00     0.013 A 
HETATM    4  C   UNL     1     -40.798  54.752 -51.879  1.00  0.00    -0.024 A 
HETATM    5  C   UNL     1     -40.940  55.243 -50.572  1.00  0.00     0.013 A 
HETATM    6  C   UNL     1     -41.215  56.594 -50.324  1.00  0.00     0.010 A 
ENDROOT
BRANCH   4   7
HETATM    7  C   UNL     1     -40.447  53.341 -52.129  1.00  0.00    -0.006 A 
HETATM    8  C   UNL     1     -40.159  52.466 -51.068  1.00  0.00     0.131 A 
HETATM    9  N   UNL     1     -39.827  51.157 -51.155  1.00  0.00    -0.239 NA
HETATM   10  C   UNL     1     -39.770  50.684 -52.416  1.00  0.00     0.177 A 
HETATM   11  C   UNL     1     -40.030  51.467 -53.533  1.00  0.00     0.082 A 
HETATM   12  N   UNL     1     -39.454  49.403 -52.768  1.00  0.00    -0.222 NA
HETATM   13  N   UNL     1     -39.858  50.609 -54.588  1.00  0.00    -0.348 N 
HETATM   14  C   UNL     1     -40.378  52.815 -53.430  1.00  0.00     0.047 A 
HETATM   15  H   UNL     1     -39.960  50.830 -55.568  1.00  0.00     0.167 HD
HETATM   16  C   UNL     1     -39.513  49.386 -54.079  1.00  0.00     0.210 A 
ENDBRANCH   4   7
BRANCH   1  17
HETATM   17  C   UNL     1     -41.652  58.981 -51.156  1.00  0.00     0.217 C 
HETATM   18  C   UNL     1     -40.647  59.696 -50.247  1.00  0.00     0.045 C 
BRANCH  17  19
HETATM   19  N   UNL     1     -43.095  59.221 -50.706  1.00  0.00    -0.063 N 
HETATM   20  H   UNL     1     -43.165  58.702 -49.820  1.00  0.00     0.280 HD
HETATM   21  C   UNL     1     -43.434  60.656 -50.365  1.00  0.00     0.235 C 
HETATM   22  C   UNL     1     -44.814  60.711 -49.720  1.00  0.00     0.028 C 
HETATM   23  C   UNL     1     -45.878  60.080 -50.609  1.00  0.00     0.003 C 
HETATM   24  C   UNL     1     -45.492  58.658 -51.001  1.00  0.00     0.028 C 
HETATM   25  C   UNL     1     -44.112  58.608 -51.642  1.00  0.00     0.235 C 
ENDBRANCH  17  19
ENDBRANCH   1  17
TORSDOF 3
ENDMDL
MODEL 2
REMARK VINA RESULT:      -7.8      4.596      5.776
REMARK  3 active torsions:
REMARK  status: ('A' for Active; 'I' for Inactive)
REMARK    1  A    between atoms: C_2  and  N_3 
REMARK    2  A    between atoms: C_2  and  C_10 
REMARK    3  A    between atoms: C_13  and  C_14 
ROOT
HETATM    1  C   UNL     1     -42.578  56.137 -56.228  1.00  0.00    -0.028 A 
HETATM    2  C   UNL     1     -43.235  54.911 -56.036  1.00  0.00     0.010 A 
HETATM    3  C   UNL     1     -42.697  53.928 -55.193  1.00  0.00     0.013 A 
HETATM    4  C   UNL     1     -41.493  54.138 -54.505  1.00  0.00    -0.024 A 
HETATM    5  C   UNL     1     -40.858  55.377 -54.676  1.00  0.00     0.013 A 
HETATM    6  C   UNL     1     -41.386  56.359 -55.525  1.00  0.00     0.010 A 
ENDROOT
BRANCH   4   7
HETATM    7  C   UNL     1     -40.897  53.087 -53.658  1.00  0.00    -0.006 A 
HETATM    8  C   UNL     1     -40.593  53.331 -52.308  1.00  0.00     0.131 A 
HETATM    9  N   UNL     1     -40.051  52.462 -51.423  1.00  0.00    -0.239 NA
HETATM   10  C   UNL     1     -39.779  51.245 -51.938  1.00  0.00     0.177 A 
HETATM   11  C   UNL     1     -40.035  50.906 -53.260  1.00  0.00     0.082 A 
HETATM   12  N   UNL     1     -39.228  50.200 -51.253  1.00  0.00    -0.222 NA
HETATM   13  N   UNL     1     -39.614  49.606 -53.357  1.00  0.00    -0.348 N 
HETATM   14  C   UNL     1     -40.602  51.809 -54.161  1.00  0.00     0.047 A 
HETATM   15  H   UNL     1     -39.641  49.023 -54.182  1.00  0.00     0.167 HD
HETATM   16  C   UNL     1     -39.137  49.229 -52.131  1.00  0.00     0.210 A 
ENDBRANCH   4   7
BRANCH   1  17
HETATM   17  C   UNL     1     -43.180  57.168 -57.171  1.00  0.00     0.217 C 
HETATM   18  C   UNL     1     -43.825  58.371 -56.478  1.00  0.00     0.045 C 
BRANCH  17  19
HETATM   19  N   UNL     1     -44.126  56.525 -58.188  1.00  0.00    -0.063 N 
HETATM   20  H   UNL     1     -44.611  55.797 -57.646  1.00  0.00     0.280 HD
HETATM   21  C   UNL     1     -45.215  57.431 -58.720  1.00  0.00     0.235 C 
HETATM   22  C   UNL     1     -46.208  56.608 -59.532  1.00  0.00     0.028 C 
HETATM   23  C   UNL     1     -45.520  55.842 -60.655  1.00  0.00     0.003 C 
HETATM   24  C   UNL     1     -44.381  54.984 -60.115  1.00  0.00     0.028 C 
HETATM   25  C   UNL     1     -43.393  55.810 -59.302  1.00  0.00     0.235 C 
ENDBRANCH  17  19
ENDBRANCH   1  17
TORSDOF 3
ENDMDL
MODEL 3
REMARK VINA RESULT:      -7.5      5.039      6.555
REMARK  3 active torsions:
REMARK  status: ('A' for Active; 'I' for Inactive)
REMARK    1  A    between atoms: C_2  and  N_3 
REMARK    2  A    between atoms: C_2  and  C_10 
REMARK    3  A    between atoms: C_13  and  C_14 
ROOT
HETATM    1  C   UNL     1     -42.703  56.368 -56.781  1.00  0.00    -0.028 A 
HETATM    2  C   UNL     1     -42.777  55.034 -56.348  1.00  0.00     0.010 A 
HETATM    3  C   UNL     1     -42.563  54.700 -55.003  1.00  0.00     0.013 A 
HETATM    4  C   UNL     1     -42.281  55.684 -54.043  1.00  0.00    -0.024 A 
HETATM    5  C   UNL     1     -42.241  57.017 -54.477  1.00  0.00     0.013 A 
HETATM    6  C   UNL     1     -42.443  57.356 -55.821  1.00  0.00     0.010 A 
ENDROOT
BRANCH   4   7
HETATM    7  C   UNL     1     -42.006  55.332 -52.637  1.00  0.00    -0.006 A 
HETATM    8  C   UNL     1     -42.493  56.122 -51.583  1.00  0.00     0.131 A 
HETATM    9  N   UNL     1     -42.318  55.914 -50.257  1.00  0.00    -0.239 NA
HETATM   10  C   UNL     1     -41.582  54.824 -49.961  1.00  0.00     0.177 A 
HETATM   11  C   UNL     1     -41.050  53.981 -50.928  1.00  0.00     0.082 A 
HETATM   12  N   UNL     1     -41.262  54.402 -48.702  1.00  0.00    -0.222 NA
HETATM   13  N   UNL     1     -40.385  53.024 -50.206  1.00  0.00    -0.348 N 
HETATM   14  C   UNL     1     -41.244  54.203 -52.293  1.00  0.00     0.047 A 
HETATM   15  H   UNL     1     -39.868  52.240 -50.577  1.00  0.00     0.167 HD
HETATM   16  C   UNL     1     -40.540  53.320 -48.879  1.00  0.00     0.210 A 
ENDBRANCH   4   7
BRANCH   1  17
HETATM   17  C   UNL     1     -42.913  56.688 -58.253  1.00  0.00     0.217 C 
HETATM   18  C   UNL     1     -42.324  58.026 -58.709  1.00  0.00     0.045 C 
BRANCH  17  19
HETATM   19  N   UNL     1     -44.382  56.547 -58.662  1.00  0.00    -0.063 N 
HETATM   20  H   UNL     1     -44.768  55.894 -57.968  1.00  0.00     0.280 HD
HETATM   21  C   UNL     1     -45.209  57.808 -58.543  1.00  0.00     0.235 C 
HETATM   22  C   UNL     1     -46.680  57.471 -58.756  1.00  0.00     0.028 C 
HETATM   23  C   UNL     1     -46.911  56.775 -60.092  1.00  0.00     0.003 C 
HETATM   24  C   UNL     1     -46.022  55.544 -60.230  1.00  0.00     0.028 C 
HETATM   25  C   UNL     1     -44.554  55.885 -60.012  1.00  0.00     0.235 C 
ENDBRANCH  17  19
ENDBRANCH   1  17
TORSDOF 3
ENDMDL
MODEL 4
REMARK VINA RESULT:      -7.5      4.299      7.951
REMARK  3 active torsions:
REMARK  status: ('A' for Active; 'I' for Inactive)
REMARK    1  A    between atoms: C_2  and  N_3 
REMARK    2  A    between atoms: C_2  and  C_10 
REMARK    3  A    between atoms: C_13  and  C_14 
ROOT
HETATM    1  C   UNL     1     -41.462  54.147 -52.494  1.00  0.00    -0.028 A 
HETATM    2  C   UNL     1     -40.615  54.843 -53.371  1.00  0.00     0.010 A 
HETATM    3  C   UNL     1     -41.119  55.457 -54.527  1.00  0.00     0.013 A 
HETATM    4  C   UNL     1     -42.486  55.407 -54.841  1.00  0.00    -0.024 A 
HETATM    5  C   UNL     1     -43.331  54.738 -53.944  1.00  0.00     0.013 A 
HETATM    6  C   UNL     1     -42.831  54.114 -52.793  1.00  0.00     0.010 A 
ENDROOT
BRANCH   4   7
HETATM    7  C   UNL     1     -43.012  56.008 -56.081  1.00  0.00    -0.006 A 
HETATM    8  C   UNL     1     -43.644  57.263 -56.068  1.00  0.00     0.131 A 
HETATM    9  N   UNL     1     -44.167  57.926 -57.126  1.00  0.00    -0.239 NA
HETATM   10  C   UNL     1     -44.056  57.270 -58.299  1.00  0.00     0.177 A 
HETATM   11  C   UNL     1     -43.456  56.023 -58.418  1.00  0.00     0.082 A 
HETATM   12  N   UNL     1     -44.507  57.723 -59.505  1.00  0.00    -0.222 NA
HETATM   13  N   UNL     1     -43.560  55.730 -59.753  1.00  0.00    -0.348 N 
HETATM   14  C   UNL     1     -42.914  55.353 -57.320  1.00  0.00     0.047 A 
HETATM   15  H   UNL     1     -43.234  54.893 -60.214  1.00  0.00     0.167 HD
HETATM   16  C   UNL     1     -44.198  56.778 -60.361  1.00  0.00     0.210 A 
ENDBRANCH   4   7
BRANCH   1  17
HETATM   17  C   UNL     1     -40.874  53.471 -51.265  1.00  0.00     0.217 C 
HETATM   18  C   UNL     1     -40.016  54.383 -50.382  1.00  0.00     0.045 C 
BRANCH  17  19
HETATM   19  N   UNL     1     -40.140  52.177 -51.624  1.00  0.00    -0.063 N 
HETATM   20  H   UNL     1     -39.147  52.444 -51.609  1.00  0.00     0.280 HD
HETATM   21  C   UNL     1     -40.276  51.057 -50.615  1.00  0.00     0.235 C 
HETATM   22  C   UNL     1     -39.321  49.927 -50.980  1.00  0.00     0.028 C 
HETATM   23  C   UNL     1     -39.552  49.430 -52.402  1.00  0.00     0.003 C 
HETATM   24  C   UNL     1     -39.481  50.579 -53.402  1.00  0.00     0.028 C 
HETATM   25  C   UNL     1     -40.434  51.706 -53.031  1.00  0.00     0.235 C 
ENDBRANCH  17  19
ENDBRANCH   1  17
TORSDOF 3
ENDMDL
MODEL 5
REMARK VINA RESULT:      -7.4      4.201      5.399
REMARK  3 active torsions:
REMARK  status: ('A' for Active; 'I' for Inactive)
REMARK    1  A    between atoms: C_2  and  N_3 
REMARK    2  A    between atoms: C_2  and  C_10 
REMARK    3  A    between atoms: C_13  and  C_14 
ROOT
HETATM    1  C   UNL     1     -42.501  56.963 -55.631  1.00  0.00    -0.028 A 
HETATM    2  C   UNL     1     -41.708  57.112 -54.481  1.00  0.00     0.010 A 
HETATM    3  C   UNL     1     -41.158  55.997 -53.834  1.00  0.00     0.013 A 
HETATM    4  C   UNL     1     -41.369  54.696 -54.317  1.00  0.00    -0.024 A 
HETATM    5  C   UNL     1     -42.135  54.557 -55.484  1.00  0.00     0.013 A 
HETATM    6  C   UNL     1     -42.695  55.667 -56.129  1.00  0.00     0.010 A 
ENDROOT
BRANCH   4   7
HETATM    7  C   UNL     1     -40.834  53.517 -53.610  1.00  0.00    -0.006 A 
HETATM    8  C   UNL     1     -40.470  53.587 -52.255  1.00  0.00     0.131 A 
HETATM    9  N   UNL     1     -39.973  52.587 -51.490  1.00  0.00    -0.239 NA
HETATM   10  C   UNL     1     -39.817  51.417 -52.142  1.00  0.00     0.177 A 
HETATM   11  C   UNL     1     -40.139  51.246 -53.482  1.00  0.00     0.082 A 
HETATM   12  N   UNL     1     -39.331  50.264 -51.595  1.00  0.00    -0.222 NA
HETATM   13  N   UNL     1     -39.827  49.935 -53.734  1.00  0.00    -0.348 N 
HETATM   14  C   UNL     1     -40.658  52.283 -54.259  1.00  0.00     0.047 A 
HETATM   15  H   UNL     1     -39.926  49.450 -54.614  1.00  0.00     0.167 HD
HETATM   16  C   UNL     1     -39.345  49.390 -52.574  1.00  0.00     0.210 A 
ENDBRANCH   4   7
BRANCH   1  17
HETATM   17  C   UNL     1     -43.103  58.194 -56.289  1.00  0.00     0.217 C 
HETATM   18  C   UNL     1     -44.439  58.650 -55.694  1.00  0.00     0.045 C 
BRANCH  17  19
HETATM   19  N   UNL     1     -43.181  58.046 -57.811  1.00  0.00    -0.063 N 
HETATM   20  H   UNL     1     -43.259  57.031 -57.955  1.00  0.00     0.280 HD
HETATM   21  C   UNL     1     -44.412  58.646 -58.456  1.00  0.00     0.235 C 
HETATM   22  C   UNL     1     -44.472  58.227 -59.920  1.00  0.00     0.028 C 
HETATM   23  C   UNL     1     -43.202  58.614 -60.669  1.00  0.00     0.003 C 
HETATM   24  C   UNL     1     -41.964  58.061 -59.972  1.00  0.00     0.028 C 
HETATM   25  C   UNL     1     -41.911  58.479 -58.509  1.00  0.00     0.235 C 
ENDBRANCH  17  19
ENDBRANCH   1  17
TORSDOF 3
ENDMDL
MODEL 6
REMARK VINA RESULT:      -7.4      1.752      8.653
REMARK  3 active torsions:
REMARK  status: ('A' for Active; 'I' for Inactive)
REMARK    1  A    between atoms: C_2  and  N_3 
REMARK    2  A    between atoms: C_2  and  C_10 
REMARK    3  A    between atoms: C_13  and  C_14 
ROOT
HETATM    1  C   UNL     1     -41.201  55.060 -53.220  1.00  0.00    -0.028 A 
HETATM    2  C   UNL     1     -42.487  54.732 -52.761  1.00  0.00     0.010 A 
HETATM    3  C   UNL     1     -43.324  55.709 -52.202  1.00  0.00     0.013 A 
HETATM    4  C   UNL     1     -42.912  57.046 -52.092  1.00  0.00    -0.024 A 
HETATM    5  C   UNL     1     -41.639  57.372 -52.582  1.00  0.00     0.013 A 
HETATM    6  C   UNL     1     -40.795  56.398 -53.132  1.00  0.00     0.010 A 
ENDROOT
BRANCH   4   7
HETATM    7  C   UNL     1     -43.769  58.066 -51.459  1.00  0.00    -0.006 A 
HETATM    8  C   UNL     1     -45.073  57.757 -51.036  1.00  0.00     0.131 A 
HETATM    9  N   UNL     1     -45.959  58.590 -50.443  1.00  0.00    -0.239 NA
HETATM   10  C   UNL     1     -45.503  59.847 -50.266  1.00  0.00     0.177 A 
HETATM   11  C   UNL     1     -44.233  60.256 -50.654  1.00  0.00     0.082 A 
HETATM   12  N   UNL     1     -46.204  60.871 -49.696  1.00  0.00    -0.222 NA
HETATM   13  N   UNL     1     -44.188  61.579 -50.300  1.00  0.00    -0.348 N 
HETATM   14  C   UNL     1     -43.326  59.384 -51.259  1.00  0.00     0.047 A 
HETATM   15  H   UNL     1     -43.413  62.212 -50.433  1.00  0.00     0.167 HD
HETATM   16  C   UNL     1     -45.391  61.901 -49.732  1.00  0.00     0.210 A 
ENDBRANCH   4   7
BRANCH   1  17
HETATM   17  C   UNL     1     -40.312  53.967 -53.795  1.00  0.00     0.217 C 
HETATM   18  C   UNL     1     -40.565  53.647 -55.271  1.00  0.00     0.045 C 
BRANCH  17  19
HETATM   19  N   UNL     1     -40.330  52.705 -52.930  1.00  0.00    -0.063 N 
HETATM   20  H   UNL     1     -41.323  52.439 -52.904  1.00  0.00     0.280 HD
HETATM   21  C   UNL     1     -39.602  51.513 -53.512  1.00  0.00     0.235 C 
HETATM   22  C   UNL     1     -39.894  50.278 -52.667  1.00  0.00     0.028 C 
HETATM   23  C   UNL     1     -39.528  50.498 -51.204  1.00  0.00     0.003 C 
HETATM   24  C   UNL     1     -40.213  51.741 -50.648  1.00  0.00     0.028 C 
HETATM   25  C   UNL     1     -39.922  52.970 -51.497  1.00  0.00     0.235 C 
ENDBRANCH  17  19
ENDBRANCH   1  17
TORSDOF 3
ENDMDL
MODEL 7
REMARK VINA RESULT:      -7.3      4.679      8.123
REMARK  3 active torsions:
REMARK  status: ('A' for Active; 'I' for Inactive)
REMARK    1  A    between atoms: C_2  and  N_3 
REMARK    2  A    between atoms: C_2  and  C_10 
REMARK    3  A    between atoms: C_13  and  C_14 
ROOT
HETATM    1  C   UNL     1     -40.921  53.468 -54.284  1.00  0.00    -0.028 A 
HETATM    2  C   UNL     1     -40.339  54.630 -54.815  1.00  0.00     0.010 A 
HETATM    3  C   UNL     1     -41.088  55.518 -55.601  1.00  0.00     0.013 A 
HETATM    4  C   UNL     1     -42.444  55.284 -55.873  1.00  0.00    -0.024 A 
HETATM    5  C   UNL     1     -43.027  54.138 -55.313  1.00  0.00     0.013 A 
HETATM    6  C   UNL     1     -42.282  53.242 -54.536  1.00  0.00     0.010 A 
ENDROOT
BRANCH   4   7
HETATM    7  C   UNL     1     -43.222  56.189 -56.741  1.00  0.00    -0.006 A 
HETATM    8  C   UNL     1     -43.947  57.265 -56.202  1.00  0.00     0.131 A 
HETATM    9  N   UNL     1     -44.696  58.166 -56.879  1.00  0.00    -0.239 NA
HETATM   10  C   UNL     1     -44.729  57.968 -58.212  1.00  0.00     0.177 A 
HETATM   11  C   UNL     1     -44.054  56.930 -58.842  1.00  0.00     0.082 A 
HETATM   12  N   UNL     1     -45.415  58.734 -59.110  1.00  0.00    -0.222 NA
HETATM   13  N   UNL     1     -44.357  57.094 -60.169  1.00  0.00    -0.348 N 
HETATM   14  C   UNL     1     -43.279  56.011 -58.133  1.00  0.00     0.047 A 
HETATM   15  H   UNL     1     -44.043  56.516 -60.935  1.00  0.00     0.167 HD
HETATM   16  C   UNL     1     -45.176  58.186 -60.278  1.00  0.00     0.210 A 
ENDBRANCH   4   7
BRANCH   1  17
HETATM   17  C   UNL     1     -40.069  52.515 -53.459  1.00  0.00     0.217 C 
HETATM   18  C   UNL     1     -39.975  51.092 -54.019  1.00  0.00     0.045 C 
BRANCH  17  19
HETATM   19  N   UNL     1     -40.477  52.518 -51.984  1.00  0.00    -0.063 N 
HETATM   20  H   UNL     1     -41.481  52.291 -52.006  1.00  0.00     0.280 HD
HETATM   21  C   UNL     1     -39.835  51.444 -51.134  1.00  0.00     0.235 C 
HETATM   22  C   UNL     1     -40.498  51.419 -49.762  1.00  0.00     0.028 C 
HETATM   23  C   UNL     1     -40.438  52.781 -49.082  1.00  0.00     0.003 C 
HETATM   24  C   UNL     1     -41.027  53.866 -49.976  1.00  0.00     0.028 C 
HETATM   25  C   UNL     1     -40.364  53.886 -51.346  1.00  0.00     0.235 C 
ENDBRANCH  17  19
ENDBRANCH   1  17
TORSDOF 3
ENDMDL
MODEL 8
REMARK VINA RESULT:      -7.2      1.402      2.467
REMARK  3 active torsions:
REMARK  status: ('A' for Active; 'I' for Inactive)
REMARK    1  A    between atoms: C_2  and  N_3 
REMARK    2  A    between atoms: C_2  and  C_10 
REMARK    3  A    between atoms: C_13  and  C_14 
ROOT
HETATM    1  C   UNL     1     -42.034  57.262 -53.664  1.00  0.00    -0.028 A 
HETATM    2  C   UNL     1     -41.772  56.707 -52.401  1.00  0.00     0.010 A 
HETATM    3  C   UNL     1     -41.302  55.392 -52.275  1.00  0.00     0.013 A 
HETATM    4  C   UNL     1     -41.066  54.590 -53.401  1.00  0.00    -0.024 A 
HETATM    5  C   UNL     1     -41.300  55.162 -54.661  1.00  0.00     0.013 A 
HETATM    6  C   UNL     1     -41.779  56.471 -54.793  1.00  0.00     0.010 A 
ENDROOT
BRANCH   4   7
HETATM    7  C   UNL     1     -40.620  53.190 -53.270  1.00  0.00    -0.006 A 
HETATM    8  C   UNL     1     -40.464  52.370 -54.400  1.00  0.00     0.131 A 
HETATM    9  N   UNL     1     -40.063  51.078 -54.423  1.00  0.00    -0.239 NA
HETATM   10  C   UNL     1     -39.803  50.558 -53.206  1.00  0.00     0.177 A 
HETATM   11  C   UNL     1     -39.933  51.282 -52.028  1.00  0.00     0.082 A 
HETATM   12  N   UNL     1     -39.389  49.280 -52.963  1.00  0.00    -0.222 NA
HETATM   13  N   UNL     1     -39.582  50.389 -51.049  1.00  0.00    -0.348 N 
HETATM   14  C   UNL     1     -40.341  52.617 -52.018  1.00  0.00     0.047 A 
HETATM   15  H   UNL     1     -39.561  50.562 -50.055  1.00  0.00     0.167 HD
HETATM   16  C   UNL     1     -39.266  49.205 -51.658  1.00  0.00     0.210 A 
ENDBRANCH   4   7
BRANCH   1  17
HETATM   17  C   UNL     1     -42.570  58.682 -53.760  1.00  0.00     0.217 C 
HETATM   18  C   UNL     1     -41.669  59.656 -54.526  1.00  0.00     0.045 C 
BRANCH  17  19
HETATM   19  N   UNL     1     -42.965  59.236 -52.389  1.00  0.00    -0.063 N 
HETATM   20  H   UNL     1     -42.682  58.494 -51.734  1.00  0.00     0.280 HD
HETATM   21  C   UNL     1     -42.215  60.475 -51.952  1.00  0.00     0.235 C 
HETATM   22  C   UNL     1     -42.539  60.775 -50.493  1.00  0.00     0.028 C 
HETATM   23  C   UNL     1     -44.039  60.920 -50.267  1.00  0.00     0.003 C 
HETATM   24  C   UNL     1     -44.790  59.694 -50.773  1.00  0.00     0.028 C 
HETATM   25  C   UNL     1     -44.461  59.396 -52.229  1.00  0.00     0.235 C 
ENDBRANCH  17  19
ENDBRANCH   1  17
TORSDOF 3
ENDMDL
MODEL 9
REMARK VINA RESULT:      -7.2      3.624      8.189
REMARK  3 active torsions:
REMARK  status: ('A' for Active; 'I' for Inactive)
REMARK    1  A    between atoms: C_2  and  N_3 
REMARK    2  A    between atoms: C_2  and  C_10 
REMARK    3  A    between atoms: C_13  and  C_14 
ROOT
HETATM    1  C   UNL     1     -41.385  54.174 -51.981  1.00  0.00    -0.028 A 
HETATM    2  C   UNL     1     -42.769  54.049 -52.180  1.00  0.00     0.010 A 
HETATM    3  C   UNL     1     -43.420  54.768 -53.192  1.00  0.00     0.013 A 
HETATM    4  C   UNL     1     -42.713  55.626 -54.047  1.00  0.00    -0.024 A 
HETATM    5  C   UNL     1     -41.325  55.721 -53.863  1.00  0.00     0.013 A 
HETATM    6  C   UNL     1     -40.671  55.013 -52.847  1.00  0.00     0.010 A 
ENDROOT
BRANCH   4   7
HETATM    7  C   UNL     1     -43.402  56.423 -55.080  1.00  0.00    -0.006 A 
HETATM    8  C   UNL     1     -43.002  56.366 -56.426  1.00  0.00     0.131 A 
HETATM    9  N   UNL     1     -43.544  57.038 -57.468  1.00  0.00    -0.239 NA
HETATM   10  C   UNL     1     -44.570  57.845 -57.132  1.00  0.00     0.177 A 
HETATM   11  C   UNL     1     -45.037  57.978 -55.831  1.00  0.00     0.082 A 
HETATM   12  N   UNL     1     -45.278  58.629 -57.998  1.00  0.00    -0.222 NA
HETATM   13  N   UNL     1     -46.063  58.881 -55.937  1.00  0.00    -0.348 N 
HETATM   14  C   UNL     1     -44.474  57.274 -54.765  1.00  0.00     0.047 A 
HETATM   15  H   UNL     1     -46.641  59.228 -55.184  1.00  0.00     0.167 HD
HETATM   16  C   UNL     1     -46.168  59.242 -57.253  1.00  0.00     0.210 A 
ENDBRANCH   4   7
BRANCH   1  17
HETATM   17  C   UNL     1     -40.718  53.398 -50.855  1.00  0.00     0.217 C 
HETATM   18  C   UNL     1     -39.774  54.226 -49.978  1.00  0.00     0.045 C 
BRANCH  17  19
HETATM   19  N   UNL     1     -40.045  52.121 -51.363  1.00  0.00    -0.063 N 
HETATM   20  H   UNL     1     -39.040  52.330 -51.297  1.00  0.00     0.280 HD
HETATM   21  C   UNL     1     -40.264  50.891 -50.509  1.00  0.00     0.235 C 
HETATM   22  C   UNL     1     -39.360  49.766 -50.999  1.00  0.00     0.028 C 
HETATM   23  C   UNL     1     -39.583  49.468 -52.477  1.00  0.00     0.003 C 
HETATM   24  C   UNL     1     -39.426  50.729 -53.320  1.00  0.00     0.028 C 
HETATM   25  C   UNL     1     -40.328  51.850 -52.825  1.00  0.00     0.235 C 
ENDBRANCH  17  19
ENDBRANCH   1  17
TORSDOF 3
ENDMDL
MODEL 10
REMARK VINA RESULT:      -7.1      4.779      7.897
REMARK  3 active torsions:
REMARK  status: ('A' for Active; 'I' for Inactive)
REMARK    1  A    between atoms: C_2  and  N_3 
REMARK    2  A    between atoms: C_2  and  C_10 
REMARK    3  A    between atoms: C_13  and  C_14 
ROOT
HETATM    1  C   UNL     1     -41.003  54.175 -54.086  1.00  0.00    -0.028 A 
HETATM    2  C   UNL     1     -42.058  53.537 -54.759  1.00  0.00     0.010 A 
HETATM    3  C   UNL     1     -42.804  54.212 -55.736  1.00  0.00     0.013 A 
HETATM    4  C   UNL     1     -42.517  55.540 -56.084  1.00  0.00    -0.024 A 
HETATM    5  C   UNL     1     -41.442  56.161 -55.431  1.00  0.00     0.013 A 
HETATM    6  C   UNL     1     -40.700  55.496 -54.447  1.00  0.00     0.010 A 
ENDROOT
BRANCH   4   7
HETATM    7  C   UNL     1     -43.331  56.269 -57.075  1.00  0.00    -0.006 A 
HETATM    8  C   UNL     1     -43.492  55.781 -58.382  1.00  0.00     0.131 A 
HETATM    9  N   UNL     1     -44.208  56.344 -59.383  1.00  0.00    -0.239 NA
HETATM   10  C   UNL     1     -44.809  57.504 -59.048  1.00  0.00     0.177 A 
HETATM   11  C   UNL     1     -44.707  58.075 -57.786  1.00  0.00     0.082 A 
HETATM   12  N   UNL     1     -45.581  58.265 -59.878  1.00  0.00    -0.222 NA
HETATM   13  N   UNL     1     -45.450  59.223 -57.880  1.00  0.00    -0.348 N 
HETATM   14  C   UNL     1     -43.971  57.480 -56.760  1.00  0.00     0.047 A 
HETATM   15  H   UNL     1     -45.603  59.903 -57.149  1.00  0.00     0.167 HD
HETATM   16  C   UNL     1     -45.951  59.293 -59.151  1.00  0.00     0.210 A 
ENDBRANCH   4   7
BRANCH   1  17
HETATM   17  C   UNL     1     -40.235  53.420 -53.013  1.00  0.00     0.217 C 
HETATM   18  C   UNL     1     -40.407  51.898 -53.053  1.00  0.00     0.045 C 
BRANCH  17  19
HETATM   19  N   UNL     1     -40.504  53.984 -51.616  1.00  0.00    -0.063 N 
HETATM   20  H   UNL     1     -40.313  54.990 -51.717  1.00  0.00     0.280 HD
HETATM   21  C   UNL     1     -41.939  53.886 -51.146  1.00  0.00     0.235 C 
HETATM   22  C   UNL     1     -42.106  54.684 -49.857  1.00  0.00     0.028 C 
HETATM   23  C   UNL     1     -41.131  54.224 -48.780  1.00  0.00     0.003 C 
HETATM   24  C   UNL     1     -39.694  54.262 -49.288  1.00  0.00     0.028 C 
HETATM   25  C   UNL     1     -39.534  53.468 -50.577  1.00  0.00     0.235 C 
ENDBRANCH  17  19
ENDBRANCH   1  17
TORSDOF 3
ENDMDL
