MODEL 1
REMARK VINA RESULT:      -6.9      0.000      0.000
REMARK  8 active torsions:
REMARK  status: ('A' for Active; 'I' for Inactive)
REMARK    1  A    between atoms: C_4  and  C_5 
REMARK    2  A    between atoms: C_5  and  N_6 
REMARK    3  A    between atoms: N_6  and  C_9 
REMARK    4  A    between atoms: C_9  and  C_10 
REMARK    5  A    between atoms: C_10  and  C_11 
REMARK    6  A    between atoms: C_11  and  N_12 
REMARK       I    between atoms: N_12  and  C_13 
REMARK    7  A    between atoms: C_13  and  C_14 
REMARK    8  A    between atoms: C_16  and  O_17 
ROOT
HETATM    1  C   UNL     1     -43.932  55.499 -54.475  1.00  0.00     0.047 C 
ENDROOT
BRANCH   1   2
HETATM    2  C   UNL     1     -43.947  56.978 -54.114  1.00  0.00     0.235 C 
BRANCH   2   3
HETATM    3  N   UNL     1     -42.830  57.309 -53.176  1.00  0.00    -0.067 N 
HETATM    4  H   UNL     1     -42.386  58.188 -53.486  1.00  0.00     0.277 HD
HETATM    5  H   UNL     1     -42.072  56.616 -53.225  1.00  0.00     0.277 HD
BRANCH   3   6
HETATM    6  C   UNL     1     -43.207  57.482 -51.727  1.00  0.00     0.223 C 
HETATM    7  C   UNL     1     -44.726  57.594 -51.593  1.00  0.00     0.046 C 
BRANCH   6   8
HETATM    8  C   UNL     1     -42.681  56.365 -50.882  1.00  0.00     0.032 A 
HETATM    9  S   UNL     1     -41.144  56.434 -50.111  1.00  0.00    -0.076 SA
HETATM   10  C   UNL     1     -41.383  54.844 -49.500  1.00  0.00     0.071 A 
HETATM   11  C   UNL     1     -40.340  54.176 -48.671  1.00  0.00     0.078 C 
HETATM   12  N   UNL     1     -42.533  54.293 -49.822  1.00  0.00    -0.257 NA
HETATM   13  C   UNL     1     -43.268  55.145 -50.613  1.00  0.00     0.134 A 
ENDBRANCH   6   8
ENDBRANCH   3   6
ENDBRANCH   2   3
ENDBRANCH   1   2
BRANCH   1  14
HETATM   14  C   UNL     1     -42.725  55.113 -55.330  1.00  0.00     0.124 C 
BRANCH  14  15
HETATM   15  N   UNL     1     -42.075  53.917 -54.853  1.00  0.00    -0.357 N 
HETATM   16  C   UNL     1     -41.096  53.975 -53.880  1.00  0.00     0.251 C 
HETATM   17  O   UNL     1     -40.679  55.038 -53.433  1.00  0.00    -0.268 OA
HETATM   18  H   UNL     1     -42.289  53.025 -55.287  1.00  0.00     0.162 HD
BRANCH  16  19
HETATM   19  C   UNL     1     -40.536  52.670 -53.442  1.00  0.00     0.034 A 
HETATM   20  C   UNL     1     -40.465  51.622 -54.367  1.00  0.00     0.053 A 
HETATM   21  C   UNL     1     -39.964  50.390 -53.957  1.00  0.00     0.066 A 
HETATM   22  C   UNL     1     -39.522  50.194 -52.653  1.00  0.00     0.036 A 
HETATM   23  C   UNL     1     -39.569  51.244 -51.737  1.00  0.00     0.004 A 
HETATM   24  C   UNL     1     -40.074  52.485 -52.130  1.00  0.00     0.017 A 
BRANCH  21  25
HETATM   25  O   UNL     1     -39.890  49.330 -54.810  1.00  0.00    -0.361 OA
HETATM   26  H   UNL     1     -40.056  49.631 -55.719  1.00  0.00     0.217 HD
ENDBRANCH  21  25
ENDBRANCH  16  19
ENDBRANCH  14  15
ENDBRANCH   1  14
TORSDOF 8
ENDMDL
MODEL 2
REMARK VINA RESULT:      -6.8      1.906      2.629
REMARK  8 active torsions:
REMARK  status: ('A' for Active; 'I' for Inactive)
REMARK    1  A    between atoms: C_4  and  C_5 
REMARK    2  A    between atoms: C_5  and  N_6 
REMARK    3  A    between atoms: N_6  and  C_9 
REMARK    4  A    between atoms: C_9  and  C_10 
REMARK    5  A    between atoms: C_10  and  C_11 
REMARK    6  A    between atoms: C_11  and  N_12 
REMARK       I    between atoms: N_12  and  C_13 
REMARK    7  A    between atoms: C_13  and  C_14 
REMARK    8  A    between atoms: C_16  and  O_17 
ROOT
HETATM    1  C   UNL     1     -42.456  55.508 -55.809  1.00  0.00     0.047 C 
ENDROOT
BRANCH   1   2
HETATM    2  C   UNL     1     -43.375  56.515 -55.131  1.00  0.00     0.235 C 
BRANCH   2   3
HETATM    3  N   UNL     1     -43.268  56.417 -53.643  1.00  0.00    -0.067 N 
HETATM    4  H   UNL     1     -42.377  55.955 -53.404  1.00  0.00     0.277 HD
HETATM    5  H   UNL     1     -43.985  55.794 -53.249  1.00  0.00     0.277 HD
BRANCH   3   6
HETATM    6  C   UNL     1     -43.319  57.718 -52.885  1.00  0.00     0.223 C 
HETATM    7  C   UNL     1     -44.131  57.543 -51.601  1.00  0.00     0.046 C 
BRANCH   6   8
HETATM    8  C   UNL     1     -41.948  58.233 -52.579  1.00  0.00     0.032 A 
HETATM    9  S   UNL     1     -41.346  58.361 -50.972  1.00  0.00    -0.076 SA
HETATM   10  C   UNL     1     -39.884  59.036 -51.575  1.00  0.00     0.071 A 
HETATM   11  C   UNL     1     -38.792  59.451 -50.651  1.00  0.00     0.078 C 
HETATM   12  N   UNL     1     -39.824  59.146 -52.884  1.00  0.00    -0.257 NA
HETATM   13  C   UNL     1     -40.993  58.704 -53.458  1.00  0.00     0.134 A 
ENDBRANCH   6   8
ENDBRANCH   3   6
ENDBRANCH   2   3
ENDBRANCH   1   2
BRANCH   1  14
HETATM   14  C   UNL     1     -41.041  55.518 -55.231  1.00  0.00     0.124 C 
BRANCH  14  15
HETATM   15  N   UNL     1     -40.614  54.208 -54.803  1.00  0.00    -0.357 N 
HETATM   16  C   UNL     1     -40.716  53.820 -53.482  1.00  0.00     0.251 C 
HETATM   17  O   UNL     1     -41.097  54.584 -52.601  1.00  0.00    -0.268 OA
HETATM   18  H   UNL     1     -40.167  53.586 -55.469  1.00  0.00     0.162 HD
BRANCH  16  19
HETATM   19  C   UNL     1     -40.283  52.431 -53.177  1.00  0.00     0.034 A 
HETATM   20  C   UNL     1     -40.250  51.492 -54.214  1.00  0.00     0.053 A 
HETATM   21  C   UNL     1     -39.870  50.184 -53.931  1.00  0.00     0.066 A 
HETATM   22  C   UNL     1     -39.510  49.804 -52.642  1.00  0.00     0.036 A 
HETATM   23  C   UNL     1     -39.519  50.745 -51.613  1.00  0.00     0.004 A 
HETATM   24  C   UNL     1     -39.904  52.060 -51.878  1.00  0.00     0.017 A 
BRANCH  21  25
HETATM   25  O   UNL     1     -39.839  49.224 -54.898  1.00  0.00    -0.361 OA
HETATM   26  H   UNL     1     -40.589  49.347 -55.504  1.00  0.00     0.217 HD
ENDBRANCH  21  25
ENDBRANCH  16  19
ENDBRANCH  14  15
ENDBRANCH   1  14
TORSDOF 8
ENDMDL
MODEL 3
REMARK VINA RESULT:      -6.7      2.479      3.410
REMARK  8 active torsions:
REMARK  status: ('A' for Active; 'I' for Inactive)
REMARK    1  A    between atoms: C_4  and  C_5 
REMARK    2  A    between atoms: C_5  and  N_6 
REMARK    3  A    between atoms: N_6  and  C_9 
REMARK    4  A    between atoms: C_9  and  C_10 
REMARK    5  A    between atoms: C_10  and  C_11 
REMARK    6  A    between atoms: C_11  and  N_12 
REMARK       I    between atoms: N_12  and  C_13 
REMARK    7  A    between atoms: C_13  and  C_14 
REMARK    8  A    between atoms: C_16  and  O_17 
ROOT
HETATM    1  C   UNL     1     -42.971  55.670 -51.002  1.00  0.00     0.047 C 
ENDROOT
BRANCH   1   2
HETATM    2  C   UNL     1     -43.616  56.776 -51.824  1.00  0.00     0.235 C 
BRANCH   2   3
HETATM    3  N   UNL     1     -43.834  58.000 -50.993  1.00  0.00    -0.067 N 
HETATM    4  H   UNL     1     -43.417  57.847 -50.061  1.00  0.00     0.277 HD
HETATM    5  H   UNL     1     -44.831  58.157 -50.797  1.00  0.00     0.277 HD
BRANCH   3   6
HETATM    6  C   UNL     1     -43.262  59.284 -51.538  1.00  0.00     0.223 C 
HETATM    7  C   UNL     1     -43.773  60.471 -50.720  1.00  0.00     0.046 C 
BRANCH   6   8
HETATM    8  C   UNL     1     -41.766  59.258 -51.557  1.00  0.00     0.032 A 
HETATM    9  S   UNL     1     -40.821  59.368 -50.122  1.00  0.00    -0.076 SA
HETATM   10  C   UNL     1     -39.386  59.323 -51.067  1.00  0.00     0.071 A 
HETATM   11  C   UNL     1     -38.042  59.404 -50.427  1.00  0.00     0.078 C 
HETATM   12  N   UNL     1     -39.578  59.212 -52.363  1.00  0.00    -0.257 NA
HETATM   13  C   UNL     1     -40.924  59.186 -52.648  1.00  0.00     0.134 A 
ENDBRANCH   6   8
ENDBRANCH   3   6
ENDBRANCH   2   3
ENDBRANCH   1   2
BRANCH   1  14
HETATM   14  C   UNL     1     -41.484  55.494 -51.313  1.00  0.00     0.124 C 
BRANCH  14  15
HETATM   15  N   UNL     1     -41.140  54.122 -51.594  1.00  0.00    -0.357 N 
HETATM   16  C   UNL     1     -40.586  53.757 -52.806  1.00  0.00     0.251 C 
HETATM   17  O   UNL     1     -40.431  54.557 -53.722  1.00  0.00    -0.268 OA
HETATM   18  H   UNL     1     -41.374  53.400 -50.920  1.00  0.00     0.162 HD
BRANCH  16  19
HETATM   19  C   UNL     1     -40.237  52.320 -52.955  1.00  0.00     0.034 A 
HETATM   20  C   UNL     1     -39.854  51.598 -51.820  1.00  0.00     0.053 A 
HETATM   21  C   UNL     1     -39.503  50.258 -51.957  1.00  0.00     0.066 A 
HETATM   22  C   UNL     1     -39.542  49.629 -53.197  1.00  0.00     0.036 A 
HETATM   23  C   UNL     1     -39.948  50.342 -54.325  1.00  0.00     0.004 A 
HETATM   24  C   UNL     1     -40.298  51.688 -54.207  1.00  0.00     0.017 A 
BRANCH  21  25
HETATM   25  O   UNL     1     -39.102  49.512 -50.889  1.00  0.00    -0.361 OA
HETATM   26  H   UNL     1     -38.825  48.631 -51.193  1.00  0.00     0.217 HD
ENDBRANCH  21  25
ENDBRANCH  16  19
ENDBRANCH  14  15
ENDBRANCH   1  14
TORSDOF 8
ENDMDL
MODEL 4
REMARK VINA RESULT:      -6.5      1.961      2.862
REMARK  8 active torsions:
REMARK  status: ('A' for Active; 'I' for Inactive)
REMARK    1  A    between atoms: C_4  and  C_5 
REMARK    2  A    between atoms: C_5  and  N_6 
REMARK    3  A    between atoms: N_6  and  C_9 
REMARK    4  A    between atoms: C_9  and  C_10 
REMARK    5  A    between atoms: C_10  and  C_11 
REMARK    6  A    between atoms: C_11  and  N_12 
REMARK       I    between atoms: N_12  and  C_13 
REMARK    7  A    between atoms: C_13  and  C_14 
REMARK    8  A    between atoms: C_16  and  O_17 
ROOT
HETATM    1  C   UNL     1     -42.551  55.736 -54.770  1.00  0.00     0.047 C 
ENDROOT
BRANCH   1   2
HETATM    2  C   UNL     1     -43.509  55.502 -53.611  1.00  0.00     0.235 C 
BRANCH   2   3
HETATM    3  N   UNL     1     -44.047  56.797 -53.093  1.00  0.00    -0.067 N 
HETATM    4  H   UNL     1     -45.056  56.846 -53.303  1.00  0.00     0.277 HD
HETATM    5  H   UNL     1     -43.649  57.604 -53.593  1.00  0.00     0.277 HD
BRANCH   3   6
HETATM    6  C   UNL     1     -43.881  57.043 -51.616  1.00  0.00     0.223 C 
HETATM    7  C   UNL     1     -43.598  55.723 -50.896  1.00  0.00     0.046 C 
BRANCH   6   8
HETATM    8  C   UNL     1     -42.801  58.040 -51.338  1.00  0.00     0.032 A 
HETATM    9  S   UNL     1     -41.166  57.578 -51.060  1.00  0.00    -0.076 SA
HETATM   10  C   UNL     1     -40.748  59.225 -50.800  1.00  0.00     0.071 A 
HETATM   11  C   UNL     1     -39.352  59.618 -50.459  1.00  0.00     0.078 C 
HETATM   12  N   UNL     1     -41.742  60.077 -50.928  1.00  0.00    -0.257 NA
HETATM   13  C   UNL     1     -42.909  59.411 -51.222  1.00  0.00     0.134 A 
ENDBRANCH   6   8
ENDBRANCH   3   6
ENDBRANCH   2   3
ENDBRANCH   1   2
BRANCH   1  14
HETATM   14  C   UNL     1     -41.086  55.546 -54.372  1.00  0.00     0.124 C 
BRANCH  14  15
HETATM   15  N   UNL     1     -40.723  54.154 -54.267  1.00  0.00    -0.357 N 
HETATM   16  C   UNL     1     -40.479  53.570 -53.039  1.00  0.00     0.251 C 
HETATM   17  O   UNL     1     -40.483  54.214 -51.995  1.00  0.00    -0.268 OA
HETATM   18  H   UNL     1     -40.575  53.611 -55.111  1.00  0.00     0.162 HD
BRANCH  16  19
HETATM   19  C   UNL     1     -40.157  52.119 -53.062  1.00  0.00     0.034 A 
HETATM   20  C   UNL     1     -39.747  51.501 -51.876  1.00  0.00     0.053 A 
HETATM   21  C   UNL     1     -39.420  50.148 -51.895  1.00  0.00     0.066 A 
HETATM   22  C   UNL     1     -39.511  49.405 -53.068  1.00  0.00     0.036 A 
HETATM   23  C   UNL     1     -39.943  50.015 -54.245  1.00  0.00     0.004 A 
HETATM   24  C   UNL     1     -40.269  51.372 -54.244  1.00  0.00     0.017 A 
BRANCH  21  25
HETATM   25  O   UNL     1     -38.996  49.500 -50.774  1.00  0.00    -0.361 OA
HETATM   26  H   UNL     1     -38.538  50.127 -50.189  1.00  0.00     0.217 HD
ENDBRANCH  21  25
ENDBRANCH  16  19
ENDBRANCH  14  15
ENDBRANCH   1  14
TORSDOF 8
ENDMDL
MODEL 5
REMARK VINA RESULT:      -6.3      3.996      6.304
REMARK  8 active torsions:
REMARK  status: ('A' for Active; 'I' for Inactive)
REMARK    1  A    between atoms: C_4  and  C_5 
REMARK    2  A    between atoms: C_5  and  N_6 
REMARK    3  A    between atoms: N_6  and  C_9 
REMARK    4  A    between atoms: C_9  and  C_10 
REMARK    5  A    between atoms: C_10  and  C_11 
REMARK    6  A    between atoms: C_11  and  N_12 
REMARK       I    between atoms: N_12  and  C_13 
REMARK    7  A    between atoms: C_13  and  C_14 
REMARK    8  A    between atoms: C_16  and  O_17 
ROOT
HETATM    1  C   UNL     1     -42.565  55.598 -54.883  1.00  0.00     0.047 C 
ENDROOT
BRANCH   1   2
HETATM    2  C   UNL     1     -42.928  56.839 -55.686  1.00  0.00     0.235 C 
BRANCH   2   3
HETATM    3  N   UNL     1     -42.316  56.790 -57.049  1.00  0.00    -0.067 N 
HETATM    4  H   UNL     1     -42.391  55.826 -57.412  1.00  0.00     0.277 HD
HETATM    5  H   UNL     1     -41.304  56.968 -57.021  1.00  0.00     0.277 HD
BRANCH   3   6
HETATM    6  C   UNL     1     -42.919  57.708 -58.082  1.00  0.00     0.223 C 
HETATM    7  C   UNL     1     -41.824  58.245 -59.004  1.00  0.00     0.046 C 
BRANCH   6   8
HETATM    8  C   UNL     1     -43.989  57.023 -58.873  1.00  0.00     0.032 A 
HETATM    9  S   UNL     1     -45.343  57.866 -59.519  1.00  0.00    -0.076 SA
HETATM   10  C   UNL     1     -45.968  56.387 -60.133  1.00  0.00     0.071 A 
HETATM   11  C   UNL     1     -47.262  56.347 -60.871  1.00  0.00     0.078 C 
HETATM   12  N   UNL     1     -45.220  55.330 -59.900  1.00  0.00    -0.257 NA
HETATM   13  C   UNL     1     -44.104  55.681 -59.177  1.00  0.00     0.134 A 
ENDBRANCH   6   8
ENDBRANCH   3   6
ENDBRANCH   2   3
ENDBRANCH   1   2
BRANCH   1  14
HETATM   14  C   UNL     1     -41.055  55.420 -54.722  1.00  0.00     0.124 C 
BRANCH  14  15
HETATM   15  N   UNL     1     -40.684  54.040 -54.526  1.00  0.00    -0.357 N 
HETATM   16  C   UNL     1     -40.500  53.522 -53.259  1.00  0.00     0.251 C 
HETATM   17  O   UNL     1     -40.565  54.218 -52.250  1.00  0.00    -0.268 OA
HETATM   18  H   UNL     1     -40.486  53.456 -55.332  1.00  0.00     0.162 HD
BRANCH  16  19
HETATM   19  C   UNL     1     -40.162  52.076 -53.190  1.00  0.00     0.034 A 
HETATM   20  C   UNL     1     -39.779  51.531 -51.960  1.00  0.00     0.053 A 
HETATM   21  C   UNL     1     -39.439  50.183 -51.893  1.00  0.00     0.066 A 
HETATM   22  C   UNL     1     -39.489  49.374 -53.023  1.00  0.00     0.036 A 
HETATM   23  C   UNL     1     -39.895  49.910 -54.245  1.00  0.00     0.004 A 
HETATM   24  C   UNL     1     -40.234  51.261 -54.331  1.00  0.00     0.017 A 
BRANCH  21  25
HETATM   25  O   UNL     1     -39.039  49.604 -50.725  1.00  0.00    -0.361 OA
HETATM   26  H   UNL     1     -39.078  48.637 -50.812  1.00  0.00     0.217 HD
ENDBRANCH  21  25
ENDBRANCH  16  19
ENDBRANCH  14  15
ENDBRANCH   1  14
TORSDOF 8
ENDMDL
MODEL 6
REMARK VINA RESULT:      -6.2      2.233      4.490
REMARK  8 active torsions:
REMARK  status: ('A' for Active; 'I' for Inactive)
REMARK    1  A    between atoms: C_4  and  C_5 
REMARK    2  A    between atoms: C_5  and  N_6 
REMARK    3  A    between atoms: N_6  and  C_9 
REMARK    4  A    between atoms: C_9  and  C_10 
REMARK    5  A    between atoms: C_10  and  C_11 
REMARK    6  A    between atoms: C_11  and  N_12 
REMARK       I    between atoms: N_12  and  C_13 
REMARK    7  A    between atoms: C_13  and  C_14 
REMARK    8  A    between atoms: C_16  and  O_17 
ROOT
HETATM    1  C   UNL     1     -41.414  56.868 -50.756  1.00  0.00     0.047 C 
ENDROOT
BRANCH   1   2
HETATM    2  C   UNL     1     -41.802  56.736 -52.221  1.00  0.00     0.235 C 
BRANCH   2   3
HETATM    3  N   UNL     1     -43.232  56.318 -52.358  1.00  0.00    -0.067 N 
HETATM    4  H   UNL     1     -43.729  56.545 -51.483  1.00  0.00     0.277 HD
HETATM    5  H   UNL     1     -43.326  55.297 -52.442  1.00  0.00     0.277 HD
BRANCH   3   6
HETATM    6  C   UNL     1     -44.003  56.948 -53.490  1.00  0.00     0.223 C 
HETATM    7  C   UNL     1     -43.818  58.466 -53.466  1.00  0.00     0.046 C 
BRANCH   6   8
HETATM    8  C   UNL     1     -43.597  56.385 -54.816  1.00  0.00     0.032 A 
HETATM    9  S   UNL     1     -43.665  57.304 -56.269  1.00  0.00    -0.076 SA
HETATM   10  C   UNL     1     -43.125  55.934 -57.158  1.00  0.00     0.071 A 
HETATM   11  C   UNL     1     -42.953  55.997 -58.636  1.00  0.00     0.078 C 
HETATM   12  N   UNL     1     -42.886  54.863 -56.433  1.00  0.00    -0.257 NA
HETATM   13  C   UNL     1     -43.162  55.108 -55.108  1.00  0.00     0.134 A 
ENDBRANCH   6   8
ENDBRANCH   3   6
ENDBRANCH   2   3
ENDBRANCH   1   2
BRANCH   1  14
HETATM   14  C   UNL     1     -40.838  55.574 -50.179  1.00  0.00     0.124 C 
BRANCH  14  15
HETATM   15  N   UNL     1     -40.622  54.570 -51.192  1.00  0.00    -0.357 N 
HETATM   16  C   UNL     1     -40.327  53.264 -50.853  1.00  0.00     0.251 C 
HETATM   17  O   UNL     1     -40.159  52.911 -49.690  1.00  0.00    -0.268 OA
HETATM   18  H   UNL     1     -40.617  54.841 -52.170  1.00  0.00     0.162 HD
BRANCH  16  19
HETATM   19  C   UNL     1     -40.172  52.317 -51.988  1.00  0.00     0.034 A 
HETATM   20  C   UNL     1     -39.792  50.998 -51.718  1.00  0.00     0.053 A 
HETATM   21  C   UNL     1     -39.621  50.113 -52.778  1.00  0.00     0.066 A 
HETATM   22  C   UNL     1     -39.836  50.516 -54.092  1.00  0.00     0.036 A 
HETATM   23  C   UNL     1     -40.238  51.824 -54.360  1.00  0.00     0.004 A 
HETATM   24  C   UNL     1     -40.409  52.727 -53.309  1.00  0.00     0.017 A 
BRANCH  21  25
HETATM   25  O   UNL     1     -39.233  48.822 -52.575  1.00  0.00    -0.361 OA
HETATM   26  H   UNL     1     -39.319  48.322 -53.404  1.00  0.00     0.217 HD
ENDBRANCH  21  25
ENDBRANCH  16  19
ENDBRANCH  14  15
ENDBRANCH   1  14
TORSDOF 8
ENDMDL
MODEL 7
REMARK VINA RESULT:      -6.1      4.086      6.281
REMARK  8 active torsions:
REMARK  status: ('A' for Active; 'I' for Inactive)
REMARK    1  A    between atoms: C_4  and  C_5 
REMARK    2  A    between atoms: C_5  and  N_6 
REMARK    3  A    between atoms: N_6  and  C_9 
REMARK    4  A    between atoms: C_9  and  C_10 
REMARK    5  A    between atoms: C_10  and  C_11 
REMARK    6  A    between atoms: C_11  and  N_12 
REMARK       I    between atoms: N_12  and  C_13 
REMARK    7  A    between atoms: C_13  and  C_14 
REMARK    8  A    between atoms: C_16  and  O_17 
ROOT
HETATM    1  C   UNL     1     -41.815  55.868 -55.474  1.00  0.00     0.047 C 
ENDROOT
BRANCH   1   2
HETATM    2  C   UNL     1     -42.859  56.022 -56.571  1.00  0.00     0.235 C 
BRANCH   2   3
HETATM    3  N   UNL     1     -42.235  56.523 -57.834  1.00  0.00    -0.067 N 
HETATM    4  H   UNL     1     -42.274  55.774 -58.543  1.00  0.00     0.277 HD
HETATM    5  H   UNL     1     -41.229  56.704 -57.719  1.00  0.00     0.277 HD
BRANCH   3   6
HETATM    6  C   UNL     1     -42.859  57.752 -58.443  1.00  0.00     0.223 C 
HETATM    7  C   UNL     1     -42.020  58.232 -59.627  1.00  0.00     0.046 C 
BRANCH   6   8
HETATM    8  C   UNL     1     -44.274  57.503 -58.862  1.00  0.00     0.032 A 
HETATM    9  S   UNL     1     -44.675  56.581 -60.259  1.00  0.00    -0.076 SA
HETATM   10  C   UNL     1     -46.344  56.880 -59.974  1.00  0.00     0.071 A 
HETATM   11  C   UNL     1     -47.388  56.346 -60.894  1.00  0.00     0.078 C 
HETATM   12  N   UNL     1     -46.604  57.599 -58.904  1.00  0.00    -0.257 NA
HETATM   13  C   UNL     1     -45.436  57.964 -58.276  1.00  0.00     0.134 A 
ENDBRANCH   6   8
ENDBRANCH   3   6
ENDBRANCH   2   3
ENDBRANCH   1   2
BRANCH   1  14
HETATM   14  C   UNL     1     -42.362  55.160 -54.234  1.00  0.00     0.124 C 
BRANCH  14  15
HETATM   15  N   UNL     1     -41.764  53.862 -54.035  1.00  0.00    -0.357 N 
HETATM   16  C   UNL     1     -40.883  53.633 -52.996  1.00  0.00     0.251 C 
HETATM   17  O   UNL     1     -40.509  54.527 -52.245  1.00  0.00    -0.268 OA
HETATM   18  H   UNL     1     -41.937  53.124 -54.709  1.00  0.00     0.162 HD
BRANCH  16  19
HETATM   19  C   UNL     1     -40.370  52.243 -52.873  1.00  0.00     0.034 A 
HETATM   20  C   UNL     1     -40.335  51.434 -54.014  1.00  0.00     0.053 A 
HETATM   21  C   UNL     1     -39.879  50.124 -53.900  1.00  0.00     0.066 A 
HETATM   22  C   UNL     1     -39.447  49.618 -52.679  1.00  0.00     0.036 A 
HETATM   23  C   UNL     1     -39.459  50.431 -51.547  1.00  0.00     0.004 A 
HETATM   24  C   UNL     1     -39.918  51.746 -51.641  1.00  0.00     0.017 A 
BRANCH  21  25
HETATM   25  O   UNL     1     -39.842  49.285 -54.974  1.00  0.00    -0.361 OA
HETATM   26  H   UNL     1     -40.426  49.625 -55.673  1.00  0.00     0.217 HD
ENDBRANCH  21  25
ENDBRANCH  16  19
ENDBRANCH  14  15
ENDBRANCH   1  14
TORSDOF 8
ENDMDL
MODEL 8
REMARK VINA RESULT:      -6.1      1.663      2.037
REMARK  8 active torsions:
REMARK  status: ('A' for Active; 'I' for Inactive)
REMARK    1  A    between atoms: C_4  and  C_5 
REMARK    2  A    between atoms: C_5  and  N_6 
REMARK    3  A    between atoms: N_6  and  C_9 
REMARK    4  A    between atoms: C_9  and  C_10 
REMARK    5  A    between atoms: C_10  and  C_11 
REMARK    6  A    between atoms: C_11  and  N_12 
REMARK       I    between atoms: N_12  and  C_13 
REMARK    7  A    between atoms: C_13  and  C_14 
REMARK    8  A    between atoms: C_16  and  O_17 
ROOT
HETATM    1  C   UNL     1     -42.847  56.193 -54.889  1.00  0.00     0.047 C 
ENDROOT
BRANCH   1   2
HETATM    2  C   UNL     1     -44.319  56.531 -54.701  1.00  0.00     0.235 C 
BRANCH   2   3
HETATM    3  N   UNL     1     -44.662  56.633 -53.249  1.00  0.00    -0.067 N 
HETATM    4  H   UNL     1     -44.437  55.736 -52.790  1.00  0.00     0.277 HD
HETATM    5  H   UNL     1     -45.674  56.743 -53.101  1.00  0.00     0.277 HD
BRANCH   3   6
HETATM    6  C   UNL     1     -43.961  57.721 -52.476  1.00  0.00     0.223 C 
HETATM    7  C   UNL     1     -44.985  58.558 -51.708  1.00  0.00     0.046 C 
BRANCH   6   8
HETATM    8  C   UNL     1     -42.930  57.163 -51.547  1.00  0.00     0.032 A 
HETATM    9  S   UNL     1     -43.094  55.619 -50.804  1.00  0.00    -0.076 SA
HETATM   10  C   UNL     1     -41.613  55.868 -49.966  1.00  0.00     0.071 A 
HETATM   11  C   UNL     1     -41.082  54.842 -49.024  1.00  0.00     0.078 C 
HETATM   12  N   UNL     1     -41.014  57.009 -50.226  1.00  0.00    -0.257 NA
HETATM   13  C   UNL     1     -41.759  57.752 -51.112  1.00  0.00     0.134 A 
ENDBRANCH   6   8
ENDBRANCH   3   6
ENDBRANCH   2   3
ENDBRANCH   1   2
BRANCH   1  14
HETATM   14  C   UNL     1     -42.633  54.923 -55.713  1.00  0.00     0.124 C 
BRANCH  14  15
HETATM   15  N   UNL     1     -42.135  53.829 -54.915  1.00  0.00    -0.357 N 
HETATM   16  C   UNL     1     -40.781  53.652 -54.710  1.00  0.00     0.251 C 
HETATM   17  O   UNL     1     -39.938  54.360 -55.253  1.00  0.00    -0.268 OA
HETATM   18  H   UNL     1     -42.784  53.137 -54.555  1.00  0.00     0.162 HD
BRANCH  16  19
HETATM   19  C   UNL     1     -40.398  52.515 -53.834  1.00  0.00     0.034 A 
HETATM   20  C   UNL     1     -40.453  52.685 -52.446  1.00  0.00     0.053 A 
HETATM   21  C   UNL     1     -40.073  51.632 -51.620  1.00  0.00     0.066 A 
HETATM   22  C   UNL     1     -39.657  50.416 -52.152  1.00  0.00     0.036 A 
HETATM   23  C   UNL     1     -39.626  50.237 -53.534  1.00  0.00     0.004 A 
HETATM   24  C   UNL     1     -39.998  51.284 -54.378  1.00  0.00     0.017 A 
BRANCH  21  25
HETATM   25  O   UNL     1     -40.087  51.748 -50.261  1.00  0.00    -0.361 OA
HETATM   26  H   UNL     1     -40.043  50.865 -49.858  1.00  0.00     0.217 HD
ENDBRANCH  21  25
ENDBRANCH  16  19
ENDBRANCH  14  15
ENDBRANCH   1  14
TORSDOF 8
ENDMDL
MODEL 9
REMARK VINA RESULT:      -6.1      3.532      5.680
REMARK  8 active torsions:
REMARK  status: ('A' for Active; 'I' for Inactive)
REMARK    1  A    between atoms: C_4  and  C_5 
REMARK    2  A    between atoms: C_5  and  N_6 
REMARK    3  A    between atoms: N_6  and  C_9 
REMARK    4  A    between atoms: C_9  and  C_10 
REMARK    5  A    between atoms: C_10  and  C_11 
REMARK    6  A    between atoms: C_11  and  N_12 
REMARK       I    between atoms: N_12  and  C_13 
REMARK    7  A    between atoms: C_13  and  C_14 
REMARK    8  A    between atoms: C_16  and  O_17 
ROOT
HETATM    1  C   UNL     1     -43.549  55.819 -54.321  1.00  0.00     0.047 C 
ENDROOT
BRANCH   1   2
HETATM    2  C   UNL     1     -43.736  57.193 -54.948  1.00  0.00     0.235 C 
BRANCH   2   3
HETATM    3  N   UNL     1     -42.703  57.445 -55.999  1.00  0.00    -0.067 N 
HETATM    4  H   UNL     1     -42.376  56.537 -56.367  1.00  0.00     0.277 HD
HETATM    5  H   UNL     1     -41.855  57.875 -55.607  1.00  0.00     0.277 HD
BRANCH   3   6
HETATM    6  C   UNL     1     -43.141  58.276 -57.177  1.00  0.00     0.223 C 
HETATM    7  C   UNL     1     -41.924  58.911 -57.850  1.00  0.00     0.046 C 
BRANCH   6   8
HETATM    8  C   UNL     1     -43.930  57.470 -58.160  1.00  0.00     0.032 A 
HETATM    9  S   UNL     1     -43.303  56.052 -58.907  1.00  0.00    -0.076 SA
HETATM   10  C   UNL     1     -44.754  55.891 -59.815  1.00  0.00     0.071 A 
HETATM   11  C   UNL     1     -44.930  54.778 -60.789  1.00  0.00     0.078 C 
HETATM   12  N   UNL     1     -45.663  56.810 -59.574  1.00  0.00    -0.257 NA
HETATM   13  C   UNL     1     -45.199  57.714 -58.647  1.00  0.00     0.134 A 
ENDBRANCH   6   8
ENDBRANCH   3   6
ENDBRANCH   2   3
ENDBRANCH   1   2
BRANCH   1  14
HETATM   14  C   UNL     1     -42.440  55.795 -53.269  1.00  0.00     0.124 C 
BRANCH  14  15
HETATM   15  N   UNL     1     -41.926  54.466 -53.044  1.00  0.00    -0.357 N 
HETATM   16  C   UNL     1     -40.811  54.007 -53.717  1.00  0.00     0.251 C 
HETATM   17  O   UNL     1     -40.252  54.668 -54.587  1.00  0.00    -0.268 OA
HETATM   18  H   UNL     1     -42.431  53.832 -52.434  1.00  0.00     0.162 HD
BRANCH  16  19
HETATM   19  C   UNL     1     -40.356  52.637 -53.364  1.00  0.00     0.034 A 
HETATM   20  C   UNL     1     -40.346  51.653 -54.358  1.00  0.00     0.053 A 
HETATM   21  C   UNL     1     -39.944  50.362 -54.028  1.00  0.00     0.066 A 
HETATM   22  C   UNL     1     -39.540  50.044 -52.735  1.00  0.00     0.036 A 
HETATM   23  C   UNL     1     -39.526  51.031 -51.750  1.00  0.00     0.004 A 
HETATM   24  C   UNL     1     -39.932  52.329 -52.062  1.00  0.00     0.017 A 
BRANCH  21  25
HETATM   25  O   UNL     1     -39.934  49.359 -54.951  1.00  0.00    -0.361 OA
HETATM   26  H   UNL     1     -40.313  49.681 -55.786  1.00  0.00     0.217 HD
ENDBRANCH  21  25
ENDBRANCH  16  19
ENDBRANCH  14  15
ENDBRANCH   1  14
TORSDOF 8
ENDMDL
MODEL 10
REMARK VINA RESULT:      -5.9      4.357      6.338
REMARK  8 active torsions:
REMARK  status: ('A' for Active; 'I' for Inactive)
REMARK    1  A    between atoms: C_4  and  C_5 
REMARK    2  A    between atoms: C_5  and  N_6 
REMARK    3  A    between atoms: N_6  and  C_9 
REMARK    4  A    between atoms: C_9  and  C_10 
REMARK    5  A    between atoms: C_10  and  C_11 
REMARK    6  A    between atoms: C_11  and  N_12 
REMARK       I    between atoms: N_12  and  C_13 
REMARK    7  A    between atoms: C_13  and  C_14 
REMARK    8  A    between atoms: C_16  and  O_17 
ROOT
HETATM    1  C   UNL     1     -42.699  55.334 -56.577  1.00  0.00     0.047 C 
ENDROOT
BRANCH   1   2
HETATM    2  C   UNL     1     -42.672  56.831 -56.849  1.00  0.00     0.235 C 
BRANCH   2   3
HETATM    3  N   UNL     1     -42.256  57.110 -58.258  1.00  0.00    -0.067 N 
HETATM    4  H   UNL     1     -42.279  56.227 -58.792  1.00  0.00     0.277 HD
HETATM    5  H   UNL     1     -41.273  57.410 -58.314  1.00  0.00     0.277 HD
BRANCH   3   6
HETATM    6  C   UNL     1     -43.090  58.113 -59.012  1.00  0.00     0.223 C 
HETATM    7  C   UNL     1     -44.406  58.359 -58.272  1.00  0.00     0.046 C 
BRANCH   6   8
HETATM    8  C   UNL     1     -42.352  59.398 -59.222  1.00  0.00     0.032 A 
HETATM    9  S   UNL     1     -41.762  60.350 -57.915  1.00  0.00    -0.076 SA
HETATM   10  C   UNL     1     -41.187  61.523 -59.032  1.00  0.00     0.071 A 
HETATM   11  C   UNL     1     -40.508  62.764 -58.562  1.00  0.00     0.078 C 
HETATM   12  N   UNL     1     -41.393  61.232 -60.298  1.00  0.00    -0.257 NA
HETATM   13  C   UNL     1     -42.063  60.035 -60.412  1.00  0.00     0.134 A 
ENDBRANCH   6   8
ENDBRANCH   3   6
ENDBRANCH   2   3
ENDBRANCH   1   2
BRANCH   1  14
HETATM   14  C   UNL     1     -43.020  55.005 -55.118  1.00  0.00     0.124 C 
BRANCH  14  15
HETATM   15  N   UNL     1     -42.327  53.827 -54.657  1.00  0.00    -0.357 N 
HETATM   16  C   UNL     1     -41.151  53.923 -53.940  1.00  0.00     0.251 C 
HETATM   17  O   UNL     1     -40.600  54.999 -53.727  1.00  0.00    -0.268 OA
HETATM   18  H   UNL     1     -42.671  52.909 -54.923  1.00  0.00     0.162 HD
BRANCH  16  19
HETATM   19  C   UNL     1     -40.559  52.638 -53.485  1.00  0.00     0.034 A 
HETATM   20  C   UNL     1     -40.485  51.573 -54.388  1.00  0.00     0.053 A 
HETATM   21  C   UNL     1     -39.954  50.359 -53.961  1.00  0.00     0.066 A 
HETATM   22  C   UNL     1     -39.486  50.199 -52.661  1.00  0.00     0.036 A 
HETATM   23  C   UNL     1     -39.537  51.267 -51.767  1.00  0.00     0.004 A 
HETATM   24  C   UNL     1     -40.071  52.490 -52.177  1.00  0.00     0.017 A 
BRANCH  21  25
HETATM   25  O   UNL     1     -39.875  49.282 -54.792  1.00  0.00    -0.361 OA
HETATM   26  H   UNL     1     -40.363  49.467 -55.612  1.00  0.00     0.217 HD
ENDBRANCH  21  25
ENDBRANCH  16  19
ENDBRANCH  14  15
ENDBRANCH   1  14
TORSDOF 8
ENDMDL
