MODEL 1
REMARK VINA RESULT:      -8.6      0.000      0.000
REMARK  9 active torsions:
REMARK  status: ('A' for Active; 'I' for Inactive)
REMARK    1  A    between atoms: C_4  and  C_5 
REMARK    2  A    between atoms: C_7  and  O_8 
REMARK    3  A    between atoms: C_10  and  O_11 
REMARK    4  A    between atoms: C_16  and  C_17 
REMARK    5  A    between atoms: C_20  and  C_21 
REMARK    6  A    between atoms: C_21  and  N_22 
REMARK    7  A    between atoms: N_22  and  C_23 
REMARK    8  A    between atoms: C_23  and  N_24 
REMARK    9  A    between atoms: N_24  and  C_25 
ROOT
HETATM    1  C   UNL     1     -44.443  56.840 -58.853  1.00  0.00     0.035 A 
HETATM    2  C   UNL     1     -45.607  57.049 -59.594  1.00  0.00     0.052 A 
HETATM    3  C   UNL     1     -46.061  56.089 -60.508  1.00  0.00     0.046 A 
HETATM    4  C   UNL     1     -47.242  56.369 -61.269  1.00  0.00     0.099 C 
HETATM    5  N   UNL     1     -48.184  56.691 -61.865  1.00  0.00    -0.191 NA
HETATM    6  C   UNL     1     -45.363  54.893 -60.664  1.00  0.00     0.023 A 
HETATM    7  C   UNL     1     -44.220  54.658 -59.898  1.00  0.00     0.004 A 
HETATM    8  C   UNL     1     -43.767  55.625 -58.993  1.00  0.00     0.029 A 
ENDROOT
BRANCH   1   9
HETATM    9  N   UNL     1     -43.952  57.769 -57.910  1.00  0.00    -0.333 N 
HETATM   10  H   UNL     1     -44.586  57.997 -57.148  1.00  0.00     0.168 HD
BRANCH   9  11
HETATM   11  C   UNL     1     -42.834  58.557 -57.946  1.00  0.00     0.172 C 
HETATM   12  S   UNL     1     -42.247  59.049 -59.427  1.00  0.00    -0.041 SA
BRANCH  11  13
HETATM   13  N   UNL     1     -42.315  58.926 -56.730  1.00  0.00    -0.365 N 
HETATM   14  H   UNL     1     -42.451  58.204 -56.029  1.00  0.00     0.161 HD
BRANCH  13  15
HETATM   15  C   UNL     1     -42.135  60.304 -56.277  1.00  0.00     0.155 C 
BRANCH  15  16
HETATM   16  C   UNL     1     -43.138  60.727 -55.182  1.00  0.00     0.206 C 
HETATM   17  C   UNL     1     -44.125  59.632 -54.748  1.00  0.00     0.040 C 
HETATM   18  C   UNL     1     -44.343  59.661 -53.216  1.00  0.00     0.001 C 
HETATM   19  C   UNL     1     -43.041  59.265 -52.470  1.00  0.00     0.067 C 
HETATM   20  C   UNL     1     -44.654  61.125 -52.824  1.00  0.00     0.033 C 
HETATM   21  C   UNL     1     -41.868  60.062 -53.085  1.00  0.00     0.246 C 
HETATM   22  N   UNL     1     -42.436  61.220 -53.915  1.00  0.00    -0.065 N 
HETATM   23  C   UNL     1     -43.430  62.015 -53.077  1.00  0.00     0.236 C 
HETATM   24  H   UNL     1     -41.660  61.844 -54.178  1.00  0.00     0.280 HD
BRANCH  19  25
HETATM   25  C   UNL     1     -42.768  57.790 -52.409  1.00  0.00     0.038 A 
HETATM   26  N   UNL     1     -43.543  56.908 -51.686  1.00  0.00    -0.277 N 
HETATM   27  C   UNL     1     -44.742  57.187 -50.927  1.00  0.00     0.179 C 
HETATM   28  N   UNL     1     -43.108  55.644 -51.734  1.00  0.00    -0.172 NA
HETATM   29  C   UNL     1     -42.062  55.658 -52.569  1.00  0.00     0.089 A 
HETATM   30  C   UNL     1     -41.825  56.983 -53.023  1.00  0.00     0.061 A 
BRANCH  29  31
HETATM   31  C   UNL     1     -41.335  54.437 -52.920  1.00  0.00    -0.003 A 
HETATM   32  C   UNL     1     -40.652  53.713 -51.931  1.00  0.00     0.053 A 
HETATM   33  C   UNL     1     -39.969  52.531 -52.245  1.00  0.00     0.102 A 
HETATM   34  C   UNL     1     -39.948  52.072 -53.577  1.00  0.00     0.101 A 
HETATM   35  C   UNL     1     -40.619  52.797 -54.565  1.00  0.00     0.040 A 
HETATM   36  C   UNL     1     -41.311  53.968 -54.238  1.00  0.00     0.017 A 
BRANCH  33  37
HETATM   37  O   UNL     1     -39.289  51.762 -51.333  1.00  0.00    -0.353 OA
HETATM   38  C   UNL     1     -39.978  50.662 -50.754  1.00  0.00     0.210 C 
ENDBRANCH  33  37
BRANCH  34  39
HETATM   39  O   UNL     1     -39.253  50.910 -53.804  1.00  0.00    -0.353 OA
HETATM   40  C   UNL     1     -39.914  49.866 -54.501  1.00  0.00     0.210 C 
ENDBRANCH  34  39
ENDBRANCH  29  31
ENDBRANCH  19  25
ENDBRANCH  15  16
ENDBRANCH  13  15
ENDBRANCH  11  13
ENDBRANCH   9  11
ENDBRANCH   1   9
TORSDOF 9
ENDMDL
MODEL 2
REMARK VINA RESULT:      -8.5      5.683      9.616
REMARK  9 active torsions:
REMARK  status: ('A' for Active; 'I' for Inactive)
REMARK    1  A    between atoms: C_4  and  C_5 
REMARK    2  A    between atoms: C_7  and  O_8 
REMARK    3  A    between atoms: C_10  and  O_11 
REMARK    4  A    between atoms: C_16  and  C_17 
REMARK    5  A    between atoms: C_20  and  C_21 
REMARK    6  A    between atoms: C_21  and  N_22 
REMARK    7  A    between atoms: N_22  and  C_23 
REMARK    8  A    between atoms: C_23  and  N_24 
REMARK    9  A    between atoms: N_24  and  C_25 
ROOT
HETATM    1  C   UNL     1     -40.193  53.643 -52.053  1.00  0.00     0.035 A 
HETATM    2  C   UNL     1     -39.794  52.307 -52.108  1.00  0.00     0.052 A 
HETATM    3  C   UNL     1     -40.087  51.513 -53.225  1.00  0.00     0.046 A 
HETATM    4  C   UNL     1     -39.686  50.138 -53.215  1.00  0.00     0.099 C 
HETATM    5  N   UNL     1     -39.356  49.031 -53.108  1.00  0.00    -0.191 NA
HETATM    6  C   UNL     1     -40.759  52.067 -54.314  1.00  0.00     0.023 A 
HETATM    7  C   UNL     1     -41.127  53.413 -54.284  1.00  0.00     0.004 A 
HETATM    8  C   UNL     1     -40.839  54.198 -53.162  1.00  0.00     0.029 A 
ENDROOT
BRANCH   1   9
HETATM    9  N   UNL     1     -39.910  54.488 -50.958  1.00  0.00    -0.333 N 
HETATM   10  H   UNL     1     -38.946  54.807 -50.888  1.00  0.00     0.168 HD
BRANCH   9  11
HETATM   11  C   UNL     1     -40.673  54.805 -49.867  1.00  0.00     0.172 C 
HETATM   12  S   UNL     1     -40.726  53.737 -48.588  1.00  0.00    -0.041 SA
BRANCH  11  13
HETATM   13  N   UNL     1     -41.297  56.028 -49.900  1.00  0.00    -0.365 N 
HETATM   14  H   UNL     1     -41.082  56.582 -49.077  1.00  0.00     0.161 HD
BRANCH  13  15
HETATM   15  C   UNL     1     -42.530  56.320 -50.628  1.00  0.00     0.155 C 
BRANCH  15  16
HETATM   16  C   UNL     1     -42.288  56.923 -52.028  1.00  0.00     0.206 C 
HETATM   17  C   UNL     1     -43.400  57.855 -52.535  1.00  0.00     0.040 C 
HETATM   18  C   UNL     1     -42.803  59.080 -53.267  1.00  0.00     0.001 C 
HETATM   19  C   UNL     1     -42.022  59.984 -52.276  1.00  0.00     0.067 C 
HETATM   20  C   UNL     1     -41.772  58.547 -54.290  1.00  0.00     0.033 C 
HETATM   21  C   UNL     1     -41.099  59.084 -51.423  1.00  0.00     0.246 C 
HETATM   22  N   UNL     1     -40.979  57.713 -52.100  1.00  0.00    -0.065 N 
HETATM   23  C   UNL     1     -40.590  57.892 -53.562  1.00  0.00     0.236 C 
HETATM   24  H   UNL     1     -40.235  57.180 -51.628  1.00  0.00     0.280 HD
BRANCH  19  25
HETATM   25  C   UNL     1     -42.876  60.893 -51.439  1.00  0.00     0.038 A 
HETATM   26  N   UNL     1     -43.339  62.113 -51.882  1.00  0.00    -0.277 N 
HETATM   27  C   UNL     1     -43.163  62.716 -53.185  1.00  0.00     0.179 C 
HETATM   28  N   UNL     1     -44.051  62.783 -50.969  1.00  0.00    -0.172 NA
HETATM   29  C   UNL     1     -44.137  61.965 -49.913  1.00  0.00     0.089 A 
HETATM   30  C   UNL     1     -43.423  60.765 -50.174  1.00  0.00     0.061 A 
BRANCH  29  31
HETATM   31  C   UNL     1     -44.890  62.330 -48.711  1.00  0.00    -0.003 A 
HETATM   32  C   UNL     1     -45.742  61.396 -48.102  1.00  0.00     0.053 A 
HETATM   33  C   UNL     1     -46.454  61.721 -46.941  1.00  0.00     0.102 A 
HETATM   34  C   UNL     1     -46.330  63.010 -46.385  1.00  0.00     0.101 A 
HETATM   35  C   UNL     1     -45.489  63.945 -46.996  1.00  0.00     0.040 A 
HETATM   36  C   UNL     1     -44.772  63.605 -48.148  1.00  0.00     0.017 A 
BRANCH  33  37
HETATM   37  O   UNL     1     -47.296  60.860 -46.280  1.00  0.00    -0.353 OA
HETATM   38  C   UNL     1     -46.778  59.594 -45.900  1.00  0.00     0.210 C 
ENDBRANCH  33  37
BRANCH  34  39
HETATM   39  O   UNL     1     -47.064  63.252 -45.251  1.00  0.00    -0.353 OA
HETATM   40  C   UNL     1     -46.888  64.500 -44.599  1.00  0.00     0.210 C 
ENDBRANCH  34  39
ENDBRANCH  29  31
ENDBRANCH  19  25
ENDBRANCH  15  16
ENDBRANCH  13  15
ENDBRANCH  11  13
ENDBRANCH   9  11
ENDBRANCH   1   9
TORSDOF 9
ENDMDL
MODEL 3
REMARK VINA RESULT:      -8.4      3.618      7.795
REMARK  9 active torsions:
REMARK  status: ('A' for Active; 'I' for Inactive)
REMARK    1  A    between atoms: C_4  and  C_5 
REMARK    2  A    between atoms: C_7  and  O_8 
REMARK    3  A    between atoms: C_10  and  O_11 
REMARK    4  A    between atoms: C_16  and  C_17 
REMARK    5  A    between atoms: C_20  and  C_21 
REMARK    6  A    between atoms: C_21  and  N_22 
REMARK    7  A    between atoms: N_22  and  C_23 
REMARK    8  A    between atoms: C_23  and  N_24 
REMARK    9  A    between atoms: N_24  and  C_25 
ROOT
HETATM    1  C   UNL     1     -44.875  61.766 -48.297  1.00  0.00     0.035 A 
HETATM    2  C   UNL     1     -45.503  60.657 -47.729  1.00  0.00     0.052 A 
HETATM    3  C   UNL     1     -46.070  60.726 -46.450  1.00  0.00     0.046 A 
HETATM    4  C   UNL     1     -46.670  59.548 -45.898  1.00  0.00     0.099 C 
HETATM    5  N   UNL     1     -47.103  58.542 -45.518  1.00  0.00    -0.191 NA
HETATM    6  C   UNL     1     -46.038  61.926 -45.740  1.00  0.00     0.023 A 
HETATM    7  C   UNL     1     -45.448  63.052 -46.317  1.00  0.00     0.004 A 
HETATM    8  C   UNL     1     -44.876  62.973 -47.592  1.00  0.00     0.029 A 
ENDROOT
BRANCH   1   9
HETATM    9  N   UNL     1     -44.302  61.751 -49.587  1.00  0.00    -0.333 N 
HETATM   10  H   UNL     1     -43.430  62.266 -49.686  1.00  0.00     0.168 HD
BRANCH   9  11
HETATM   11  C   UNL     1     -44.817  61.313 -50.778  1.00  0.00     0.172 C 
HETATM   12  S   UNL     1     -45.911  62.280 -51.583  1.00  0.00    -0.041 SA
BRANCH  11  13
HETATM   13  N   UNL     1     -44.334  60.114 -51.240  1.00  0.00    -0.365 N 
HETATM   14  H   UNL     1     -44.817  59.326 -50.817  1.00  0.00     0.161 HD
BRANCH  13  15
HETATM   15  C   UNL     1     -42.988  59.898 -51.766  1.00  0.00     0.155 C 
BRANCH  15  16
HETATM   16  C   UNL     1     -42.824  60.340 -53.236  1.00  0.00     0.206 C 
HETATM   17  C   UNL     1     -41.630  59.715 -53.974  1.00  0.00     0.040 C 
HETATM   18  C   UNL     1     -42.012  59.342 -55.426  1.00  0.00     0.001 C 
HETATM   19  C   UNL     1     -43.061  58.199 -55.441  1.00  0.00     0.067 C 
HETATM   20  C   UNL     1     -42.692  60.581 -56.054  1.00  0.00     0.033 C 
HETATM   21  C   UNL     1     -44.176  58.551 -54.429  1.00  0.00     0.246 C 
HETATM   22  N   UNL     1     -44.070  60.039 -54.072  1.00  0.00    -0.065 N 
HETATM   23  C   UNL     1     -44.023  60.873 -55.347  1.00  0.00     0.236 C 
HETATM   24  H   UNL     1     -44.910  60.307 -53.539  1.00  0.00     0.280 HD
BRANCH  19  25
HETATM   25  C   UNL     1     -42.502  56.821 -55.228  1.00  0.00     0.038 A 
HETATM   26  N   UNL     1     -42.468  55.860 -56.215  1.00  0.00    -0.277 N 
HETATM   27  C   UNL     1     -42.881  55.982 -57.596  1.00  0.00     0.179 C 
HETATM   28  N   UNL     1     -41.964  54.689 -55.810  1.00  0.00    -0.172 NA
HETATM   29  C   UNL     1     -41.579  54.886 -54.543  1.00  0.00     0.089 A 
HETATM   30  C   UNL     1     -41.888  56.214 -54.146  1.00  0.00     0.061 A 
BRANCH  29  31
HETATM   31  C   UNL     1     -40.928  53.834 -53.760  1.00  0.00    -0.003 A 
HETATM   32  C   UNL     1     -40.774  53.979 -52.373  1.00  0.00     0.053 A 
HETATM   33  C   UNL     1     -40.172  52.974 -51.606  1.00  0.00     0.102 A 
HETATM   34  C   UNL     1     -39.694  51.808 -52.236  1.00  0.00     0.101 A 
HETATM   35  C   UNL     1     -39.838  51.666 -53.620  1.00  0.00     0.040 A 
HETATM   36  C   UNL     1     -40.454  52.669 -54.374  1.00  0.00     0.017 A 
BRANCH  33  37
HETATM   37  O   UNL     1     -39.997  53.036 -50.245  1.00  0.00    -0.353 OA
HETATM   38  C   UNL     1     -39.766  54.314 -49.668  1.00  0.00     0.210 C 
ENDBRANCH  33  37
BRANCH  34  39
HETATM   39  O   UNL     1     -39.113  50.873 -51.417  1.00  0.00    -0.353 OA
HETATM   40  C   UNL     1     -39.752  49.613 -51.288  1.00  0.00     0.210 C 
ENDBRANCH  34  39
ENDBRANCH  29  31
ENDBRANCH  19  25
ENDBRANCH  15  16
ENDBRANCH  13  15
ENDBRANCH  11  13
ENDBRANCH   9  11
ENDBRANCH   1   9
TORSDOF 9
ENDMDL
MODEL 4
REMARK VINA RESULT:      -8.2      2.226      5.803
REMARK  9 active torsions:
REMARK  status: ('A' for Active; 'I' for Inactive)
REMARK    1  A    between atoms: C_4  and  C_5 
REMARK    2  A    between atoms: C_7  and  O_8 
REMARK    3  A    between atoms: C_10  and  O_11 
REMARK    4  A    between atoms: C_16  and  C_17 
REMARK    5  A    between atoms: C_20  and  C_21 
REMARK    6  A    between atoms: C_21  and  N_22 
REMARK    7  A    between atoms: N_22  and  C_23 
REMARK    8  A    between atoms: C_23  and  N_24 
REMARK    9  A    between atoms: N_24  and  C_25 
ROOT
HETATM    1  C   UNL     1     -42.619  60.246 -53.210  1.00  0.00     0.035 A 
HETATM    2  C   UNL     1     -43.799  60.023 -52.500  1.00  0.00     0.052 A 
HETATM    3  C   UNL     1     -43.905  58.961 -51.592  1.00  0.00     0.046 A 
HETATM    4  C   UNL     1     -45.151  58.756 -50.917  1.00  0.00     0.099 C 
HETATM    5  N   UNL     1     -46.203  58.643 -50.441  1.00  0.00    -0.191 NA
HETATM    6  C   UNL     1     -42.810  58.128 -51.368  1.00  0.00     0.023 A 
HETATM    7  C   UNL     1     -41.613  58.367 -52.044  1.00  0.00     0.004 A 
HETATM    8  C   UNL     1     -41.517  59.426 -52.955  1.00  0.00     0.029 A 
ENDROOT
BRANCH   1   9
HETATM    9  N   UNL     1     -42.457  61.310 -54.123  1.00  0.00    -0.333 N 
HETATM   10  H   UNL     1     -41.750  61.998 -53.875  1.00  0.00     0.168 HD
BRANCH   9  11
HETATM   11  C   UNL     1     -43.220  61.673 -55.200  1.00  0.00     0.172 C 
HETATM   12  S   UNL     1     -44.335  62.899 -55.016  1.00  0.00    -0.041 SA
BRANCH  11  13
HETATM   13  N   UNL     1     -42.954  61.018 -56.378  1.00  0.00    -0.365 N 
HETATM   14  H   UNL     1     -42.002  61.181 -56.691  1.00  0.00     0.161 HD
BRANCH  13  15
HETATM   15  C   UNL     1     -43.956  60.643 -57.373  1.00  0.00     0.155 C 
BRANCH  15  16
HETATM   16  C   UNL     1     -43.403  59.729 -58.487  1.00  0.00     0.206 C 
HETATM   17  C   UNL     1     -42.137  58.941 -58.112  1.00  0.00     0.040 C 
HETATM   18  C   UNL     1     -42.198  57.500 -58.671  1.00  0.00     0.001 C 
HETATM   19  C   UNL     1     -43.324  56.690 -57.977  1.00  0.00     0.067 C 
HETATM   20  C   UNL     1     -42.579  57.603 -60.166  1.00  0.00     0.033 C 
HETATM   21  C   UNL     1     -44.606  57.554 -57.964  1.00  0.00     0.246 C 
HETATM   22  N   UNL     1     -44.437  58.706 -58.962  1.00  0.00    -0.065 N 
HETATM   23  C   UNL     1     -44.003  58.156 -60.315  1.00  0.00     0.236 C 
HETATM   24  H   UNL     1     -45.348  59.173 -59.078  1.00  0.00     0.280 HD
BRANCH  19  25
HETATM   25  C   UNL     1     -42.976  56.154 -56.617  1.00  0.00     0.038 A 
HETATM   26  N   UNL     1     -43.516  56.650 -55.449  1.00  0.00    -0.277 N 
HETATM   27  C   UNL     1     -44.514  57.685 -55.295  1.00  0.00     0.179 C 
HETATM   28  N   UNL     1     -43.045  56.059 -54.346  1.00  0.00    -0.172 NA
HETATM   29  C   UNL     1     -42.228  55.092 -54.779  1.00  0.00     0.089 A 
HETATM   30  C   UNL     1     -42.167  55.112 -56.198  1.00  0.00     0.061 A 
BRANCH  29  31
HETATM   31  C   UNL     1     -41.547  54.182 -53.855  1.00  0.00    -0.003 A 
HETATM   32  C   UNL     1     -41.614  54.400 -52.472  1.00  0.00     0.053 A 
HETATM   33  C   UNL     1     -40.986  53.529 -51.573  1.00  0.00     0.102 A 
HETATM   34  C   UNL     1     -40.259  52.426 -52.065  1.00  0.00     0.101 A 
HETATM   35  C   UNL     1     -40.183  52.212 -53.444  1.00  0.00     0.040 A 
HETATM   36  C   UNL     1     -40.826  53.082 -54.332  1.00  0.00     0.017 A 
BRANCH  33  37
HETATM   37  O   UNL     1     -41.016  53.668 -50.207  1.00  0.00    -0.353 OA
HETATM   38  C   UNL     1     -41.450  54.914 -49.681  1.00  0.00     0.210 C 
ENDBRANCH  33  37
BRANCH  34  39
HETATM   39  O   UNL     1     -39.669  51.623 -51.122  1.00  0.00    -0.353 OA
HETATM   40  C   UNL     1     -39.486  50.251 -51.437  1.00  0.00     0.210 C 
ENDBRANCH  34  39
ENDBRANCH  29  31
ENDBRANCH  19  25
ENDBRANCH  15  16
ENDBRANCH  13  15
ENDBRANCH  11  13
ENDBRANCH   9  11
ENDBRANCH   1   9
TORSDOF 9
ENDMDL
MODEL 5
REMARK VINA RESULT:      -8.2      2.527      6.817
REMARK  9 active torsions:
REMARK  status: ('A' for Active; 'I' for Inactive)
REMARK    1  A    between atoms: C_4  and  C_5 
REMARK    2  A    between atoms: C_7  and  O_8 
REMARK    3  A    between atoms: C_10  and  O_11 
REMARK    4  A    between atoms: C_16  and  C_17 
REMARK    5  A    between atoms: C_20  and  C_21 
REMARK    6  A    between atoms: C_21  and  N_22 
REMARK    7  A    between atoms: N_22  and  C_23 
REMARK    8  A    between atoms: C_23  and  N_24 
REMARK    9  A    between atoms: N_24  and  C_25 
ROOT
HETATM    1  C   UNL     1     -41.526  59.582 -52.994  1.00  0.00     0.035 A 
HETATM    2  C   UNL     1     -42.386  60.258 -52.127  1.00  0.00     0.052 A 
HETATM    3  C   UNL     1     -42.178  60.234 -50.742  1.00  0.00     0.046 A 
HETATM    4  C   UNL     1     -43.111  60.914 -49.894  1.00  0.00     0.099 C 
HETATM    5  N   UNL     1     -43.932  61.461 -49.283  1.00  0.00    -0.191 NA
HETATM    6  C   UNL     1     -41.081  59.553 -50.216  1.00  0.00     0.023 A 
HETATM    7  C   UNL     1     -40.193  58.907 -51.078  1.00  0.00     0.004 A 
HETATM    8  C   UNL     1     -40.412  58.928 -52.460  1.00  0.00     0.029 A 
ENDROOT
BRANCH   1   9
HETATM    9  N   UNL     1     -41.684  59.587 -54.396  1.00  0.00    -0.333 N 
HETATM   10  H   UNL     1     -40.908  59.198 -54.927  1.00  0.00     0.168 HD
BRANCH   9  11
HETATM   11  C   UNL     1     -42.629  60.197 -55.177  1.00  0.00     0.172 C 
HETATM   12  S   UNL     1     -44.238  59.855 -54.902  1.00  0.00    -0.041 SA
BRANCH  11  13
HETATM   13  N   UNL     1     -42.160  61.098 -56.101  1.00  0.00    -0.365 N 
HETATM   14  H   UNL     1     -41.320  61.566 -55.776  1.00  0.00     0.161 HD
BRANCH  13  15
HETATM   15  C   UNL     1     -42.978  61.766 -57.111  1.00  0.00     0.155 C 
BRANCH  15  16
HETATM   16  C   UNL     1     -42.710  61.268 -58.547  1.00  0.00     0.206 C 
HETATM   17  C   UNL     1     -41.652  60.159 -58.664  1.00  0.00     0.040 C 
HETATM   18  C   UNL     1     -42.079  59.095 -59.702  1.00  0.00     0.001 C 
HETATM   19  C   UNL     1     -43.333  58.324 -59.212  1.00  0.00     0.067 C 
HETATM   20  C   UNL     1     -42.494  59.849 -60.988  1.00  0.00     0.033 C 
HETATM   21  C   UNL     1     -44.371  59.353 -58.709  1.00  0.00     0.246 C 
HETATM   22  N   UNL     1     -43.979  60.744 -59.223  1.00  0.00    -0.065 N 
HETATM   23  C   UNL     1     -43.751  60.691 -60.729  1.00  0.00     0.236 C 
HETATM   24  H   UNL     1     -44.757  61.392 -59.035  1.00  0.00     0.280 HD
BRANCH  19  25
HETATM   25  C   UNL     1     -43.059  57.241 -58.207  1.00  0.00     0.038 A 
HETATM   26  N   UNL     1     -43.342  55.911 -58.434  1.00  0.00    -0.277 N 
HETATM   27  C   UNL     1     -43.874  55.303 -59.633  1.00  0.00     0.179 C 
HETATM   28  N   UNL     1     -43.057  55.115 -57.397  1.00  0.00    -0.172 NA
HETATM   29  C   UNL     1     -42.497  55.912 -56.479  1.00  0.00     0.089 A 
HETATM   30  C   UNL     1     -42.470  57.250 -56.954  1.00  0.00     0.061 A 
BRANCH  29  31
HETATM   31  C   UNL     1     -41.999  55.393 -55.204  1.00  0.00    -0.003 A 
HETATM   32  C   UNL     1     -42.370  56.008 -53.999  1.00  0.00     0.053 A 
HETATM   33  C   UNL     1     -41.919  55.512 -52.768  1.00  0.00     0.102 A 
HETATM   34  C   UNL     1     -41.066  54.391 -52.739  1.00  0.00     0.101 A 
HETATM   35  C   UNL     1     -40.688  53.783 -53.939  1.00  0.00     0.040 A 
HETATM   36  C   UNL     1     -41.155  54.278 -55.162  1.00  0.00     0.017 A 
BRANCH  33  37
HETATM   37  O   UNL     1     -42.247  56.051 -51.548  1.00  0.00    -0.353 OA
HETATM   38  C   UNL     1     -43.528  56.649 -51.414  1.00  0.00     0.210 C 
ENDBRANCH  33  37
BRANCH  34  39
HETATM   39  O   UNL     1     -40.665  53.970 -51.496  1.00  0.00    -0.353 OA
HETATM   40  C   UNL     1     -39.710  52.922 -51.425  1.00  0.00     0.210 C 
ENDBRANCH  34  39
ENDBRANCH  29  31
ENDBRANCH  19  25
ENDBRANCH  15  16
ENDBRANCH  13  15
ENDBRANCH  11  13
ENDBRANCH   9  11
ENDBRANCH   1   9
TORSDOF 9
ENDMDL
MODEL 6
REMARK VINA RESULT:      -8.2      3.815      8.143
REMARK  9 active torsions:
REMARK  status: ('A' for Active; 'I' for Inactive)
REMARK    1  A    between atoms: C_4  and  C_5 
REMARK    2  A    between atoms: C_7  and  O_8 
REMARK    3  A    between atoms: C_10  and  O_11 
REMARK    4  A    between atoms: C_16  and  C_17 
REMARK    5  A    between atoms: C_20  and  C_21 
REMARK    6  A    between atoms: C_21  and  N_22 
REMARK    7  A    between atoms: N_22  and  C_23 
REMARK    8  A    between atoms: C_23  and  N_24 
REMARK    9  A    between atoms: N_24  and  C_25 
ROOT
HETATM    1  C   UNL     1     -40.531  53.504 -52.133  1.00  0.00     0.035 A 
HETATM    2  C   UNL     1     -40.037  52.200 -52.179  1.00  0.00     0.052 A 
HETATM    3  C   UNL     1     -40.154  51.426 -53.341  1.00  0.00     0.046 A 
HETATM    4  C   UNL     1     -39.662  50.081 -53.324  1.00  0.00     0.099 C 
HETATM    5  N   UNL     1     -39.269  48.995 -53.211  1.00  0.00    -0.191 NA
HETATM    6  C   UNL     1     -40.744  51.970 -54.481  1.00  0.00     0.023 A 
HETATM    7  C   UNL     1     -41.205  53.287 -54.456  1.00  0.00     0.004 A 
HETATM    8  C   UNL     1     -41.092  54.052 -53.289  1.00  0.00     0.029 A 
ENDROOT
BRANCH   1   9
HETATM    9  N   UNL     1     -40.425  54.328 -50.991  1.00  0.00    -0.333 N 
HETATM   10  H   UNL     1     -39.601  54.925 -50.956  1.00  0.00     0.168 HD
BRANCH   9  11
HETATM   11  C   UNL     1     -41.152  54.330 -49.831  1.00  0.00     0.172 C 
HETATM   12  S   UNL     1     -40.551  53.512 -48.508  1.00  0.00    -0.041 SA
BRANCH  11  13
HETATM   13  N   UNL     1     -42.311  55.066 -49.845  1.00  0.00    -0.365 N 
HETATM   14  H   UNL     1     -43.085  54.555 -49.430  1.00  0.00     0.161 HD
BRANCH  13  15
HETATM   15  C   UNL     1     -42.616  56.132 -50.796  1.00  0.00     0.155 C 
BRANCH  15  16
HETATM   16  C   UNL     1     -41.505  57.198 -50.902  1.00  0.00     0.206 C 
HETATM   17  C   UNL     1     -41.039  57.510 -52.333  1.00  0.00     0.040 C 
HETATM   18  C   UNL     1     -40.795  59.027 -52.516  1.00  0.00     0.001 C 
HETATM   19  C   UNL     1     -42.129  59.813 -52.410  1.00  0.00     0.067 C 
HETATM   20  C   UNL     1     -39.907  59.494 -51.339  1.00  0.00     0.033 C 
HETATM   21  C   UNL     1     -42.889  59.312 -51.161  1.00  0.00     0.246 C 
HETATM   22  N   UNL     1     -41.918  58.528 -50.269  1.00  0.00    -0.065 N 
HETATM   23  C   UNL     1     -40.668  59.362 -50.013  1.00  0.00     0.236 C 
HETATM   24  H   UNL     1     -42.378  58.347 -49.366  1.00  0.00     0.280 HD
BRANCH  19  25
HETATM   25  C   UNL     1     -42.977  59.794 -53.649  1.00  0.00     0.038 A 
HETATM   26  N   UNL     1     -43.584  60.920 -54.165  1.00  0.00    -0.277 N 
HETATM   27  C   UNL     1     -43.493  62.282 -53.689  1.00  0.00     0.179 C 
HETATM   28  N   UNL     1     -44.325  60.680 -55.253  1.00  0.00    -0.172 NA
HETATM   29  C   UNL     1     -44.154  59.381 -55.523  1.00  0.00     0.089 A 
HETATM   30  C   UNL     1     -43.305  58.793 -54.547  1.00  0.00     0.061 A 
BRANCH  29  31
HETATM   31  C   UNL     1     -44.776  58.743 -56.685  1.00  0.00    -0.003 A 
HETATM   32  C   UNL     1     -43.979  58.187 -57.696  1.00  0.00     0.053 A 
HETATM   33  C   UNL     1     -44.558  57.556 -58.805  1.00  0.00     0.102 A 
HETATM   34  C   UNL     1     -45.961  57.494 -58.917  1.00  0.00     0.101 A 
HETATM   35  C   UNL     1     -46.757  58.056 -57.915  1.00  0.00     0.040 A 
HETATM   36  C   UNL     1     -46.169  58.672 -56.805  1.00  0.00     0.017 A 
BRANCH  33  37
HETATM   37  O   UNL     1     -43.847  56.978 -59.828  1.00  0.00    -0.353 OA
HETATM   38  C   UNL     1     -43.041  55.851 -59.516  1.00  0.00     0.210 C 
ENDBRANCH  33  37
BRANCH  34  39
HETATM   39  O   UNL     1     -46.450  56.864 -60.034  1.00  0.00    -0.353 OA
HETATM   40  C   UNL     1     -47.246  57.623 -60.931  1.00  0.00     0.210 C 
ENDBRANCH  34  39
ENDBRANCH  29  31
ENDBRANCH  19  25
ENDBRANCH  15  16
ENDBRANCH  13  15
ENDBRANCH  11  13
ENDBRANCH   9  11
ENDBRANCH   1   9
TORSDOF 9
ENDMDL
MODEL 7
REMARK VINA RESULT:      -8.2      3.838      7.612
REMARK  9 active torsions:
REMARK  status: ('A' for Active; 'I' for Inactive)
REMARK    1  A    between atoms: C_4  and  C_5 
REMARK    2  A    between atoms: C_7  and  O_8 
REMARK    3  A    between atoms: C_10  and  O_11 
REMARK    4  A    between atoms: C_16  and  C_17 
REMARK    5  A    between atoms: C_20  and  C_21 
REMARK    6  A    between atoms: C_21  and  N_22 
REMARK    7  A    between atoms: N_22  and  C_23 
REMARK    8  A    between atoms: C_23  and  N_24 
REMARK    9  A    between atoms: N_24  and  C_25 
ROOT
HETATM    1  C   UNL     1     -45.382  61.864 -48.556  1.00  0.00     0.035 A 
HETATM    2  C   UNL     1     -46.505  62.574 -48.981  1.00  0.00     0.052 A 
HETATM    3  C   UNL     1     -47.387  63.148 -48.056  1.00  0.00     0.046 A 
HETATM    4  C   UNL     1     -48.545  63.836 -48.545  1.00  0.00     0.099 C 
HETATM    5  N   UNL     1     -49.470  64.343 -49.025  1.00  0.00    -0.191 NA
HETATM    6  C   UNL     1     -47.129  63.039 -46.690  1.00  0.00     0.023 A 
HETATM    7  C   UNL     1     -45.986  62.364 -46.257  1.00  0.00     0.004 A 
HETATM    8  C   UNL     1     -45.114  61.786 -47.187  1.00  0.00     0.029 A 
ENDROOT
BRANCH   1   9
HETATM    9  N   UNL     1     -44.456  61.280 -49.448  1.00  0.00    -0.333 N 
HETATM   10  H   UNL     1     -44.557  60.277 -49.591  1.00  0.00     0.168 HD
BRANCH   9  11
HETATM   11  C   UNL     1     -43.325  61.803 -50.016  1.00  0.00     0.172 C 
HETATM   12  S   UNL     1     -43.215  63.455 -50.207  1.00  0.00    -0.041 SA
BRANCH  11  13
HETATM   13  N   UNL     1     -42.338  60.903 -50.335  1.00  0.00    -0.365 N 
HETATM   14  H   UNL     1     -41.412  61.298 -50.197  1.00  0.00     0.161 HD
BRANCH  13  15
HETATM   15  C   UNL     1     -42.485  59.795 -51.276  1.00  0.00     0.155 C 
BRANCH  15  16
HETATM   16  C   UNL     1     -42.629  60.250 -52.744  1.00  0.00     0.206 C 
HETATM   17  C   UNL     1     -41.587  59.667 -53.711  1.00  0.00     0.040 C 
HETATM   18  C   UNL     1     -42.239  59.291 -55.063  1.00  0.00     0.001 C 
HETATM   19  C   UNL     1     -43.236  58.116 -54.882  1.00  0.00     0.067 C 
HETATM   20  C   UNL     1     -43.066  60.511 -55.529  1.00  0.00     0.033 C 
HETATM   21  C   UNL     1     -44.138  58.427 -53.667  1.00  0.00     0.246 C 
HETATM   22  N   UNL     1     -44.007  59.916 -53.320  1.00  0.00    -0.065 N 
HETATM   23  C   UNL     1     -44.238  60.757 -54.569  1.00  0.00     0.236 C 
HETATM   24  H   UNL     1     -44.732  60.154 -52.628  1.00  0.00     0.280 HD
BRANCH  19  25
HETATM   25  C   UNL     1     -42.605  56.755 -54.801  1.00  0.00     0.038 A 
HETATM   26  N   UNL     1     -42.464  55.922 -55.890  1.00  0.00    -0.277 N 
HETATM   27  C   UNL     1     -42.815  56.185 -57.268  1.00  0.00     0.179 C 
HETATM   28  N   UNL     1     -41.911  54.740 -55.596  1.00  0.00    -0.172 NA
HETATM   29  C   UNL     1     -41.602  54.804 -54.296  1.00  0.00     0.089 A 
HETATM   30  C   UNL     1     -42.010  56.057 -53.764  1.00  0.00     0.061 A 
BRANCH  29  31
HETATM   31  C   UNL     1     -40.927  53.703 -53.605  1.00  0.00    -0.003 A 
HETATM   32  C   UNL     1     -40.891  53.666 -52.203  1.00  0.00     0.053 A 
HETATM   33  C   UNL     1     -40.268  52.610 -51.526  1.00  0.00     0.102 A 
HETATM   34  C   UNL     1     -39.650  51.579 -52.262  1.00  0.00     0.101 A 
HETATM   35  C   UNL     1     -39.677  51.619 -53.659  1.00  0.00     0.040 A 
HETATM   36  C   UNL     1     -40.314  52.671 -54.325  1.00  0.00     0.017 A 
BRANCH  33  37
HETATM   37  O   UNL     1     -40.202  52.496 -50.159  1.00  0.00    -0.353 OA
HETATM   38  C   UNL     1     -40.226  53.693 -49.396  1.00  0.00     0.210 C 
ENDBRANCH  33  37
BRANCH  34  39
HETATM   39  O   UNL     1     -39.058  50.583 -51.526  1.00  0.00    -0.353 OA
HETATM   40  C   UNL     1     -39.860  49.481 -51.131  1.00  0.00     0.210 C 
ENDBRANCH  34  39
ENDBRANCH  29  31
ENDBRANCH  19  25
ENDBRANCH  15  16
ENDBRANCH  13  15
ENDBRANCH  11  13
ENDBRANCH   9  11
ENDBRANCH   1   9
TORSDOF 9
ENDMDL
MODEL 8
REMARK VINA RESULT:      -8.1      2.413      6.293
REMARK  9 active torsions:
REMARK  status: ('A' for Active; 'I' for Inactive)
REMARK    1  A    between atoms: C_4  and  C_5 
REMARK    2  A    between atoms: C_7  and  O_8 
REMARK    3  A    between atoms: C_10  and  O_11 
REMARK    4  A    between atoms: C_16  and  C_17 
REMARK    5  A    between atoms: C_20  and  C_21 
REMARK    6  A    between atoms: C_21  and  N_22 
REMARK    7  A    between atoms: N_22  and  C_23 
REMARK    8  A    between atoms: C_23  and  N_24 
REMARK    9  A    between atoms: N_24  and  C_25 
ROOT
HETATM    1  C   UNL     1     -44.297  59.449 -52.947  1.00  0.00     0.035 A 
HETATM    2  C   UNL     1     -44.722  60.582 -52.251  1.00  0.00     0.052 A 
HETATM    3  C   UNL     1     -45.449  60.465 -51.059  1.00  0.00     0.046 A 
HETATM    4  C   UNL     1     -45.892  61.659 -50.403  1.00  0.00     0.099 C 
HETATM    5  N   UNL     1     -46.238  62.673 -49.959  1.00  0.00    -0.191 NA
HETATM    6  C   UNL     1     -45.731  59.202 -50.539  1.00  0.00     0.023 A 
HETATM    7  C   UNL     1     -45.276  58.065 -51.208  1.00  0.00     0.004 A 
HETATM    8  C   UNL     1     -44.557  58.189 -52.402  1.00  0.00     0.029 A 
ENDROOT
BRANCH   1   9
HETATM    9  N   UNL     1     -43.550  59.515 -54.143  1.00  0.00    -0.333 N 
HETATM   10  H   UNL     1     -44.012  59.143 -54.970  1.00  0.00     0.168 HD
BRANCH   9  11
HETATM   11  C   UNL     1     -42.233  59.828 -54.346  1.00  0.00     0.172 C 
HETATM   12  S   UNL     1     -41.080  59.115 -53.374  1.00  0.00    -0.041 SA
BRANCH  11  13
HETATM   13  N   UNL     1     -41.968  60.679 -55.391  1.00  0.00    -0.365 N 
HETATM   14  H   UNL     1     -41.066  61.134 -55.285  1.00  0.00     0.161 HD
BRANCH  13  15
HETATM   15  C   UNL     1     -42.980  61.332 -56.218  1.00  0.00     0.155 C 
BRANCH  15  16
HETATM   16  C   UNL     1     -42.833  61.027 -57.724  1.00  0.00     0.206 C 
HETATM   17  C   UNL     1     -41.812  59.931 -58.069  1.00  0.00     0.040 C 
HETATM   18  C   UNL     1     -42.341  59.021 -59.202  1.00  0.00     0.001 C 
HETATM   19  C   UNL     1     -43.571  58.206 -58.722  1.00  0.00     0.067 C 
HETATM   20  C   UNL     1     -42.835  59.944 -60.340  1.00  0.00     0.033 C 
HETATM   21  C   UNL     1     -44.544  59.171 -58.007  1.00  0.00     0.246 C 
HETATM   22  N   UNL     1     -44.161  60.613 -58.362  1.00  0.00    -0.065 N 
HETATM   23  C   UNL     1     -44.049  60.759 -59.875  1.00  0.00     0.236 C 
HETATM   24  H   UNL     1     -44.908  61.240 -58.029  1.00  0.00     0.280 HD
BRANCH  19  25
HETATM   25  C   UNL     1     -43.245  56.995 -57.893  1.00  0.00     0.038 A 
HETATM   26  N   UNL     1     -43.531  55.707 -58.294  1.00  0.00    -0.277 N 
HETATM   27  C   UNL     1     -44.114  55.268 -59.543  1.00  0.00     0.179 C 
HETATM   28  N   UNL     1     -43.195  54.777 -57.395  1.00  0.00    -0.172 NA
HETATM   29  C   UNL     1     -42.598  55.442 -56.398  1.00  0.00     0.089 A 
HETATM   30  C   UNL     1     -42.600  56.834 -56.680  1.00  0.00     0.061 A 
BRANCH  29  31
HETATM   31  C   UNL     1     -42.041  54.754 -55.232  1.00  0.00    -0.003 A 
HETATM   32  C   UNL     1     -42.798  54.626 -54.059  1.00  0.00     0.053 A 
HETATM   33  C   UNL     1     -42.288  53.953 -52.941  1.00  0.00     0.102 A 
HETATM   34  C   UNL     1     -40.987  53.413 -52.987  1.00  0.00     0.101 A 
HETATM   35  C   UNL     1     -40.227  53.548 -54.152  1.00  0.00     0.040 A 
HETATM   36  C   UNL     1     -40.752  54.209 -55.267  1.00  0.00     0.017 A 
BRANCH  33  37
HETATM   37  O   UNL     1     -42.972  53.776 -51.763  1.00  0.00    -0.353 OA
HETATM   38  C   UNL     1     -43.445  54.936 -51.095  1.00  0.00     0.210 C 
ENDBRANCH  33  37
BRANCH  34  39
HETATM   39  O   UNL     1     -40.559  52.773 -51.851  1.00  0.00    -0.353 OA
HETATM   40  C   UNL     1     -39.552  51.782 -51.985  1.00  0.00     0.210 C 
ENDBRANCH  34  39
ENDBRANCH  29  31
ENDBRANCH  19  25
ENDBRANCH  15  16
ENDBRANCH  13  15
ENDBRANCH  11  13
ENDBRANCH   9  11
ENDBRANCH   1   9
TORSDOF 9
ENDMDL
MODEL 9
REMARK VINA RESULT:      -8.0      2.957      6.758
REMARK  9 active torsions:
REMARK  status: ('A' for Active; 'I' for Inactive)
REMARK    1  A    between atoms: C_4  and  C_5 
REMARK    2  A    between atoms: C_7  and  O_8 
REMARK    3  A    between atoms: C_10  and  O_11 
REMARK    4  A    between atoms: C_16  and  C_17 
REMARK    5  A    between atoms: C_20  and  C_21 
REMARK    6  A    between atoms: C_21  and  N_22 
REMARK    7  A    between atoms: N_22  and  C_23 
REMARK    8  A    between atoms: C_23  and  N_24 
REMARK    9  A    between atoms: N_24  and  C_25 
ROOT
HETATM    1  C   UNL     1     -41.687  59.435 -50.959  1.00  0.00     0.035 A 
HETATM    2  C   UNL     1     -40.548  59.778 -50.228  1.00  0.00     0.052 A 
HETATM    3  C   UNL     1     -39.266  59.490 -50.715  1.00  0.00     0.046 A 
HETATM    4  C   UNL     1     -38.132  59.830 -49.909  1.00  0.00     0.099 C 
HETATM    5  N   UNL     1     -37.275  60.109 -49.179  1.00  0.00    -0.191 NA
HETATM    6  C   UNL     1     -39.117  58.878 -51.959  1.00  0.00     0.023 A 
HETATM    7  C   UNL     1     -40.249  58.568 -52.714  1.00  0.00     0.004 A 
HETATM    8  C   UNL     1     -41.527  58.852 -52.218  1.00  0.00     0.029 A 
ENDROOT
BRANCH   1   9
HETATM    9  N   UNL     1     -42.998  59.717 -50.519  1.00  0.00    -0.333 N 
HETATM   10  H   UNL     1     -43.454  58.974 -49.993  1.00  0.00     0.168 HD
BRANCH   9  11
HETATM   11  C   UNL     1     -43.833  60.754 -50.836  1.00  0.00     0.172 C 
HETATM   12  S   UNL     1     -43.297  62.316 -50.602  1.00  0.00    -0.041 SA
BRANCH  11  13
HETATM   13  N   UNL     1     -45.045  60.409 -51.383  1.00  0.00    -0.365 N 
HETATM   14  H   UNL     1     -45.805  60.539 -50.721  1.00  0.00     0.161 HD
BRANCH  13  15
HETATM   15  C   UNL     1     -45.232  59.457 -52.475  1.00  0.00     0.155 C 
BRANCH  15  16
HETATM   16  C   UNL     1     -44.872  60.033 -53.861  1.00  0.00     0.206 C 
HETATM   17  C   UNL     1     -43.436  59.749 -54.329  1.00  0.00     0.040 C 
HETATM   18  C   UNL     1     -43.404  59.409 -55.838  1.00  0.00     0.001 C 
HETATM   19  C   UNL     1     -44.127  58.063 -56.112  1.00  0.00     0.067 C 
HETATM   20  C   UNL     1     -44.209  60.506 -56.573  1.00  0.00     0.033 C 
HETATM   21  C   UNL     1     -45.481  58.079 -55.366  1.00  0.00     0.246 C 
HETATM   22  N   UNL     1     -45.807  59.522 -54.960  1.00  0.00    -0.065 N 
HETATM   23  C   UNL     1     -45.690  60.437 -56.173  1.00  0.00     0.236 C 
HETATM   24  H   UNL     1     -46.779  59.554 -54.621  1.00  0.00     0.280 HD
BRANCH  19  25
HETATM   25  C   UNL     1     -43.317  56.835 -55.812  1.00  0.00     0.038 A 
HETATM   26  N   UNL     1     -42.961  55.912 -56.773  1.00  0.00    -0.277 N 
HETATM   27  C   UNL     1     -43.224  55.955 -58.194  1.00  0.00     0.179 C 
HETATM   28  N   UNL     1     -42.272  54.872 -56.291  1.00  0.00    -0.172 NA
HETATM   29  C   UNL     1     -42.090  55.135 -54.992  1.00  0.00     0.089 A 
HETATM   30  C   UNL     1     -42.720  56.363 -54.656  1.00  0.00     0.061 A 
BRANCH  29  31
HETATM   31  C   UNL     1     -41.328  54.239 -54.120  1.00  0.00    -0.003 A 
HETATM   32  C   UNL     1     -41.297  54.459 -52.735  1.00  0.00     0.053 A 
HETATM   33  C   UNL     1     -40.589  53.600 -51.884  1.00  0.00     0.102 A 
HETATM   34  C   UNL     1     -39.880  52.510 -52.427  1.00  0.00     0.101 A 
HETATM   35  C   UNL     1     -39.902  52.295 -53.808  1.00  0.00     0.040 A 
HETATM   36  C   UNL     1     -40.623  53.150 -54.647  1.00  0.00     0.017 A 
BRANCH  33  37
HETATM   37  O   UNL     1     -40.521  53.742 -50.520  1.00  0.00    -0.353 OA
HETATM   38  C   UNL     1     -41.535  54.509 -49.886  1.00  0.00     0.210 C 
ENDBRANCH  33  37
BRANCH  34  39
HETATM   39  O   UNL     1     -39.208  51.720 -51.529  1.00  0.00    -0.353 OA
HETATM   40  C   UNL     1     -39.923  50.661 -50.911  1.00  0.00     0.210 C 
ENDBRANCH  34  39
ENDBRANCH  29  31
ENDBRANCH  19  25
ENDBRANCH  15  16
ENDBRANCH  13  15
ENDBRANCH  11  13
ENDBRANCH   9  11
ENDBRANCH   1   9
TORSDOF 9
ENDMDL
MODEL 10
REMARK VINA RESULT:      -8.0      1.626      2.124
REMARK  9 active torsions:
REMARK  status: ('A' for Active; 'I' for Inactive)
REMARK    1  A    between atoms: C_4  and  C_5 
REMARK    2  A    between atoms: C_7  and  O_8 
REMARK    3  A    between atoms: C_10  and  O_11 
REMARK    4  A    between atoms: C_16  and  C_17 
REMARK    5  A    between atoms: C_20  and  C_21 
REMARK    6  A    between atoms: C_21  and  N_22 
REMARK    7  A    between atoms: N_22  and  C_23 
REMARK    8  A    between atoms: C_23  and  N_24 
REMARK    9  A    between atoms: N_24  and  C_25 
ROOT
HETATM    1  C   UNL     1     -43.035  58.185 -59.271  1.00  0.00     0.035 A 
HETATM    2  C   UNL     1     -42.889  57.328 -58.180  1.00  0.00     0.052 A 
HETATM    3  C   UNL     1     -43.335  56.001 -58.241  1.00  0.00     0.046 A 
HETATM    4  C   UNL     1     -43.194  55.174 -57.080  1.00  0.00     0.099 C 
HETATM    5  N   UNL     1     -43.071  54.587 -56.087  1.00  0.00    -0.191 NA
HETATM    6  C   UNL     1     -43.907  55.514 -59.415  1.00  0.00     0.023 A 
HETATM    7  C   UNL     1     -44.021  56.354 -60.525  1.00  0.00     0.004 A 
HETATM    8  C   UNL     1     -43.581  57.680 -60.454  1.00  0.00     0.029 A 
ENDROOT
BRANCH   1   9
HETATM    9  N   UNL     1     -42.589  59.525 -59.265  1.00  0.00    -0.333 N 
HETATM   10  H   UNL     1     -41.807  59.730 -59.883  1.00  0.00     0.168 HD
BRANCH   9  11
HETATM   11  C   UNL     1     -42.912  60.560 -58.429  1.00  0.00     0.172 C 
HETATM   12  S   UNL     1     -44.390  61.308 -58.615  1.00  0.00    -0.041 SA
BRANCH  11  13
HETATM   13  N   UNL     1     -41.992  60.860 -57.455  1.00  0.00    -0.365 N 
HETATM   14  H   UNL     1     -41.167  61.307 -57.843  1.00  0.00     0.161 HD
BRANCH  13  15
HETATM   15  C   UNL     1     -41.865  60.163 -56.177  1.00  0.00     0.155 C 
BRANCH  15  16
HETATM   16  C   UNL     1     -42.957  60.547 -55.156  1.00  0.00     0.206 C 
HETATM   17  C   UNL     1     -43.932  59.417 -54.791  1.00  0.00     0.040 C 
HETATM   18  C   UNL     1     -44.258  59.436 -53.279  1.00  0.00     0.001 C 
HETATM   19  C   UNL     1     -42.998  59.087 -52.443  1.00  0.00     0.067 C 
HETATM   20  C   UNL     1     -44.649  60.886 -52.912  1.00  0.00     0.033 C 
HETATM   21  C   UNL     1     -41.815  59.926 -52.974  1.00  0.00     0.246 C 
HETATM   22  N   UNL     1     -42.365  61.065 -53.843  1.00  0.00    -0.065 N 
HETATM   23  C   UNL     1     -43.444  61.821 -53.078  1.00  0.00     0.236 C 
HETATM   24  H   UNL     1     -41.596  61.717 -54.051  1.00  0.00     0.280 HD
BRANCH  19  25
HETATM   25  C   UNL     1     -42.676  57.622 -52.361  1.00  0.00     0.038 A 
HETATM   26  N   UNL     1     -43.412  56.728 -51.613  1.00  0.00    -0.277 N 
HETATM   27  C   UNL     1     -44.610  56.980 -50.842  1.00  0.00     0.179 C 
HETATM   28  N   UNL     1     -42.936  55.478 -51.645  1.00  0.00    -0.172 NA
HETATM   29  C   UNL     1     -41.903  55.512 -52.495  1.00  0.00     0.089 A 
HETATM   30  C   UNL     1     -41.716  56.836 -52.974  1.00  0.00     0.061 A 
BRANCH  29  31
HETATM   31  C   UNL     1     -41.141  54.309 -52.835  1.00  0.00    -0.003 A 
HETATM   32  C   UNL     1     -40.629  53.487 -51.821  1.00  0.00     0.053 A 
HETATM   33  C   UNL     1     -39.915  52.322 -52.128  1.00  0.00     0.102 A 
HETATM   34  C   UNL     1     -39.690  51.978 -53.476  1.00  0.00     0.101 A 
HETATM   35  C   UNL     1     -40.191  52.801 -54.489  1.00  0.00     0.040 A 
HETATM   36  C   UNL     1     -40.915  53.955 -54.170  1.00  0.00     0.017 A 
BRANCH  33  37
HETATM   37  O   UNL     1     -39.393  51.461 -51.194  1.00  0.00    -0.353 OA
HETATM   38  C   UNL     1     -40.307  50.698 -50.419  1.00  0.00     0.210 C 
ENDBRANCH  33  37
BRANCH  34  39
HETATM   39  O   UNL     1     -38.978  50.825 -53.695  1.00  0.00    -0.353 OA
HETATM   40  C   UNL     1     -39.670  49.709 -54.233  1.00  0.00     0.210 C 
ENDBRANCH  34  39
ENDBRANCH  29  31
ENDBRANCH  19  25
ENDBRANCH  15  16
ENDBRANCH  13  15
ENDBRANCH  11  13
ENDBRANCH   9  11
ENDBRANCH   1   9
TORSDOF 9
ENDMDL
