MODEL 1
REMARK VINA RESULT:      -8.9      0.000      0.000
REMARK  2 active torsions:
REMARK  status: ('A' for Active; 'I' for Inactive)
REMARK    1  A    between atoms: C_2  and  N_3 
REMARK    2  A    between atoms: N_3  and  C_4 
ROOT
HETATM    1  C   UNL     1     -43.584  56.411 -53.982  1.00  0.00     0.143 A 
HETATM    2  N   UNL     1     -44.054  57.058 -52.885  1.00  0.00    -0.223 NA
HETATM    3  C   UNL     1     -44.131  58.392 -52.876  1.00  0.00     0.236 A 
HETATM    4  N   UNL     1     -43.768  59.218 -53.848  1.00  0.00    -0.234 NA
HETATM    5  C   UNL     1     -43.343  58.567 -54.942  1.00  0.00     0.114 A 
HETATM    6  C   UNL     1     -43.264  57.192 -55.131  1.00  0.00     0.053 A 
HETATM    7  S   UNL     1     -42.791  59.464 -56.271  1.00  0.00    -0.073 SA
HETATM    8  C   UNL     1     -42.466  58.056 -57.173  1.00  0.00    -0.008 C 
HETATM    9  C   UNL     1     -42.861  56.900 -56.511  1.00  0.00    -0.028 C 
HETATM   10  C   UNL     1     -42.831  55.549 -57.179  1.00  0.00     0.041 C 
HETATM   11  C   UNL     1     -43.559  55.502 -58.528  1.00  0.00     0.005 C 
HETATM   12  C   UNL     1     -42.798  56.131 -59.693  1.00  0.00     0.001 C 
HETATM   13  C   UNL     1     -42.719  57.656 -59.648  1.00  0.00     0.005 C 
HETATM   14  C   UNL     1     -41.832  58.187 -58.528  1.00  0.00     0.047 C 
ENDROOT
BRANCH   1  15
HETATM   15  N   UNL     1     -43.431  55.014 -53.931  1.00  0.00    -0.340 N 
HETATM   16  H   UNL     1     -43.920  54.528 -54.665  1.00  0.00     0.167 HD
BRANCH  15  17
HETATM   17  C   UNL     1     -42.400  54.214 -53.394  1.00  0.00     0.036 A 
HETATM   18  C   UNL     1     -41.983  54.269 -52.061  1.00  0.00     0.032 A 
HETATM   19  C   UNL     1     -40.948  53.453 -51.592  1.00  0.00     0.042 A 
HETATM   20  C   UNL     1     -40.353  52.522 -52.438  1.00  0.00     0.102 A 
HETATM   21  C   UNL     1     -40.782  52.421 -53.761  1.00  0.00     0.104 A 
HETATM   22  O   UNL     1     -39.289  51.826 -51.937  1.00  0.00    -0.348 OA
HETATM   23  C   UNL     1     -41.786  53.271 -54.235  1.00  0.00     0.069 A 
HETATM   24  O   UNL     1     -40.202  51.587 -54.679  1.00  0.00    -0.348 OA
HETATM   25  C   UNL     1     -40.319  50.212 -54.304  1.00  0.00     0.178 C 
HETATM   26  C   UNL     1     -39.251  49.800 -53.302  1.00  0.00     0.053 C 
HETATM   27  C   UNL     1     -39.514  50.418 -51.938  1.00  0.00     0.178 C 
ENDBRANCH  15  17
ENDBRANCH   1  15
TORSDOF 2
ENDMDL
MODEL 2
REMARK VINA RESULT:      -8.7      3.207      7.115
REMARK  2 active torsions:
REMARK  status: ('A' for Active; 'I' for Inactive)
REMARK    1  A    between atoms: C_2  and  N_3 
REMARK    2  A    between atoms: N_3  and  C_4 
ROOT
HETATM    1  C   UNL     1     -42.870  56.220 -52.863  1.00  0.00     0.143 A 
HETATM    2  N   UNL     1     -42.968  57.490 -52.390  1.00  0.00    -0.223 NA
HETATM    3  C   UNL     1     -42.278  57.854 -51.305  1.00  0.00     0.236 A 
HETATM    4  N   UNL     1     -41.479  57.090 -50.574  1.00  0.00    -0.234 NA
HETATM    5  C   UNL     1     -41.358  55.849 -51.072  1.00  0.00     0.114 A 
HETATM    6  C   UNL     1     -41.955  55.337 -52.219  1.00  0.00     0.053 A 
HETATM    7  S   UNL     1     -40.412  54.715 -50.240  1.00  0.00    -0.073 SA
HETATM    8  C   UNL     1     -40.720  53.506 -51.398  1.00  0.00    -0.008 C 
HETATM    9  C   UNL     1     -41.464  53.978 -52.472  1.00  0.00    -0.028 C 
HETATM   10  C   UNL     1     -41.716  53.139 -53.698  1.00  0.00     0.041 C 
HETATM   11  C   UNL     1     -40.446  52.549 -54.325  1.00  0.00     0.005 C 
HETATM   12  C   UNL     1     -39.860  51.349 -53.584  1.00  0.00     0.001 C 
HETATM   13  C   UNL     1     -39.194  51.692 -52.252  1.00  0.00     0.005 C 
HETATM   14  C   UNL     1     -40.178  52.123 -51.172  1.00  0.00     0.047 C 
ENDROOT
BRANCH   1  15
HETATM   15  N   UNL     1     -43.674  55.840 -53.952  1.00  0.00    -0.340 N 
HETATM   16  H   UNL     1     -44.643  55.707 -53.710  1.00  0.00     0.167 HD
BRANCH  15  17
HETATM   17  C   UNL     1     -43.525  56.065 -55.337  1.00  0.00     0.036 A 
HETATM   18  C   UNL     1     -42.988  55.129 -56.226  1.00  0.00     0.032 A 
HETATM   19  C   UNL     1     -42.860  55.417 -57.589  1.00  0.00     0.042 A 
HETATM   20  C   UNL     1     -43.323  56.627 -58.096  1.00  0.00     0.102 A 
HETATM   21  C   UNL     1     -43.901  57.558 -57.233  1.00  0.00     0.104 A 
HETATM   22  O   UNL     1     -43.081  56.874 -59.417  1.00  0.00    -0.348 OA
HETATM   23  C   UNL     1     -43.985  57.283 -55.865  1.00  0.00     0.069 A 
HETATM   24  O   UNL     1     -44.315  58.800 -57.635  1.00  0.00    -0.348 OA
HETATM   25  C   UNL     1     -45.356  58.729 -58.611  1.00  0.00     0.178 C 
HETATM   26  C   UNL     1     -44.812  58.493 -60.011  1.00  0.00     0.053 C 
HETATM   27  C   UNL     1     -44.282  57.076 -60.160  1.00  0.00     0.178 C 
ENDBRANCH  15  17
ENDBRANCH   1  15
TORSDOF 2
ENDMDL
MODEL 3
REMARK VINA RESULT:      -8.4      3.630      7.467
REMARK  2 active torsions:
REMARK  status: ('A' for Active; 'I' for Inactive)
REMARK    1  A    between atoms: C_2  and  N_3 
REMARK    2  A    between atoms: N_3  and  C_4 
ROOT
HETATM    1  C   UNL     1     -42.250  57.638 -55.845  1.00  0.00     0.143 A 
HETATM    2  N   UNL     1     -42.488  58.963 -55.669  1.00  0.00    -0.223 NA
HETATM    3  C   UNL     1     -42.708  59.446 -54.442  1.00  0.00     0.236 A 
HETATM    4  N   UNL     1     -42.749  58.758 -53.310  1.00  0.00    -0.234 NA
HETATM    5  C   UNL     1     -42.474  57.457 -53.490  1.00  0.00     0.114 A 
HETATM    6  C   UNL     1     -42.163  56.816 -54.684  1.00  0.00     0.053 A 
HETATM    7  S   UNL     1     -42.527  56.411 -52.156  1.00  0.00    -0.073 SA
HETATM    8  C   UNL     1     -42.093  55.066 -53.106  1.00  0.00    -0.008 C 
HETATM    9  C   UNL     1     -41.812  55.415 -54.422  1.00  0.00    -0.028 C 
HETATM   10  C   UNL     1     -41.244  54.426 -55.406  1.00  0.00     0.041 C 
HETATM   11  C   UNL     1     -39.985  53.702 -54.910  1.00  0.00     0.005 C 
HETATM   12  C   UNL     1     -40.238  52.594 -53.891  1.00  0.00     0.001 C 
HETATM   13  C   UNL     1     -40.650  53.090 -52.506  1.00  0.00     0.005 C 
HETATM   14  C   UNL     1     -42.043  53.707 -52.469  1.00  0.00     0.047 C 
ENDROOT
BRANCH   1  15
HETATM   15  N   UNL     1     -42.109  57.144 -57.154  1.00  0.00    -0.340 N 
HETATM   16  H   UNL     1     -41.239  56.663 -57.311  1.00  0.00     0.167 HD
BRANCH  15  17
HETATM   17  C   UNL     1     -43.075  56.768 -58.111  1.00  0.00     0.036 A 
HETATM   18  C   UNL     1     -43.383  55.442 -58.430  1.00  0.00     0.032 A 
HETATM   19  C   UNL     1     -44.347  55.134 -59.396  1.00  0.00     0.042 A 
HETATM   20  C   UNL     1     -45.063  56.152 -60.019  1.00  0.00     0.102 A 
HETATM   21  C   UNL     1     -44.801  57.481 -59.685  1.00  0.00     0.104 A 
HETATM   22  O   UNL     1     -45.921  55.781 -61.015  1.00  0.00    -0.348 OA
HETATM   23  C   UNL     1     -43.806  57.783 -58.752  1.00  0.00     0.069 A 
HETATM   24  O   UNL     1     -45.406  58.544 -60.301  1.00  0.00    -0.348 OA
HETATM   25  C   UNL     1     -46.822  58.544 -60.106  1.00  0.00     0.178 C 
HETATM   26  C   UNL     1     -47.532  57.617 -61.080  1.00  0.00     0.053 C 
HETATM   27  C   UNL     1     -47.268  56.159 -60.739  1.00  0.00     0.178 C 
ENDBRANCH  15  17
ENDBRANCH   1  15
TORSDOF 2
ENDMDL
MODEL 4
REMARK VINA RESULT:      -8.3      3.514      7.032
REMARK  2 active torsions:
REMARK  status: ('A' for Active; 'I' for Inactive)
REMARK    1  A    between atoms: C_2  and  N_3 
REMARK    2  A    between atoms: N_3  and  C_4 
ROOT
HETATM    1  C   UNL     1     -41.487  58.509 -53.717  1.00  0.00     0.143 A 
HETATM    2  N   UNL     1     -41.341  59.655 -53.003  1.00  0.00    -0.223 NA
HETATM    3  C   UNL     1     -41.136  59.598 -51.684  1.00  0.00     0.236 A 
HETATM    4  N   UNL     1     -41.072  58.508 -50.932  1.00  0.00    -0.234 NA
HETATM    5  C   UNL     1     -41.178  57.381 -51.653  1.00  0.00     0.114 A 
HETATM    6  C   UNL     1     -41.330  57.270 -53.031  1.00  0.00     0.053 A 
HETATM    7  S   UNL     1     -41.166  55.886 -50.853  1.00  0.00    -0.073 SA
HETATM    8  C   UNL     1     -41.318  55.025 -52.314  1.00  0.00    -0.008 C 
HETATM    9  C   UNL     1     -41.283  55.857 -53.426  1.00  0.00    -0.028 C 
HETATM   10  C   UNL     1     -41.229  55.312 -54.830  1.00  0.00     0.041 C 
HETATM   11  C   UNL     1     -40.106  54.293 -55.063  1.00  0.00     0.005 C 
HETATM   12  C   UNL     1     -40.372  52.900 -54.496  1.00  0.00     0.001 C 
HETATM   13  C   UNL     1     -40.305  52.813 -52.972  1.00  0.00     0.005 C 
HETATM   14  C   UNL     1     -41.453  53.530 -52.270  1.00  0.00     0.047 C 
ENDROOT
BRANCH   1  15
HETATM   15  N   UNL     1     -41.790  58.601 -55.087  1.00  0.00    -0.340 N 
HETATM   16  H   UNL     1     -41.011  58.382 -55.687  1.00  0.00     0.167 HD
BRANCH  15  17
HETATM   17  C   UNL     1     -43.013  58.464 -55.777  1.00  0.00     0.036 A 
HETATM   18  C   UNL     1     -44.180  59.159 -55.443  1.00  0.00     0.032 A 
HETATM   19  C   UNL     1     -45.365  58.973 -56.163  1.00  0.00     0.042 A 
HETATM   20  C   UNL     1     -45.386  58.130 -57.270  1.00  0.00     0.102 A 
HETATM   21  C   UNL     1     -44.223  57.459 -57.646  1.00  0.00     0.104 A 
HETATM   22  O   UNL     1     -46.598  57.927 -57.867  1.00  0.00    -0.348 OA
HETATM   23  C   UNL     1     -43.054  57.614 -56.896  1.00  0.00     0.069 A 
HETATM   24  O   UNL     1     -44.174  56.556 -58.675  1.00  0.00    -0.348 OA
HETATM   25  C   UNL     1     -44.498  57.156 -59.931  1.00  0.00     0.178 C 
HETATM   26  C   UNL     1     -46.000  57.266 -60.142  1.00  0.00     0.053 C 
HETATM   27  C   UNL     1     -46.602  58.328 -59.235  1.00  0.00     0.178 C 
ENDBRANCH  15  17
ENDBRANCH   1  15
TORSDOF 2
ENDMDL
MODEL 5
REMARK VINA RESULT:      -8.2      1.641      2.270
REMARK  2 active torsions:
REMARK  status: ('A' for Active; 'I' for Inactive)
REMARK    1  A    between atoms: C_2  and  N_3 
REMARK    2  A    between atoms: N_3  and  C_4 
ROOT
HETATM    1  C   UNL     1     -42.810  57.620 -54.214  1.00  0.00     0.143 A 
HETATM    2  N   UNL     1     -43.255  58.068 -53.012  1.00  0.00    -0.223 NA
HETATM    3  C   UNL     1     -44.400  58.751 -52.935  1.00  0.00     0.236 A 
HETATM    4  N   UNL     1     -45.198  59.087 -53.939  1.00  0.00    -0.234 NA
HETATM    5  C   UNL     1     -44.771  58.605 -55.117  1.00  0.00     0.114 A 
HETATM    6  C   UNL     1     -43.642  57.829 -55.353  1.00  0.00     0.053 A 
HETATM    7  S   UNL     1     -45.642  58.976 -56.524  1.00  0.00    -0.073 SA
HETATM    8  C   UNL     1     -44.576  58.078 -57.502  1.00  0.00    -0.008 C 
HETATM    9  C   UNL     1     -43.607  57.414 -56.760  1.00  0.00    -0.028 C 
HETATM   10  C   UNL     1     -42.660  56.425 -57.388  1.00  0.00     0.041 C 
HETATM   11  C   UNL     1     -43.353  55.328 -58.208  1.00  0.00     0.005 C 
HETATM   12  C   UNL     1     -43.854  55.770 -59.581  1.00  0.00     0.001 C 
HETATM   13  C   UNL     1     -45.076  56.687 -59.544  1.00  0.00     0.005 C 
HETATM   14  C   UNL     1     -44.778  58.076 -58.991  1.00  0.00     0.047 C 
ENDROOT
BRANCH   1  15
HETATM   15  N   UNL     1     -41.559  56.981 -54.278  1.00  0.00    -0.340 N 
HETATM   16  H   UNL     1     -40.782  57.601 -54.118  1.00  0.00     0.167 HD
BRANCH  15  17
HETATM   17  C   UNL     1     -41.191  55.639 -54.048  1.00  0.00     0.036 A 
HETATM   18  C   UNL     1     -40.503  54.848 -54.973  1.00  0.00     0.032 A 
HETATM   19  C   UNL     1     -40.174  53.519 -54.686  1.00  0.00     0.042 A 
HETATM   20  C   UNL     1     -40.476  52.976 -53.441  1.00  0.00     0.102 A 
HETATM   21  C   UNL     1     -41.124  53.760 -52.488  1.00  0.00     0.104 A 
HETATM   22  O   UNL     1     -40.207  51.648 -53.267  1.00  0.00    -0.348 OA
HETATM   23  C   UNL     1     -41.491  55.073 -52.797  1.00  0.00     0.069 A 
HETATM   24  O   UNL     1     -41.524  53.284 -51.267  1.00  0.00    -0.348 OA
HETATM   25  C   UNL     1     -40.419  52.844 -50.475  1.00  0.00     0.178 C 
HETATM   26  C   UNL     1     -39.976  51.436 -50.843  1.00  0.00     0.053 C 
HETATM   27  C   UNL     1     -39.289  51.417 -52.200  1.00  0.00     0.178 C 
ENDBRANCH  15  17
ENDBRANCH   1  15
TORSDOF 2
ENDMDL
MODEL 6
REMARK VINA RESULT:      -8.0      3.387      7.357
REMARK  2 active torsions:
REMARK  status: ('A' for Active; 'I' for Inactive)
REMARK    1  A    between atoms: C_2  and  N_3 
REMARK    2  A    between atoms: N_3  and  C_4 
ROOT
HETATM    1  C   UNL     1     -44.237  57.170 -54.564  1.00  0.00     0.143 A 
HETATM    2  N   UNL     1     -44.816  58.264 -54.005  1.00  0.00    -0.223 NA
HETATM    3  C   UNL     1     -44.770  58.444 -52.682  1.00  0.00     0.236 A 
HETATM    4  N   UNL     1     -44.218  57.637 -51.787  1.00  0.00    -0.234 NA
HETATM    5  C   UNL     1     -43.613  56.580 -52.352  1.00  0.00     0.114 A 
HETATM    6  C   UNL     1     -43.518  56.286 -53.708  1.00  0.00     0.053 A 
HETATM    7  S   UNL     1     -42.892  55.412 -51.356  1.00  0.00    -0.073 SA
HETATM    8  C   UNL     1     -42.382  54.488 -52.692  1.00  0.00    -0.008 C 
HETATM    9  C   UNL     1     -42.671  55.103 -53.904  1.00  0.00    -0.028 C 
HETATM   10  C   UNL     1     -42.167  54.559 -55.215  1.00  0.00     0.041 C 
HETATM   11  C   UNL     1     -40.653  54.309 -55.249  1.00  0.00     0.005 C 
HETATM   12  C   UNL     1     -40.192  53.053 -54.512  1.00  0.00     0.001 C 
HETATM   13  C   UNL     1     -40.268  53.149 -52.989  1.00  0.00     0.005 C 
HETATM   14  C   UNL     1     -41.694  53.175 -52.451  1.00  0.00     0.047 C 
ENDROOT
BRANCH   1  15
HETATM   15  N   UNL     1     -44.377  56.962 -55.947  1.00  0.00    -0.340 N 
HETATM   16  H   UNL     1     -45.272  56.580 -56.208  1.00  0.00     0.167 HD
BRANCH  15  17
HETATM   17  C   UNL     1     -43.755  57.590 -57.047  1.00  0.00     0.036 A 
HETATM   18  C   UNL     1     -44.059  57.307 -58.382  1.00  0.00     0.032 A 
HETATM   19  C   UNL     1     -43.400  57.960 -59.429  1.00  0.00     0.042 A 
HETATM   20  C   UNL     1     -42.466  58.955 -59.155  1.00  0.00     0.102 A 
HETATM   21  C   UNL     1     -42.178  59.283 -57.831  1.00  0.00     0.104 A 
HETATM   22  O   UNL     1     -41.798  59.483 -60.223  1.00  0.00    -0.348 OA
HETATM   23  C   UNL     1     -42.807  58.595 -56.789  1.00  0.00     0.069 A 
HETATM   24  O   UNL     1     -41.222  60.195 -57.472  1.00  0.00    -0.348 OA
HETATM   25  C   UNL     1     -41.516  61.504 -57.964  1.00  0.00     0.178 C 
HETATM   26  C   UNL     1     -41.093  61.678 -59.414  1.00  0.00     0.053 C 
HETATM   27  C   UNL     1     -41.999  60.890 -60.346  1.00  0.00     0.178 C 
ENDBRANCH  15  17
ENDBRANCH   1  15
TORSDOF 2
ENDMDL
MODEL 7
REMARK VINA RESULT:      -8.0      4.183      8.234
REMARK  2 active torsions:
REMARK  status: ('A' for Active; 'I' for Inactive)
REMARK    1  A    between atoms: C_2  and  N_3 
REMARK    2  A    between atoms: N_3  and  C_4 
ROOT
HETATM    1  C   UNL     1     -42.390  56.590 -53.945  1.00  0.00     0.143 A 
HETATM    2  N   UNL     1     -42.984  56.483 -55.161  1.00  0.00    -0.223 NA
HETATM    3  C   UNL     1     -42.938  55.326 -55.828  1.00  0.00     0.236 A 
HETATM    4  N   UNL     1     -42.334  54.209 -55.447  1.00  0.00    -0.234 NA
HETATM    5  C   UNL     1     -41.784  54.313 -54.227  1.00  0.00     0.114 A 
HETATM    6  C   UNL     1     -41.801  55.419 -53.384  1.00  0.00     0.053 A 
HETATM    7  S   UNL     1     -40.926  52.995 -53.594  1.00  0.00    -0.073 SA
HETATM    8  C   UNL     1     -40.579  53.826 -52.149  1.00  0.00    -0.008 C 
HETATM    9  C   UNL     1     -41.190  55.073 -52.095  1.00  0.00    -0.028 C 
HETATM   10  C   UNL     1     -41.169  55.919 -50.849  1.00  0.00     0.041 C 
HETATM   11  C   UNL     1     -41.648  55.188 -49.588  1.00  0.00     0.005 C 
HETATM   12  C   UNL     1     -40.638  54.214 -48.985  1.00  0.00     0.001 C 
HETATM   13  C   UNL     1     -40.428  52.937 -49.796  1.00  0.00     0.005 C 
HETATM   14  C   UNL     1     -39.707  53.168 -51.119  1.00  0.00     0.047 C 
ENDROOT
BRANCH   1  15
HETATM   15  N   UNL     1     -42.379  57.842 -53.305  1.00  0.00    -0.340 N 
HETATM   16  H   UNL     1     -41.840  58.539 -53.793  1.00  0.00     0.167 HD
BRANCH  15  17
HETATM   17  C   UNL     1     -43.307  58.443 -52.428  1.00  0.00     0.036 A 
HETATM   18  C   UNL     1     -44.305  57.741 -51.747  1.00  0.00     0.032 A 
HETATM   19  C   UNL     1     -45.201  58.397 -50.896  1.00  0.00     0.042 A 
HETATM   20  C   UNL     1     -45.073  59.764 -50.666  1.00  0.00     0.102 A 
HETATM   21  C   UNL     1     -44.058  60.477 -51.303  1.00  0.00     0.104 A 
HETATM   22  O   UNL     1     -46.038  60.351 -49.898  1.00  0.00    -0.348 OA
HETATM   23  C   UNL     1     -43.195  59.823 -52.187  1.00  0.00     0.069 A 
HETATM   24  O   UNL     1     -43.907  61.833 -51.191  1.00  0.00    -0.348 OA
HETATM   25  C   UNL     1     -43.647  62.235 -49.844  1.00  0.00     0.178 C 
HETATM   26  C   UNL     1     -44.922  62.341 -49.023  1.00  0.00     0.053 C 
HETATM   27  C   UNL     1     -45.499  60.966 -48.729  1.00  0.00     0.178 C 
ENDBRANCH  15  17
ENDBRANCH   1  15
TORSDOF 2
ENDMDL
MODEL 8
REMARK VINA RESULT:      -7.8     15.775     17.874
REMARK  2 active torsions:
REMARK  status: ('A' for Active; 'I' for Inactive)
REMARK    1  A    between atoms: C_2  and  N_3 
REMARK    2  A    between atoms: N_3  and  C_4 
ROOT
HETATM    1  C   UNL     1     -33.552  40.833 -56.052  1.00  0.00     0.143 A 
HETATM    2  N   UNL     1     -32.500  40.392 -56.789  1.00  0.00    -0.223 NA
HETATM    3  C   UNL     1     -31.443  39.843 -56.184  1.00  0.00     0.236 A 
HETATM    4  N   UNL     1     -31.266  39.678 -54.880  1.00  0.00    -0.234 NA
HETATM    5  C   UNL     1     -32.328  40.080 -54.164  1.00  0.00     0.114 A 
HETATM    6  C   UNL     1     -33.520  40.610 -54.645  1.00  0.00     0.053 A 
HETATM    7  S   UNL     1     -32.263  39.990 -52.472  1.00  0.00    -0.073 SA
HETATM    8  C   UNL     1     -33.839  40.612 -52.309  1.00  0.00    -0.008 C 
HETATM    9  C   UNL     1     -34.463  40.804 -53.537  1.00  0.00    -0.028 C 
HETATM   10  C   UNL     1     -35.917  41.183 -53.642  1.00  0.00     0.041 C 
HETATM   11  C   UNL     1     -36.863  40.265 -52.857  1.00  0.00     0.005 C 
HETATM   12  C   UNL     1     -36.877  40.496 -51.347  1.00  0.00     0.001 C 
HETATM   13  C   UNL     1     -35.617  40.026 -50.622  1.00  0.00     0.005 C 
HETATM   14  C   UNL     1     -34.386  40.868 -50.934  1.00  0.00     0.047 C 
ENDROOT
BRANCH   1  15
HETATM   15  N   UNL     1     -34.611  41.486 -56.707  1.00  0.00    -0.340 N 
HETATM   16  H   UNL     1     -34.365  42.397 -57.059  1.00  0.00     0.167 HD
BRANCH  15  17
HETATM   17  C   UNL     1     -35.745  40.975 -57.374  1.00  0.00     0.036 A 
HETATM   18  C   UNL     1     -36.470  41.684 -58.336  1.00  0.00     0.032 A 
HETATM   19  C   UNL     1     -37.592  41.124 -58.956  1.00  0.00     0.042 A 
HETATM   20  C   UNL     1     -37.972  39.817 -58.665  1.00  0.00     0.102 A 
HETATM   21  C   UNL     1     -37.237  39.077 -57.739  1.00  0.00     0.104 A 
HETATM   22  O   UNL     1     -39.128  39.370 -59.239  1.00  0.00    -0.348 OA
HETATM   23  C   UNL     1     -36.144  39.658 -57.090  1.00  0.00     0.069 A 
HETATM   24  O   UNL     1     -37.584  37.813 -57.341  1.00  0.00    -0.348 OA
HETATM   25  C   UNL     1     -37.569  36.885 -58.427  1.00  0.00     0.178 C 
HETATM   26  C   UNL     1     -38.848  36.943 -59.248  1.00  0.00     0.053 C 
HETATM   27  C   UNL     1     -38.917  38.225 -60.062  1.00  0.00     0.178 C 
ENDBRANCH  15  17
ENDBRANCH   1  15
TORSDOF 2
ENDMDL
MODEL 9
REMARK VINA RESULT:      -7.6      3.851      7.729
REMARK  2 active torsions:
REMARK  status: ('A' for Active; 'I' for Inactive)
REMARK    1  A    between atoms: C_2  and  N_3 
REMARK    2  A    between atoms: N_3  and  C_4 
ROOT
HETATM    1  C   UNL     1     -40.418  52.568 -54.232  1.00  0.00     0.143 A 
HETATM    2  N   UNL     1     -40.333  51.358 -54.842  1.00  0.00    -0.223 NA
HETATM    3  C   UNL     1     -40.037  50.268 -54.127  1.00  0.00     0.236 A 
HETATM    4  N   UNL     1     -39.780  50.212 -52.828  1.00  0.00    -0.234 NA
HETATM    5  C   UNL     1     -39.906  51.407 -52.228  1.00  0.00     0.114 A 
HETATM    6  C   UNL     1     -40.266  52.614 -52.816  1.00  0.00     0.053 A 
HETATM    7  S   UNL     1     -39.568  51.537 -50.572  1.00  0.00    -0.073 SA
HETATM    8  C   UNL     1     -39.932  53.200 -50.558  1.00  0.00    -0.008 C 
HETATM    9  C   UNL     1     -40.403  53.650 -51.785  1.00  0.00    -0.028 C 
HETATM   10  C   UNL     1     -40.949  55.042 -51.969  1.00  0.00     0.041 C 
HETATM   11  C   UNL     1     -42.041  55.424 -50.961  1.00  0.00     0.005 C 
HETATM   12  C   UNL     1     -41.534  55.771 -49.563  1.00  0.00     0.001 C 
HETATM   13  C   UNL     1     -41.033  54.574 -48.755  1.00  0.00     0.005 C 
HETATM   14  C   UNL     1     -39.735  53.980 -49.289  1.00  0.00     0.047 C 
ENDROOT
BRANCH   1  15
HETATM   15  N   UNL     1     -40.643  53.709 -55.022  1.00  0.00    -0.340 N 
HETATM   16  H   UNL     1     -40.180  53.678 -55.916  1.00  0.00     0.167 HD
BRANCH  15  17
HETATM   17  C   UNL     1     -41.714  54.628 -55.039  1.00  0.00     0.036 A 
HETATM   18  C   UNL     1     -43.022  54.310 -54.663  1.00  0.00     0.032 A 
HETATM   19  C   UNL     1     -44.042  55.265 -54.709  1.00  0.00     0.042 A 
HETATM   20  C   UNL     1     -43.756  56.577 -55.077  1.00  0.00     0.102 A 
HETATM   21  C   UNL     1     -42.450  56.927 -55.416  1.00  0.00     0.104 A 
HETATM   22  O   UNL     1     -44.817  57.430 -55.188  1.00  0.00    -0.348 OA
HETATM   23  C   UNL     1     -41.444  55.956 -55.411  1.00  0.00     0.069 A 
HETATM   24  O   UNL     1     -42.096  58.173 -55.860  1.00  0.00    -0.348 OA
HETATM   25  C   UNL     1     -42.347  59.183 -54.880  1.00  0.00     0.178 C 
HETATM   26  C   UNL     1     -43.800  59.631 -54.881  1.00  0.00     0.053 C 
HETATM   27  C   UNL     1     -44.705  58.550 -54.312  1.00  0.00     0.178 C 
ENDBRANCH  15  17
ENDBRANCH   1  15
TORSDOF 2
ENDMDL
MODEL 10
REMARK VINA RESULT:      -7.6      2.065      4.233
REMARK  2 active torsions:
REMARK  status: ('A' for Active; 'I' for Inactive)
REMARK    1  A    between atoms: C_2  and  N_3 
REMARK    2  A    between atoms: N_3  and  C_4 
ROOT
HETATM    1  C   UNL     1     -43.285  55.956 -56.446  1.00  0.00     0.143 A 
HETATM    2  N   UNL     1     -43.074  55.455 -57.690  1.00  0.00    -0.223 NA
HETATM    3  C   UNL     1     -42.920  56.283 -58.727  1.00  0.00     0.236 A 
HETATM    4  N   UNL     1     -42.970  57.607 -58.705  1.00  0.00    -0.234 NA
HETATM    5  C   UNL     1     -43.139  58.094 -57.465  1.00  0.00     0.114 A 
HETATM    6  C   UNL     1     -43.251  57.371 -56.282  1.00  0.00     0.053 A 
HETATM    7  S   UNL     1     -43.274  59.770 -57.248  1.00  0.00    -0.073 SA
HETATM    8  C   UNL     1     -43.441  59.608 -55.562  1.00  0.00    -0.008 C 
HETATM    9  C   UNL     1     -43.302  58.291 -55.139  1.00  0.00    -0.028 C 
HETATM   10  C   UNL     1     -43.241  57.924 -53.679  1.00  0.00     0.041 C 
HETATM   11  C   UNL     1     -42.194  58.710 -52.879  1.00  0.00     0.005 C 
HETATM   12  C   UNL     1     -42.591  60.144 -52.536  1.00  0.00     0.001 C 
HETATM   13  C   UNL     1     -42.585  61.104 -53.724  1.00  0.00     0.005 C 
HETATM   14  C   UNL     1     -43.696  60.833 -54.732  1.00  0.00     0.047 C 
ENDROOT
BRANCH   1  15
HETATM   15  N   UNL     1     -43.531  55.062 -55.389  1.00  0.00    -0.340 N 
HETATM   16  H   UNL     1     -44.338  54.478 -55.535  1.00  0.00     0.167 HD
BRANCH  15  17
HETATM   17  C   UNL     1     -42.660  54.492 -54.435  1.00  0.00     0.036 A 
HETATM   18  C   UNL     1     -41.391  53.991 -54.738  1.00  0.00     0.032 A 
HETATM   19  C   UNL     1     -40.578  53.431 -53.747  1.00  0.00     0.042 A 
HETATM   20  C   UNL     1     -41.000  53.418 -52.421  1.00  0.00     0.102 A 
HETATM   21  C   UNL     1     -42.245  53.951 -52.090  1.00  0.00     0.104 A 
HETATM   22  O   UNL     1     -40.195  52.773 -51.525  1.00  0.00    -0.348 OA
HETATM   23  C   UNL     1     -43.071  54.468 -53.092  1.00  0.00     0.069 A 
HETATM   24  O   UNL     1     -42.768  53.912 -50.825  1.00  0.00    -0.348 OA
HETATM   25  C   UNL     1     -41.964  54.634 -49.889  1.00  0.00     0.178 C 
HETATM   26  C   UNL     1     -40.786  53.810 -49.393  1.00  0.00     0.053 C 
HETATM   27  C   UNL     1     -39.742  53.637 -50.485  1.00  0.00     0.178 C 
ENDBRANCH  15  17
ENDBRANCH   1  15
TORSDOF 2
ENDMDL
