MODEL 1
REMARK VINA RESULT:      -7.9      0.000      0.000
REMARK  7 active torsions:
REMARK  status: ('A' for Active; 'I' for Inactive)
REMARK       I    between atoms: N_2  and  C_3 
REMARK    1  A    between atoms: N_2  and  C_24 
REMARK    2  A    between atoms: C_3  and  C_4 
REMARK    3  A    between atoms: C_7  and  N_8 
REMARK    4  A    between atoms: C_11  and  N_12 
REMARK       I    between atoms: N_12  and  C_13 
REMARK    5  A    between atoms: C_13  and  C_14 
REMARK    6  A    between atoms: C_24  and  C_25 
REMARK    7  A    between atoms: C_27  and  O_28 
ROOT
HETATM    1  C   UNL     1     -42.996  55.748 -52.833  1.00  0.00     0.032 A 
HETATM    2  C   UNL     1     -42.482  56.934 -53.360  1.00  0.00     0.019 A 
HETATM    3  C   UNL     1     -42.501  57.163 -54.738  1.00  0.00     0.032 A 
HETATM    4  C   UNL     1     -42.989  56.182 -55.615  1.00  0.00     0.058 A 
HETATM    5  C   UNL     1     -43.497  54.986 -55.091  1.00  0.00     0.032 A 
HETATM    6  C   UNL     1     -43.498  54.774 -53.706  1.00  0.00     0.019 A 
ENDROOT
BRANCH   4   7
HETATM    7  N   UNL     1     -42.894  56.404 -57.018  1.00  0.00    -0.243 N 
HETATM    8  N   UNL     1     -43.157  55.402 -57.895  1.00  0.00    -0.178 NA
HETATM    9  C   UNL     1     -43.105  55.980 -59.095  1.00  0.00     0.170 A 
HETATM   10  C   UNL     1     -42.792  57.348 -59.018  1.00  0.00     0.071 A 
HETATM   11  C   UNL     1     -42.609  57.584 -57.676  1.00  0.00     0.149 A 
BRANCH  10  12
HETATM   12  N   UNL     1     -42.698  58.322 -59.992  1.00  0.00    -0.324 N 
HETATM   13  C   UNL     1     -43.779  59.014 -60.501  1.00  0.00     0.228 C 
HETATM   14  O   UNL     1     -44.956  58.797 -60.218  1.00  0.00    -0.273 OA
HETATM   15  H   UNL     1     -41.767  58.551 -60.331  1.00  0.00     0.169 HD
BRANCH  13  16
HETATM   16  C   UNL     1     -43.418  60.180 -61.417  1.00  0.00     0.104 C 
HETATM   17  C   UNL     1     -41.924  60.340 -61.575  1.00  0.00     0.181 C 
HETATM   18  O   UNL     1     -41.522  61.139 -60.450  1.00  0.00    -0.390 OA
HETATM   19  C   UNL     1     -42.588  62.060 -60.173  1.00  0.00     0.168 C 
HETATM   20  C   UNL     1     -43.844  61.510 -60.827  1.00  0.00     0.042 C 
ENDBRANCH  13  16
ENDBRANCH  10  12
ENDBRANCH   4   7
BRANCH   1  21
HETATM   21  C   UNL     1     -42.902  55.422 -51.385  1.00  0.00     0.253 C 
HETATM   22  N   UNL     1     -41.802  54.725 -50.876  1.00  0.00    -0.348 N 
HETATM   23  C   UNL     1     -41.835  54.377 -49.461  1.00  0.00     0.153 C 
HETATM   24  O   UNL     1     -43.840  55.785 -50.674  1.00  0.00    -0.267 OA
BRANCH  22  25
HETATM   25  C   UNL     1     -40.489  54.675 -51.520  1.00  0.00     0.164 C 
BRANCH  25  26
HETATM   26  C   UNL     1     -40.230  53.441 -52.362  1.00  0.00    -0.038 A 
HETATM   27  C   UNL     1     -39.922  52.184 -51.808  1.00  0.00     0.045 A 
HETATM   28  C   UNL     1     -39.778  51.055 -52.618  1.00  0.00     0.068 A 
HETATM   29  C   UNL     1     -39.898  51.186 -54.001  1.00  0.00     0.037 A 
HETATM   30  C   UNL     1     -40.189  52.425 -54.571  1.00  0.00     0.003 A 
HETATM   31  C   UNL     1     -40.363  53.543 -53.756  1.00  0.00     0.009 A 
BRANCH  28  32
HETATM   32  O   UNL     1     -39.520  49.786 -52.179  1.00  0.00    -0.356 OA
HETATM   33  C   UNL     1     -39.577  49.579 -50.771  1.00  0.00     0.210 C 
ENDBRANCH  28  32
ENDBRANCH  25  26
ENDBRANCH  22  25
ENDBRANCH   1  21
TORSDOF 7
ENDMDL
MODEL 2
REMARK VINA RESULT:      -7.7      2.128      4.082
REMARK  7 active torsions:
REMARK  status: ('A' for Active; 'I' for Inactive)
REMARK       I    between atoms: N_2  and  C_3 
REMARK    1  A    between atoms: N_2  and  C_24 
REMARK    2  A    between atoms: C_3  and  C_4 
REMARK    3  A    between atoms: C_7  and  N_8 
REMARK    4  A    between atoms: C_11  and  N_12 
REMARK       I    between atoms: N_12  and  C_13 
REMARK    5  A    between atoms: C_13  and  C_14 
REMARK    6  A    between atoms: C_24  and  C_25 
REMARK    7  A    between atoms: C_27  and  O_28 
ROOT
HETATM    1  C   UNL     1     -41.648  54.341 -52.849  1.00  0.00     0.032 A 
HETATM    2  C   UNL     1     -42.928  54.176 -53.382  1.00  0.00     0.019 A 
HETATM    3  C   UNL     1     -43.225  54.643 -54.665  1.00  0.00     0.032 A 
HETATM    4  C   UNL     1     -42.257  55.331 -55.413  1.00  0.00     0.058 A 
HETATM    5  C   UNL     1     -40.974  55.507 -54.878  1.00  0.00     0.032 A 
HETATM    6  C   UNL     1     -40.676  55.013 -53.601  1.00  0.00     0.019 A 
ENDROOT
BRANCH   4   7
HETATM    7  N   UNL     1     -42.626  55.888 -56.670  1.00  0.00    -0.243 N 
HETATM    8  N   UNL     1     -43.266  55.132 -57.599  1.00  0.00    -0.178 NA
HETATM    9  C   UNL     1     -43.573  55.985 -58.576  1.00  0.00     0.170 A 
HETATM   10  C   UNL     1     -43.126  57.290 -58.309  1.00  0.00     0.071 A 
HETATM   11  C   UNL     1     -42.475  57.190 -57.103  1.00  0.00     0.149 A 
BRANCH  10  12
HETATM   12  N   UNL     1     -43.281  58.471 -59.007  1.00  0.00    -0.324 N 
HETATM   13  C   UNL     1     -42.559  58.803 -60.137  1.00  0.00     0.228 C 
HETATM   14  O   UNL     1     -41.641  58.136 -60.611  1.00  0.00    -0.273 OA
HETATM   15  H   UNL     1     -43.989  59.119 -58.671  1.00  0.00     0.169 HD
BRANCH  13  16
HETATM   16  C   UNL     1     -43.039  60.061 -60.855  1.00  0.00     0.104 C 
HETATM   17  C   UNL     1     -41.912  60.785 -61.553  1.00  0.00     0.181 C 
HETATM   18  O   UNL     1     -41.333  61.622 -60.538  1.00  0.00    -0.390 OA
HETATM   19  C   UNL     1     -42.398  62.054 -59.677  1.00  0.00     0.168 C 
HETATM   20  C   UNL     1     -43.561  61.098 -59.881  1.00  0.00     0.042 C 
ENDBRANCH  13  16
ENDBRANCH  10  12
ENDBRANCH   4   7
BRANCH   1  21
HETATM   21  C   UNL     1     -41.320  53.950 -51.452  1.00  0.00     0.253 C 
HETATM   22  N   UNL     1     -41.545  54.829 -50.388  1.00  0.00    -0.348 N 
HETATM   23  C   UNL     1     -41.116  54.393 -49.066  1.00  0.00     0.153 C 
HETATM   24  O   UNL     1     -40.834  52.830 -51.290  1.00  0.00    -0.267 OA
BRANCH  22  25
HETATM   25  C   UNL     1     -42.507  55.932 -50.422  1.00  0.00     0.164 C 
BRANCH  25  26
HETATM   26  C   UNL     1     -42.064  57.151 -51.207  1.00  0.00    -0.038 A 
HETATM   27  C   UNL     1     -40.799  57.747 -51.051  1.00  0.00     0.045 A 
HETATM   28  C   UNL     1     -40.400  58.815 -51.859  1.00  0.00     0.068 A 
HETATM   29  C   UNL     1     -41.289  59.325 -52.805  1.00  0.00     0.037 A 
HETATM   30  C   UNL     1     -42.552  58.758 -52.966  1.00  0.00     0.003 A 
HETATM   31  C   UNL     1     -42.934  57.673 -52.178  1.00  0.00     0.009 A 
BRANCH  28  32
HETATM   32  O   UNL     1     -39.183  59.437 -51.815  1.00  0.00    -0.356 OA
HETATM   33  C   UNL     1     -38.550  59.501 -50.542  1.00  0.00     0.210 C 
ENDBRANCH  28  32
ENDBRANCH  25  26
ENDBRANCH  22  25
ENDBRANCH   1  21
TORSDOF 7
ENDMDL
MODEL 3
REMARK VINA RESULT:      -7.5      2.531      4.461
REMARK  7 active torsions:
REMARK  status: ('A' for Active; 'I' for Inactive)
REMARK       I    between atoms: N_2  and  C_3 
REMARK    1  A    between atoms: N_2  and  C_24 
REMARK    2  A    between atoms: C_3  and  C_4 
REMARK    3  A    between atoms: C_7  and  N_8 
REMARK    4  A    between atoms: C_11  and  N_12 
REMARK       I    between atoms: N_12  and  C_13 
REMARK    5  A    between atoms: C_13  and  C_14 
REMARK    6  A    between atoms: C_24  and  C_25 
REMARK    7  A    between atoms: C_27  and  O_28 
ROOT
HETATM    1  C   UNL     1     -41.364  53.996 -53.793  1.00  0.00     0.032 A 
HETATM    2  C   UNL     1     -40.820  55.206 -54.228  1.00  0.00     0.019 A 
HETATM    3  C   UNL     1     -41.419  55.917 -55.270  1.00  0.00     0.032 A 
HETATM    4  C   UNL     1     -42.544  55.399 -55.930  1.00  0.00     0.058 A 
HETATM    5  C   UNL     1     -43.087  54.180 -55.504  1.00  0.00     0.032 A 
HETATM    6  C   UNL     1     -42.496  53.485 -54.441  1.00  0.00     0.019 A 
ENDROOT
BRANCH   4   7
HETATM    7  N   UNL     1     -43.062  56.096 -57.058  1.00  0.00    -0.243 N 
HETATM    8  N   UNL     1     -42.888  55.606 -58.312  1.00  0.00    -0.178 NA
HETATM    9  C   UNL     1     -43.599  56.418 -59.095  1.00  0.00     0.170 A 
HETATM   10  C   UNL     1     -44.224  57.448 -58.371  1.00  0.00     0.071 A 
HETATM   11  C   UNL     1     -43.820  57.250 -57.072  1.00  0.00     0.149 A 
BRANCH  10  12
HETATM   12  N   UNL     1     -45.086  58.452 -58.766  1.00  0.00    -0.324 N 
HETATM   13  C   UNL     1     -46.434  58.266 -59.004  1.00  0.00     0.228 C 
HETATM   14  O   UNL     1     -47.014  57.181 -58.977  1.00  0.00    -0.273 OA
HETATM   15  H   UNL     1     -44.697  59.386 -58.861  1.00  0.00     0.169 HD
BRANCH  13  16
HETATM   16  C   UNL     1     -47.226  59.550 -59.231  1.00  0.00     0.104 C 
HETATM   17  C   UNL     1     -46.327  60.751 -59.409  1.00  0.00     0.181 C 
HETATM   18  O   UNL     1     -46.046  61.197 -58.072  1.00  0.00    -0.390 OA
HETATM   19  C   UNL     1     -47.219  60.952 -57.280  1.00  0.00     0.168 C 
HETATM   20  C   UNL     1     -48.055  59.920 -58.016  1.00  0.00     0.042 C 
ENDBRANCH  13  16
ENDBRANCH  10  12
ENDBRANCH   4   7
BRANCH   1  21
HETATM   21  C   UNL     1     -40.700  53.160 -52.757  1.00  0.00     0.253 C 
HETATM   22  N   UNL     1     -40.998  53.327 -51.401  1.00  0.00    -0.348 N 
HETATM   23  C   UNL     1     -40.238  52.522 -50.453  1.00  0.00     0.153 C 
HETATM   24  O   UNL     1     -39.877  52.335 -53.156  1.00  0.00    -0.267 OA
BRANCH  22  25
HETATM   25  C   UNL     1     -42.240  53.914 -50.897  1.00  0.00     0.164 C 
BRANCH  25  26
HETATM   26  C   UNL     1     -42.335  55.422 -51.016  1.00  0.00    -0.038 A 
HETATM   27  C   UNL     1     -41.279  56.287 -50.672  1.00  0.00     0.045 A 
HETATM   28  C   UNL     1     -41.380  57.666 -50.882  1.00  0.00     0.068 A 
HETATM   29  C   UNL     1     -42.562  58.194 -51.398  1.00  0.00     0.037 A 
HETATM   30  C   UNL     1     -43.625  57.356 -51.732  1.00  0.00     0.003 A 
HETATM   31  C   UNL     1     -43.508  55.978 -51.550  1.00  0.00     0.009 A 
BRANCH  28  32
HETATM   32  O   UNL     1     -40.402  58.585 -50.620  1.00  0.00    -0.356 OA
HETATM   33  C   UNL     1     -40.839  59.882 -50.230  1.00  0.00     0.210 C 
ENDBRANCH  28  32
ENDBRANCH  25  26
ENDBRANCH  22  25
ENDBRANCH   1  21
TORSDOF 7
ENDMDL
MODEL 4
REMARK VINA RESULT:      -7.5      1.827      3.928
REMARK  7 active torsions:
REMARK  status: ('A' for Active; 'I' for Inactive)
REMARK       I    between atoms: N_2  and  C_3 
REMARK    1  A    between atoms: N_2  and  C_24 
REMARK    2  A    between atoms: C_3  and  C_4 
REMARK    3  A    between atoms: C_7  and  N_8 
REMARK    4  A    between atoms: C_11  and  N_12 
REMARK       I    between atoms: N_12  and  C_13 
REMARK    5  A    between atoms: C_13  and  C_14 
REMARK    6  A    between atoms: C_24  and  C_25 
REMARK    7  A    between atoms: C_27  and  O_28 
ROOT
HETATM    1  C   UNL     1     -41.220  53.897 -53.662  1.00  0.00     0.032 A 
HETATM    2  C   UNL     1     -40.619  55.082 -54.089  1.00  0.00     0.019 A 
HETATM    3  C   UNL     1     -41.146  55.792 -55.171  1.00  0.00     0.032 A 
HETATM    4  C   UNL     1     -42.253  55.296 -55.876  1.00  0.00     0.058 A 
HETATM    5  C   UNL     1     -42.853  54.101 -55.457  1.00  0.00     0.032 A 
HETATM    6  C   UNL     1     -42.335  53.408 -54.355  1.00  0.00     0.019 A 
ENDROOT
BRANCH   4   7
HETATM    7  N   UNL     1     -42.695  55.988 -57.039  1.00  0.00    -0.243 N 
HETATM    8  N   UNL     1     -43.491  55.370 -57.949  1.00  0.00    -0.178 NA
HETATM    9  C   UNL     1     -43.816  56.327 -58.819  1.00  0.00     0.170 A 
HETATM   10  C   UNL     1     -43.228  57.563 -58.500  1.00  0.00     0.071 A 
HETATM   11  C   UNL     1     -42.470  57.306 -57.383  1.00  0.00     0.149 A 
BRANCH  10  12
HETATM   12  N   UNL     1     -43.344  58.809 -59.084  1.00  0.00    -0.324 N 
HETATM   13  C   UNL     1     -42.611  59.222 -60.180  1.00  0.00     0.228 C 
HETATM   14  O   UNL     1     -41.714  58.573 -60.716  1.00  0.00    -0.273 OA
HETATM   15  H   UNL     1     -44.031  59.444 -58.687  1.00  0.00     0.169 HD
BRANCH  13  16
HETATM   16  C   UNL     1     -43.050  60.556 -60.775  1.00  0.00     0.104 C 
HETATM   17  C   UNL     1     -42.214  60.950 -61.971  1.00  0.00     0.181 C 
HETATM   18  O   UNL     1     -41.068  61.612 -61.411  1.00  0.00    -0.390 OA
HETATM   19  C   UNL     1     -41.506  62.317 -60.239  1.00  0.00     0.168 C 
HETATM   20  C   UNL     1     -42.827  61.702 -59.809  1.00  0.00     0.042 C 
ENDBRANCH  13  16
ENDBRANCH  10  12
ENDBRANCH   4   7
BRANCH   1  21
HETATM   21  C   UNL     1     -40.633  53.060 -52.581  1.00  0.00     0.253 C 
HETATM   22  N   UNL     1     -40.986  53.263 -51.243  1.00  0.00    -0.348 N 
HETATM   23  C   UNL     1     -40.299  52.453 -50.247  1.00  0.00     0.153 C 
HETATM   24  O   UNL     1     -39.820  52.201 -52.926  1.00  0.00    -0.267 OA
BRANCH  22  25
HETATM   25  C   UNL     1     -42.230  53.900 -50.808  1.00  0.00     0.164 C 
BRANCH  25  26
HETATM   26  C   UNL     1     -42.283  55.404 -50.993  1.00  0.00    -0.038 A 
HETATM   27  C   UNL     1     -41.216  56.257 -50.654  1.00  0.00     0.045 A 
HETATM   28  C   UNL     1     -41.275  57.627 -50.924  1.00  0.00     0.068 A 
HETATM   29  C   UNL     1     -42.428  58.162 -51.497  1.00  0.00     0.037 A 
HETATM   30  C   UNL     1     -43.502  57.336 -51.827  1.00  0.00     0.003 A 
HETATM   31  C   UNL     1     -43.426  55.965 -51.584  1.00  0.00     0.009 A 
BRANCH  28  32
HETATM   32  O   UNL     1     -40.281  58.532 -50.672  1.00  0.00    -0.356 OA
HETATM   33  C   UNL     1     -40.691  59.799 -50.168  1.00  0.00     0.210 C 
ENDBRANCH  28  32
ENDBRANCH  25  26
ENDBRANCH  22  25
ENDBRANCH   1  21
TORSDOF 7
ENDMDL
MODEL 5
REMARK VINA RESULT:      -7.3      1.591      2.147
REMARK  7 active torsions:
REMARK  status: ('A' for Active; 'I' for Inactive)
REMARK       I    between atoms: N_2  and  C_3 
REMARK    1  A    between atoms: N_2  and  C_24 
REMARK    2  A    between atoms: C_3  and  C_4 
REMARK    3  A    between atoms: C_7  and  N_8 
REMARK    4  A    between atoms: C_11  and  N_12 
REMARK       I    between atoms: N_12  and  C_13 
REMARK    5  A    between atoms: C_13  and  C_14 
REMARK    6  A    between atoms: C_24  and  C_25 
REMARK    7  A    between atoms: C_27  and  O_28 
ROOT
HETATM    1  C   UNL     1     -43.120  56.716 -52.917  1.00  0.00     0.032 A 
HETATM    2  C   UNL     1     -42.434  57.920 -53.080  1.00  0.00     0.019 A 
HETATM    3  C   UNL     1     -42.252  58.464 -54.354  1.00  0.00     0.032 A 
HETATM    4  C   UNL     1     -42.709  57.781 -55.491  1.00  0.00     0.058 A 
HETATM    5  C   UNL     1     -43.389  56.566 -55.333  1.00  0.00     0.032 A 
HETATM    6  C   UNL     1     -43.591  56.039 -54.051  1.00  0.00     0.019 A 
ENDROOT
BRANCH   4   7
HETATM    7  N   UNL     1     -42.411  58.310 -56.778  1.00  0.00    -0.243 N 
HETATM    8  N   UNL     1     -42.303  57.489 -57.854  1.00  0.00    -0.178 NA
HETATM    9  C   UNL     1     -42.155  58.310 -58.894  1.00  0.00     0.170 A 
HETATM   10  C   UNL     1     -42.146  59.663 -58.511  1.00  0.00     0.071 A 
HETATM   11  C   UNL     1     -42.258  59.633 -57.142  1.00  0.00     0.149 A 
BRANCH  10  12
HETATM   12  N   UNL     1     -42.079  60.824 -59.255  1.00  0.00    -0.324 N 
HETATM   13  C   UNL     1     -41.096  61.783 -59.107  1.00  0.00     0.228 C 
HETATM   14  O   UNL     1     -40.216  61.766 -58.247  1.00  0.00    -0.273 OA
HETATM   15  H   UNL     1     -42.789  60.958 -59.970  1.00  0.00     0.169 HD
BRANCH  13  16
HETATM   16  C   UNL     1     -41.105  62.877 -60.169  1.00  0.00     0.104 C 
HETATM   17  C   UNL     1     -42.504  63.346 -60.494  1.00  0.00     0.181 C 
HETATM   18  O   UNL     1     -42.977  62.421 -61.487  1.00  0.00    -0.390 OA
HETATM   19  C   UNL     1     -41.851  62.043 -62.295  1.00  0.00     0.168 C 
HETATM   20  C   UNL     1     -40.596  62.368 -61.504  1.00  0.00     0.042 C 
ENDBRANCH  13  16
ENDBRANCH  10  12
ENDBRANCH   4   7
BRANCH   1  21
HETATM   21  C   UNL     1     -43.247  56.053 -51.592  1.00  0.00     0.253 C 
HETATM   22  N   UNL     1     -42.274  55.156 -51.142  1.00  0.00    -0.348 N 
HETATM   23  C   UNL     1     -42.524  54.492 -49.869  1.00  0.00     0.153 C 
HETATM   24  O   UNL     1     -44.250  56.326 -50.930  1.00  0.00    -0.267 OA
BRANCH  22  25
HETATM   25  C   UNL     1     -40.890  55.134 -51.619  1.00  0.00     0.164 C 
BRANCH  25  26
HETATM   26  C   UNL     1     -40.517  53.930 -52.461  1.00  0.00    -0.038 A 
HETATM   27  C   UNL     1     -40.140  52.693 -51.907  1.00  0.00     0.045 A 
HETATM   28  C   UNL     1     -39.891  51.585 -52.721  1.00  0.00     0.068 A 
HETATM   29  C   UNL     1     -39.973  51.722 -54.106  1.00  0.00     0.037 A 
HETATM   30  C   UNL     1     -40.331  52.943 -54.675  1.00  0.00     0.003 A 
HETATM   31  C   UNL     1     -40.610  54.037 -53.858  1.00  0.00     0.009 A 
BRANCH  28  32
HETATM   32  O   UNL     1     -39.558  50.333 -52.283  1.00  0.00    -0.356 OA
HETATM   33  C   UNL     1     -39.639  50.110 -50.879  1.00  0.00     0.210 C 
ENDBRANCH  28  32
ENDBRANCH  25  26
ENDBRANCH  22  25
ENDBRANCH   1  21
TORSDOF 7
ENDMDL
MODEL 6
REMARK VINA RESULT:      -7.1      5.067     10.063
REMARK  7 active torsions:
REMARK  status: ('A' for Active; 'I' for Inactive)
REMARK       I    between atoms: N_2  and  C_3 
REMARK    1  A    between atoms: N_2  and  C_24 
REMARK    2  A    between atoms: C_3  and  C_4 
REMARK    3  A    between atoms: C_7  and  N_8 
REMARK    4  A    between atoms: C_11  and  N_12 
REMARK       I    between atoms: N_12  and  C_13 
REMARK    5  A    between atoms: C_13  and  C_14 
REMARK    6  A    between atoms: C_24  and  C_25 
REMARK    7  A    between atoms: C_27  and  O_28 
ROOT
HETATM    1  C   UNL     1     -43.595  60.184 -52.513  1.00  0.00     0.032 A 
HETATM    2  C   UNL     1     -44.532  59.298 -51.979  1.00  0.00     0.019 A 
HETATM    3  C   UNL     1     -44.176  57.978 -51.696  1.00  0.00     0.032 A 
HETATM    4  C   UNL     1     -42.886  57.510 -51.993  1.00  0.00     0.058 A 
HETATM    5  C   UNL     1     -41.945  58.393 -52.537  1.00  0.00     0.032 A 
HETATM    6  C   UNL     1     -42.302  59.723 -52.795  1.00  0.00     0.019 A 
ENDROOT
BRANCH   4   7
HETATM    7  N   UNL     1     -42.591  56.131 -51.793  1.00  0.00    -0.243 N 
HETATM    8  N   UNL     1     -43.556  55.273 -51.373  1.00  0.00    -0.178 NA
HETATM    9  C   UNL     1     -42.982  54.070 -51.421  1.00  0.00     0.170 A 
HETATM   10  C   UNL     1     -41.645  54.130 -51.850  1.00  0.00     0.071 A 
HETATM   11  C   UNL     1     -41.403  55.471 -52.031  1.00  0.00     0.149 A 
BRANCH  10  12
HETATM   12  N   UNL     1     -40.718  53.138 -52.097  1.00  0.00    -0.324 N 
HETATM   13  C   UNL     1     -40.599  52.471 -53.301  1.00  0.00     0.228 C 
HETATM   14  O   UNL     1     -41.349  52.614 -54.265  1.00  0.00    -0.273 OA
HETATM   15  H   UNL     1     -40.072  52.910 -51.345  1.00  0.00     0.169 HD
BRANCH  13  16
HETATM   16  C   UNL     1     -39.378  51.563 -53.410  1.00  0.00     0.104 C 
HETATM   17  C   UNL     1     -39.589  50.438 -54.396  1.00  0.00     0.181 C 
HETATM   18  O   UNL     1     -40.247  49.409 -53.638  1.00  0.00    -0.390 OA
HETATM   19  C   UNL     1     -39.731  49.463 -52.299  1.00  0.00     0.168 C 
HETATM   20  C   UNL     1     -39.103  50.833 -52.110  1.00  0.00     0.042 C 
ENDBRANCH  13  16
ENDBRANCH  10  12
ENDBRANCH   4   7
BRANCH   1  21
HETATM   21  C   UNL     1     -43.960  61.567 -52.922  1.00  0.00     0.253 C 
HETATM   22  N   UNL     1     -44.010  62.604 -51.986  1.00  0.00    -0.348 N 
HETATM   23  C   UNL     1     -44.459  63.905 -52.462  1.00  0.00     0.153 C 
HETATM   24  O   UNL     1     -44.226  61.739 -54.113  1.00  0.00    -0.267 OA
BRANCH  22  25
HETATM   25  C   UNL     1     -43.289  62.598 -50.712  1.00  0.00     0.164 C 
BRANCH  25  26
HETATM   26  C   UNL     1     -44.161  62.701 -49.476  1.00  0.00    -0.038 A 
HETATM   27  C   UNL     1     -45.003  61.661 -49.042  1.00  0.00     0.045 A 
HETATM   28  C   UNL     1     -45.722  61.767 -47.848  1.00  0.00     0.068 A 
HETATM   29  C   UNL     1     -45.636  62.941 -47.100  1.00  0.00     0.037 A 
HETATM   30  C   UNL     1     -44.818  63.988 -47.520  1.00  0.00     0.003 A 
HETATM   31  C   UNL     1     -44.079  63.866 -48.696  1.00  0.00     0.009 A 
BRANCH  28  32
HETATM   32  O   UNL     1     -46.534  60.803 -47.319  1.00  0.00    -0.356 OA
HETATM   33  C   UNL     1     -46.053  60.136 -46.156  1.00  0.00     0.210 C 
ENDBRANCH  28  32
ENDBRANCH  25  26
ENDBRANCH  22  25
ENDBRANCH   1  21
TORSDOF 7
ENDMDL
MODEL 7
REMARK VINA RESULT:      -6.8      2.548      9.539
REMARK  7 active torsions:
REMARK  status: ('A' for Active; 'I' for Inactive)
REMARK       I    between atoms: N_2  and  C_3 
REMARK    1  A    between atoms: N_2  and  C_24 
REMARK    2  A    between atoms: C_3  and  C_4 
REMARK    3  A    between atoms: C_7  and  N_8 
REMARK    4  A    between atoms: C_11  and  N_12 
REMARK       I    between atoms: N_12  and  C_13 
REMARK    5  A    between atoms: C_13  and  C_14 
REMARK    6  A    between atoms: C_24  and  C_25 
REMARK    7  A    between atoms: C_27  and  O_28 
ROOT
HETATM    1  C   UNL     1     -43.893  60.188 -58.051  1.00  0.00     0.032 A 
HETATM    2  C   UNL     1     -44.578  59.271 -57.253  1.00  0.00     0.019 A 
HETATM    3  C   UNL     1     -43.969  58.726 -56.119  1.00  0.00     0.032 A 
HETATM    4  C   UNL     1     -42.642  59.052 -55.799  1.00  0.00     0.058 A 
HETATM    5  C   UNL     1     -41.947  59.965 -56.604  1.00  0.00     0.032 A 
HETATM    6  C   UNL     1     -42.574  60.527 -57.724  1.00  0.00     0.019 A 
ENDROOT
BRANCH   4   7
HETATM    7  N   UNL     1     -42.017  58.396 -54.702  1.00  0.00    -0.243 N 
HETATM    8  N   UNL     1     -41.020  59.004 -54.010  1.00  0.00    -0.178 NA
HETATM    9  C   UNL     1     -40.764  58.183 -52.991  1.00  0.00     0.170 A 
HETATM   10  C   UNL     1     -41.570  57.032 -53.016  1.00  0.00     0.071 A 
HETATM   11  C   UNL     1     -42.329  57.167 -54.154  1.00  0.00     0.149 A 
BRANCH  10  12
HETATM   12  N   UNL     1     -41.678  55.972 -52.138  1.00  0.00    -0.324 N 
HETATM   13  C   UNL     1     -41.113  54.729 -52.351  1.00  0.00     0.228 C 
HETATM   14  O   UNL     1     -40.522  54.387 -53.374  1.00  0.00    -0.273 OA
HETATM   15  H   UNL     1     -42.188  56.136 -51.274  1.00  0.00     0.169 HD
BRANCH  13  16
HETATM   16  C   UNL     1     -41.189  53.780 -51.160  1.00  0.00     0.104 C 
HETATM   17  C   UNL     1     -41.881  54.408 -49.972  1.00  0.00     0.181 C 
HETATM   18  O   UNL     1     -40.844  55.133 -49.289  1.00  0.00    -0.390 OA
HETATM   19  C   UNL     1     -39.626  54.387 -49.440  1.00  0.00     0.168 C 
HETATM   20  C   UNL     1     -39.813  53.447 -50.618  1.00  0.00     0.042 C 
ENDBRANCH  13  16
ENDBRANCH  10  12
ENDBRANCH   4   7
BRANCH   1  21
HETATM   21  C   UNL     1     -44.468  60.712 -59.319  1.00  0.00     0.253 C 
HETATM   22  N   UNL     1     -43.849  60.460 -60.547  1.00  0.00    -0.348 N 
HETATM   23  C   UNL     1     -44.436  61.083 -61.725  1.00  0.00     0.153 C 
HETATM   24  O   UNL     1     -45.496  61.384 -59.224  1.00  0.00    -0.267 OA
BRANCH  22  25
HETATM   25  C   UNL     1     -42.943  59.337 -60.796  1.00  0.00     0.164 C 
BRANCH  25  26
HETATM   26  C   UNL     1     -43.444  57.987 -60.325  1.00  0.00    -0.038 A 
HETATM   27  C   UNL     1     -44.778  57.567 -60.478  1.00  0.00     0.045 A 
HETATM   28  C   UNL     1     -45.176  56.279 -60.109  1.00  0.00     0.068 A 
HETATM   29  C   UNL     1     -44.244  55.413 -59.539  1.00  0.00     0.037 A 
HETATM   30  C   UNL     1     -42.920  55.814 -59.365  1.00  0.00     0.003 A 
HETATM   31  C   UNL     1     -42.521  57.090 -59.764  1.00  0.00     0.009 A 
BRANCH  28  32
HETATM   32  O   UNL     1     -46.433  55.761 -60.253  1.00  0.00    -0.356 OA
HETATM   33  C   UNL     1     -47.321  56.477 -61.105  1.00  0.00     0.210 C 
ENDBRANCH  28  32
ENDBRANCH  25  26
ENDBRANCH  22  25
ENDBRANCH   1  21
TORSDOF 7
ENDMDL
MODEL 8
REMARK VINA RESULT:      -6.8      5.165      8.643
REMARK  7 active torsions:
REMARK  status: ('A' for Active; 'I' for Inactive)
REMARK       I    between atoms: N_2  and  C_3 
REMARK    1  A    between atoms: N_2  and  C_24 
REMARK    2  A    between atoms: C_3  and  C_4 
REMARK    3  A    between atoms: C_7  and  N_8 
REMARK    4  A    between atoms: C_11  and  N_12 
REMARK       I    between atoms: N_12  and  C_13 
REMARK    5  A    between atoms: C_13  and  C_14 
REMARK    6  A    between atoms: C_24  and  C_25 
REMARK    7  A    between atoms: C_27  and  O_28 
ROOT
HETATM    1  C   UNL     1     -43.227  57.818 -54.449  1.00  0.00     0.032 A 
HETATM    2  C   UNL     1     -44.463  58.409 -54.182  1.00  0.00     0.019 A 
HETATM    3  C   UNL     1     -44.562  59.454 -53.260  1.00  0.00     0.032 A 
HETATM    4  C   UNL     1     -43.431  59.888 -52.552  1.00  0.00     0.058 A 
HETATM    5  C   UNL     1     -42.190  59.290 -52.810  1.00  0.00     0.032 A 
HETATM    6  C   UNL     1     -42.094  58.259 -53.755  1.00  0.00     0.019 A 
ENDROOT
BRANCH   4   7
HETATM    7  N   UNL     1     -43.588  60.879 -51.543  1.00  0.00    -0.243 N 
HETATM    8  N   UNL     1     -43.371  62.190 -51.823  1.00  0.00    -0.178 NA
HETATM    9  C   UNL     1     -43.732  62.837 -50.714  1.00  0.00     0.170 A 
HETATM   10  C   UNL     1     -44.167  61.965 -49.702  1.00  0.00     0.071 A 
HETATM   11  C   UNL     1     -44.015  60.709 -50.241  1.00  0.00     0.149 A 
BRANCH  10  12
HETATM   12  N   UNL     1     -44.678  62.207 -48.443  1.00  0.00    -0.324 N 
HETATM   13  C   UNL     1     -46.026  62.325 -48.163  1.00  0.00     0.228 C 
HETATM   14  O   UNL     1     -46.926  62.314 -49.002  1.00  0.00    -0.273 OA
HETATM   15  H   UNL     1     -44.012  62.278 -47.678  1.00  0.00     0.169 HD
BRANCH  13  16
HETATM   16  C   UNL     1     -46.367  62.388 -46.678  1.00  0.00     0.104 C 
HETATM   17  C   UNL     1     -45.133  62.488 -45.812  1.00  0.00     0.181 C 
HETATM   18  O   UNL     1     -44.708  61.127 -45.625  1.00  0.00    -0.390 OA
HETATM   19  C   UNL     1     -45.889  60.311 -45.569  1.00  0.00     0.168 C 
HETATM   20  C   UNL     1     -47.020  61.106 -46.197  1.00  0.00     0.042 C 
ENDBRANCH  13  16
ENDBRANCH  10  12
ENDBRANCH   4   7
BRANCH   1  21
HETATM   21  C   UNL     1     -43.096  56.638 -55.346  1.00  0.00     0.253 C 
HETATM   22  N   UNL     1     -43.063  55.341 -54.825  1.00  0.00    -0.348 N 
HETATM   23  C   UNL     1     -42.848  54.253 -55.770  1.00  0.00     0.153 C 
HETATM   24  O   UNL     1     -43.004  56.867 -56.553  1.00  0.00    -0.267 OA
BRANCH  22  25
HETATM   25  C   UNL     1     -43.614  54.962 -53.523  1.00  0.00     0.164 C 
BRANCH  25  26
HETATM   26  C   UNL     1     -42.592  54.773 -52.420  1.00  0.00    -0.038 A 
HETATM   27  C   UNL     1     -41.601  53.774 -52.455  1.00  0.00     0.045 A 
HETATM   28  C   UNL     1     -40.624  53.693 -51.459  1.00  0.00     0.068 A 
HETATM   29  C   UNL     1     -40.660  54.589 -50.392  1.00  0.00     0.037 A 
HETATM   30  C   UNL     1     -41.642  55.577 -50.331  1.00  0.00     0.003 A 
HETATM   31  C   UNL     1     -42.596  55.673 -51.343  1.00  0.00     0.009 A 
BRANCH  28  32
HETATM   32  O   UNL     1     -39.598  52.789 -51.421  1.00  0.00    -0.356 OA
HETATM   33  C   UNL     1     -39.613  51.771 -52.416  1.00  0.00     0.210 C 
ENDBRANCH  28  32
ENDBRANCH  25  26
ENDBRANCH  22  25
ENDBRANCH   1  21
TORSDOF 7
ENDMDL
MODEL 9
REMARK VINA RESULT:      -6.8     15.884     18.269
REMARK  7 active torsions:
REMARK  status: ('A' for Active; 'I' for Inactive)
REMARK       I    between atoms: N_2  and  C_3 
REMARK    1  A    between atoms: N_2  and  C_24 
REMARK    2  A    between atoms: C_3  and  C_4 
REMARK    3  A    between atoms: C_7  and  N_8 
REMARK    4  A    between atoms: C_11  and  N_12 
REMARK       I    between atoms: N_12  and  C_13 
REMARK    5  A    between atoms: C_13  and  C_14 
REMARK    6  A    between atoms: C_24  and  C_25 
REMARK    7  A    between atoms: C_27  and  O_28 
ROOT
HETATM    1  C   UNL     1     -35.072  39.509 -51.240  1.00  0.00     0.032 A 
HETATM    2  C   UNL     1     -35.252  38.526 -52.214  1.00  0.00     0.019 A 
HETATM    3  C   UNL     1     -35.791  38.856 -53.460  1.00  0.00     0.032 A 
HETATM    4  C   UNL     1     -36.208  40.169 -53.729  1.00  0.00     0.058 A 
HETATM    5  C   UNL     1     -36.038  41.156 -52.751  1.00  0.00     0.032 A 
HETATM    6  C   UNL     1     -35.473  40.823 -51.512  1.00  0.00     0.019 A 
ENDROOT
BRANCH   4   7
HETATM    7  N   UNL     1     -36.852  40.446 -54.968  1.00  0.00    -0.243 N 
HETATM    8  N   UNL     1     -37.273  41.703 -55.261  1.00  0.00    -0.178 NA
HETATM    9  C   UNL     1     -37.699  41.631 -56.523  1.00  0.00     0.170 A 
HETATM   10  C   UNL     1     -37.580  40.337 -57.057  1.00  0.00     0.071 A 
HETATM   11  C   UNL     1     -37.083  39.582 -56.021  1.00  0.00     0.149 A 
BRANCH  10  12
HETATM   12  N   UNL     1     -37.839  39.839 -58.318  1.00  0.00    -0.324 N 
HETATM   13  C   UNL     1     -37.538  40.506 -59.490  1.00  0.00     0.228 C 
HETATM   14  O   UNL     1     -37.084  41.647 -59.558  1.00  0.00    -0.273 OA
HETATM   15  H   UNL     1     -38.256  38.914 -58.375  1.00  0.00     0.169 HD
BRANCH  13  16
HETATM   16  C   UNL     1     -37.725  39.682 -60.760  1.00  0.00     0.104 C 
HETATM   17  C   UNL     1     -38.714  38.556 -60.569  1.00  0.00     0.181 C 
HETATM   18  O   UNL     1     -37.938  37.478 -60.022  1.00  0.00    -0.390 OA
HETATM   19  C   UNL     1     -36.627  37.551 -60.605  1.00  0.00     0.168 C 
HETATM   20  C   UNL     1     -36.453  38.957 -61.152  1.00  0.00     0.042 C 
ENDBRANCH  13  16
ENDBRANCH  10  12
ENDBRANCH   4   7
BRANCH   1  21
HETATM   21  C   UNL     1     -34.597  39.181 -49.868  1.00  0.00     0.253 C 
HETATM   22  N   UNL     1     -33.231  39.154 -49.569  1.00  0.00    -0.348 N 
HETATM   23  C   UNL     1     -32.857  38.742 -48.223  1.00  0.00     0.153 C 
HETATM   24  O   UNL     1     -35.462  38.926 -49.029  1.00  0.00    -0.267 OA
BRANCH  22  25
HETATM   25  C   UNL     1     -32.207  39.868 -50.332  1.00  0.00     0.164 C 
BRANCH  25  26
HETATM   26  C   UNL     1     -32.009  39.387 -51.755  1.00  0.00    -0.038 A 
HETATM   27  C   UNL     1     -32.020  40.250 -52.867  1.00  0.00     0.045 A 
HETATM   28  C   UNL     1     -31.746  39.774 -54.152  1.00  0.00     0.068 A 
HETATM   29  C   UNL     1     -31.502  38.414 -54.339  1.00  0.00     0.037 A 
HETATM   30  C   UNL     1     -31.500  37.540 -53.254  1.00  0.00     0.003 A 
HETATM   31  C   UNL     1     -31.744  38.025 -51.969  1.00  0.00     0.009 A 
BRANCH  28  32
HETATM   32  O   UNL     1     -31.693  40.533 -55.288  1.00  0.00    -0.356 OA
HETATM   33  C   UNL     1     -31.477  39.832 -56.509  1.00  0.00     0.210 C 
ENDBRANCH  28  32
ENDBRANCH  25  26
ENDBRANCH  22  25
ENDBRANCH   1  21
TORSDOF 7
ENDMDL
MODEL 10
REMARK VINA RESULT:      -6.7      2.350      3.206
REMARK  7 active torsions:
REMARK  status: ('A' for Active; 'I' for Inactive)
REMARK       I    between atoms: N_2  and  C_3 
REMARK    1  A    between atoms: N_2  and  C_24 
REMARK    2  A    between atoms: C_3  and  C_4 
REMARK    3  A    between atoms: C_7  and  N_8 
REMARK    4  A    between atoms: C_11  and  N_12 
REMARK       I    between atoms: N_12  and  C_13 
REMARK    5  A    between atoms: C_13  and  C_14 
REMARK    6  A    between atoms: C_24  and  C_25 
REMARK    7  A    between atoms: C_27  and  O_28 
ROOT
HETATM    1  C   UNL     1     -41.505  57.343 -51.744  1.00  0.00     0.032 A 
HETATM    2  C   UNL     1     -40.568  57.725 -52.705  1.00  0.00     0.019 A 
HETATM    3  C   UNL     1     -40.971  58.415 -53.851  1.00  0.00     0.032 A 
HETATM    4  C   UNL     1     -42.329  58.685 -54.078  1.00  0.00     0.058 A 
HETATM    5  C   UNL     1     -43.274  58.294 -53.122  1.00  0.00     0.032 A 
HETATM    6  C   UNL     1     -42.860  57.625 -51.962  1.00  0.00     0.019 A 
ENDROOT
BRANCH   4   7
HETATM    7  N   UNL     1     -42.714  59.291 -55.307  1.00  0.00    -0.243 N 
HETATM    8  N   UNL     1     -41.976  60.298 -55.841  1.00  0.00    -0.178 NA
HETATM    9  C   UNL     1     -42.533  60.532 -57.030  1.00  0.00     0.170 A 
HETATM   10  C   UNL     1     -43.641  59.703 -57.275  1.00  0.00     0.071 A 
HETATM   11  C   UNL     1     -43.769  58.952 -56.131  1.00  0.00     0.149 A 
BRANCH  10  12
HETATM   12  N   UNL     1     -44.457  59.569 -58.381  1.00  0.00    -0.324 N 
HETATM   13  C   UNL     1     -44.142  58.805 -59.488  1.00  0.00     0.228 C 
HETATM   14  O   UNL     1     -43.072  58.223 -59.664  1.00  0.00    -0.273 OA
HETATM   15  H   UNL     1     -45.353  60.048 -58.356  1.00  0.00     0.169 HD
BRANCH  13  16
HETATM   16  C   UNL     1     -45.276  58.641 -60.495  1.00  0.00     0.104 C 
HETATM   17  C   UNL     1     -46.502  59.433 -60.108  1.00  0.00     0.181 C 
HETATM   18  O   UNL     1     -47.221  58.575 -59.206  1.00  0.00    -0.390 OA
HETATM   19  C   UNL     1     -47.018  57.222 -59.645  1.00  0.00     0.168 C 
HETATM   20  C   UNL     1     -45.788  57.215 -60.536  1.00  0.00     0.042 C 
ENDBRANCH  13  16
ENDBRANCH  10  12
ENDBRANCH   4   7
BRANCH   1  21
HETATM   21  C   UNL     1     -41.132  56.520 -50.562  1.00  0.00     0.253 C 
HETATM   22  N   UNL     1     -41.787  55.315 -50.291  1.00  0.00    -0.348 N 
HETATM   23  C   UNL     1     -41.413  54.620 -49.066  1.00  0.00     0.153 C 
HETATM   24  O   UNL     1     -40.238  56.963 -49.840  1.00  0.00    -0.267 OA
BRANCH  22  25
HETATM   25  C   UNL     1     -42.492  54.516 -51.295  1.00  0.00     0.164 C 
BRANCH  25  26
HETATM   26  C   UNL     1     -41.607  53.874 -52.345  1.00  0.00    -0.038 A 
HETATM   27  C   UNL     1     -40.773  52.773 -52.077  1.00  0.00     0.045 A 
HETATM   28  C   UNL     1     -40.042  52.158 -53.098  1.00  0.00     0.068 A 
HETATM   29  C   UNL     1     -40.107  52.673 -54.391  1.00  0.00     0.037 A 
HETATM   30  C   UNL     1     -40.916  53.772 -54.675  1.00  0.00     0.003 A 
HETATM   31  C   UNL     1     -41.668  54.364 -53.660  1.00  0.00     0.009 A 
BRANCH  28  32
HETATM   32  O   UNL     1     -39.237  51.062 -52.952  1.00  0.00    -0.356 OA
HETATM   33  C   UNL     1     -39.678  49.863 -53.579  1.00  0.00     0.210 C 
ENDBRANCH  28  32
ENDBRANCH  25  26
ENDBRANCH  22  25
ENDBRANCH   1  21
TORSDOF 7
ENDMDL
