MODEL 1
REMARK VINA RESULT:      -8.0      0.000      0.000
REMARK  8 active torsions:
REMARK  status: ('A' for Active; 'I' for Inactive)
REMARK    1  A    between atoms: C_2  and  C_3 
REMARK    2  A    between atoms: C_3  and  C_4 
REMARK    3  A    between atoms: C_4  and  N_5 
REMARK       I    between atoms: N_5  and  C_6 
REMARK    4  A    between atoms: C_6  and  C_7 
REMARK    5  A    between atoms: C_14  and  S_15 
REMARK    6  A    between atoms: S_15  and  N_16 
REMARK    7  A    between atoms: N_16  and  C_17 
REMARK    8  A    between atoms: C_19  and  O_20 
ROOT
HETATM    1  C   UNL     1     -41.529  55.567 -53.704  1.00  0.00     0.098 A 
HETATM    2  C   UNL     1     -42.160  54.991 -54.926  1.00  0.00     0.201 A 
HETATM    3  O   UNL     1     -42.321  53.781 -55.065  1.00  0.00    -0.286 OA
HETATM    4  C   UNL     1     -42.588  55.926 -56.002  1.00  0.00     0.043 A 
HETATM    5  C   UNL     1     -42.374  57.305 -55.831  1.00  0.00     0.046 A 
HETATM    6  N   UNL     1     -41.750  57.768 -54.668  1.00  0.00    -0.364 N 
HETATM    7  C   UNL     1     -43.183  55.428 -57.166  1.00  0.00     0.043 A 
HETATM    8  C   UNL     1     -43.543  56.322 -58.178  1.00  0.00     0.081 A 
HETATM    9  C   UNL     1     -43.338  57.697 -58.025  1.00  0.00     0.027 A 
HETATM   10  C   UNL     1     -42.747  58.183 -56.853  1.00  0.00     0.032 A 
HETATM   11  C   UNL     1     -41.382  56.902 -53.670  1.00  0.00     0.109 A 
HETATM   12  H   UNL     1     -41.680  58.766 -54.498  1.00  0.00     0.165 HD
ENDROOT
BRANCH   8  13
HETATM   13  S   UNL     1     -44.310  55.685 -59.652  1.00  0.00     0.263 S 
HETATM   14  O   UNL     1     -43.935  56.566 -60.737  1.00  0.00    -0.200 OA
HETATM   15  O   UNL     1     -44.054  54.263 -59.714  1.00  0.00    -0.200 OA
BRANCH  13  16
HETATM   16  N   UNL     1     -45.952  55.955 -59.361  1.00  0.00    -0.281 N 
HETATM   17  H   UNL     1     -46.439  55.107 -59.076  1.00  0.00     0.179 HD
BRANCH  16  18
HETATM   18  C   UNL     1     -46.655  56.873 -60.191  1.00  0.00     0.045 A 
HETATM   19  C   UNL     1     -47.483  56.389 -61.208  1.00  0.00     0.066 A 
HETATM   20  C   UNL     1     -48.185  57.281 -62.018  1.00  0.00     0.070 A 
HETATM   21  C   UNL     1     -48.080  58.653 -61.776  1.00  0.00     0.037 A 
HETATM   22  C   UNL     1     -47.264  59.134 -60.752  1.00  0.00     0.005 A 
HETATM   23  C   UNL     1     -46.544  58.243 -59.958  1.00  0.00     0.030 A 
BRANCH  20  24
HETATM   24  O   UNL     1     -49.004  56.943 -63.060  1.00  0.00    -0.356 OA
HETATM   25  C   UNL     1     -49.164  57.916 -64.087  1.00  0.00     0.210 C 
ENDBRANCH  20  24
ENDBRANCH  16  18
ENDBRANCH  13  16
ENDBRANCH   8  13
BRANCH   1  26
HETATM   26  C   UNL     1     -41.038  54.766 -52.545  1.00  0.00     0.257 C 
HETATM   27  N   UNL     1     -40.555  53.521 -52.856  1.00  0.00    -0.357 N 
HETATM   28  H   UNL     1     -40.591  53.214 -53.829  1.00  0.00     0.162 HD
HETATM   29  O   UNL     1     -41.060  55.211 -51.401  1.00  0.00    -0.267 OA
BRANCH  27  30
HETATM   30  C   UNL     1     -39.989  52.627 -51.869  1.00  0.00     0.123 C 
BRANCH  30  31
HETATM   31  C   UNL     1     -39.452  51.344 -52.496  1.00  0.00     0.019 C 
BRANCH  31  32
HETATM   32  C   UNL     1     -39.788  51.277 -53.985  1.00  0.00    -0.003 C 
HETATM   33  C   UNL     1     -39.758  49.849 -54.504  1.00  0.00     0.005 C 
ENDBRANCH  31  32
ENDBRANCH  30  31
ENDBRANCH  27  30
ENDBRANCH   1  26
TORSDOF 8
ENDMDL
MODEL 2
REMARK VINA RESULT:      -8.0      2.381      3.262
REMARK  8 active torsions:
REMARK  status: ('A' for Active; 'I' for Inactive)
REMARK    1  A    between atoms: C_2  and  C_3 
REMARK    2  A    between atoms: C_3  and  C_4 
REMARK    3  A    between atoms: C_4  and  N_5 
REMARK       I    between atoms: N_5  and  C_6 
REMARK    4  A    between atoms: C_6  and  C_7 
REMARK    5  A    between atoms: C_14  and  S_15 
REMARK    6  A    between atoms: S_15  and  N_16 
REMARK    7  A    between atoms: N_16  and  C_17 
REMARK    8  A    between atoms: C_19  and  O_20 
ROOT
HETATM    1  C   UNL     1     -41.923  54.349 -53.434  1.00  0.00     0.098 A 
HETATM    2  C   UNL     1     -41.513  55.290 -54.515  1.00  0.00     0.201 A 
HETATM    3  O   UNL     1     -40.376  55.288 -54.982  1.00  0.00    -0.286 OA
HETATM    4  C   UNL     1     -42.522  56.260 -55.021  1.00  0.00     0.043 A 
HETATM    5  C   UNL     1     -43.810  56.259 -54.457  1.00  0.00     0.046 A 
HETATM    6  N   UNL     1     -44.112  55.365 -53.425  1.00  0.00    -0.364 N 
HETATM    7  C   UNL     1     -42.180  57.161 -56.034  1.00  0.00     0.043 A 
HETATM    8  C   UNL     1     -43.133  58.087 -56.467  1.00  0.00     0.081 A 
HETATM    9  C   UNL     1     -44.420  58.101 -55.918  1.00  0.00     0.027 A 
HETATM   10  C   UNL     1     -44.751  57.190 -54.908  1.00  0.00     0.032 A 
HETATM   11  C   UNL     1     -43.184  54.457 -52.983  1.00  0.00     0.109 A 
HETATM   12  H   UNL     1     -45.064  55.296 -53.081  1.00  0.00     0.165 HD
ENDROOT
BRANCH   8  13
HETATM   13  S   UNL     1     -42.697  59.225 -57.765  1.00  0.00     0.263 S 
HETATM   14  O   UNL     1     -43.870  60.029 -58.033  1.00  0.00    -0.200 OA
HETATM   15  O   UNL     1     -41.430  59.833 -57.423  1.00  0.00    -0.200 OA
BRANCH  13  16
HETATM   16  N   UNL     1     -42.498  58.207 -59.098  1.00  0.00    -0.281 N 
HETATM   17  H   UNL     1     -42.091  58.689 -59.897  1.00  0.00     0.179 HD
BRANCH  16  18
HETATM   18  C   UNL     1     -43.487  57.216 -59.359  1.00  0.00     0.045 A 
HETATM   19  C   UNL     1     -44.806  57.606 -59.602  1.00  0.00     0.066 A 
HETATM   20  C   UNL     1     -45.779  56.644 -59.871  1.00  0.00     0.070 A 
HETATM   21  C   UNL     1     -45.410  55.297 -59.931  1.00  0.00     0.037 A 
HETATM   22  C   UNL     1     -44.089  54.910 -59.702  1.00  0.00     0.005 A 
HETATM   23  C   UNL     1     -43.123  55.871 -59.410  1.00  0.00     0.030 A 
BRANCH  20  24
HETATM   24  O   UNL     1     -47.106  56.886 -60.099  1.00  0.00    -0.356 OA
HETATM   25  C   UNL     1     -47.611  56.521 -61.379  1.00  0.00     0.210 C 
ENDBRANCH  20  24
ENDBRANCH  16  18
ENDBRANCH  13  16
ENDBRANCH   8  13
BRANCH   1  26
HETATM   26  C   UNL     1     -41.028  53.328 -52.814  1.00  0.00     0.257 C 
HETATM   27  N   UNL     1     -40.300  52.573 -53.697  1.00  0.00    -0.357 N 
HETATM   28  H   UNL     1     -40.436  52.729 -54.697  1.00  0.00     0.162 HD
HETATM   29  O   UNL     1     -40.951  53.196 -51.596  1.00  0.00    -0.267 OA
BRANCH  27  30
HETATM   30  C   UNL     1     -39.343  51.574 -53.276  1.00  0.00     0.123 C 
BRANCH  30  31
HETATM   31  C   UNL     1     -39.803  50.159 -53.618  1.00  0.00     0.019 C 
BRANCH  31  32
HETATM   32  C   UNL     1     -39.624  49.221 -52.425  1.00  0.00    -0.003 C 
HETATM   33  C   UNL     1     -39.532  49.988 -51.116  1.00  0.00     0.005 C 
ENDBRANCH  31  32
ENDBRANCH  30  31
ENDBRANCH  27  30
ENDBRANCH   1  26
TORSDOF 8
ENDMDL
MODEL 3
REMARK VINA RESULT:      -7.9      2.948      4.471
REMARK  8 active torsions:
REMARK  status: ('A' for Active; 'I' for Inactive)
REMARK    1  A    between atoms: C_2  and  C_3 
REMARK    2  A    between atoms: C_3  and  C_4 
REMARK    3  A    between atoms: C_4  and  N_5 
REMARK       I    between atoms: N_5  and  C_6 
REMARK    4  A    between atoms: C_6  and  C_7 
REMARK    5  A    between atoms: C_14  and  S_15 
REMARK    6  A    between atoms: S_15  and  N_16 
REMARK    7  A    between atoms: N_16  and  C_17 
REMARK    8  A    between atoms: C_19  and  O_20 
ROOT
HETATM    1  C   UNL     1     -40.899  54.282 -50.648  1.00  0.00     0.098 A 
HETATM    2  C   UNL     1     -41.170  54.711 -52.050  1.00  0.00     0.201 A 
HETATM    3  O   UNL     1     -41.062  53.938 -52.999  1.00  0.00    -0.286 OA
HETATM    4  C   UNL     1     -41.566  56.126 -52.287  1.00  0.00     0.043 A 
HETATM    5  C   UNL     1     -41.661  57.000 -51.189  1.00  0.00     0.046 A 
HETATM    6  N   UNL     1     -41.365  56.530 -49.905  1.00  0.00    -0.364 N 
HETATM    7  C   UNL     1     -41.829  56.572 -53.586  1.00  0.00     0.043 A 
HETATM    8  C   UNL     1     -42.164  57.913 -53.787  1.00  0.00     0.081 A 
HETATM    9  C   UNL     1     -42.263  58.797 -52.707  1.00  0.00     0.027 A 
HETATM   10  C   UNL     1     -42.004  58.337 -51.411  1.00  0.00     0.032 A 
HETATM   11  C   UNL     1     -41.025  55.219 -49.693  1.00  0.00     0.109 A 
HETATM   12  H   UNL     1     -41.523  57.129 -49.101  1.00  0.00     0.165 HD
ENDROOT
BRANCH   8  13
HETATM   13  S   UNL     1     -42.507  58.473 -55.442  1.00  0.00     0.263 S 
HETATM   14  O   UNL     1     -43.946  58.495 -55.590  1.00  0.00    -0.200 OA
HETATM   15  O   UNL     1     -41.707  59.652 -55.692  1.00  0.00    -0.200 OA
BRANCH  13  16
HETATM   16  N   UNL     1     -41.946  57.193 -56.390  1.00  0.00    -0.281 N 
HETATM   17  H   UNL     1     -40.959  56.998 -56.232  1.00  0.00     0.179 HD
BRANCH  16  18
HETATM   18  C   UNL     1     -42.443  57.052 -57.716  1.00  0.00     0.045 A 
HETATM   19  C   UNL     1     -43.300  55.992 -58.022  1.00  0.00     0.066 A 
HETATM   20  C   UNL     1     -43.802  55.852 -59.315  1.00  0.00     0.070 A 
HETATM   21  C   UNL     1     -43.468  56.802 -60.285  1.00  0.00     0.037 A 
HETATM   22  C   UNL     1     -42.623  57.868 -59.975  1.00  0.00     0.005 A 
HETATM   23  C   UNL     1     -42.103  57.992 -58.687  1.00  0.00     0.030 A 
BRANCH  20  24
HETATM   24  O   UNL     1     -44.625  54.851 -59.753  1.00  0.00    -0.356 OA
HETATM   25  C   UNL     1     -45.004  54.889 -61.125  1.00  0.00     0.210 C 
ENDBRANCH  20  24
ENDBRANCH  16  18
ENDBRANCH  13  16
ENDBRANCH   8  13
BRANCH   1  26
HETATM   26  C   UNL     1     -40.483  52.906 -50.248  1.00  0.00     0.257 C 
HETATM   27  N   UNL     1     -39.960  52.136 -51.254  1.00  0.00    -0.357 N 
HETATM   28  H   UNL     1     -39.920  52.527 -52.197  1.00  0.00     0.162 HD
HETATM   29  O   UNL     1     -40.594  52.512 -49.091  1.00  0.00    -0.267 OA
BRANCH  27  30
HETATM   30  C   UNL     1     -39.455  50.798 -51.040  1.00  0.00     0.123 C 
BRANCH  30  31
HETATM   31  C   UNL     1     -39.680  49.897 -52.252  1.00  0.00     0.019 C 
BRANCH  31  32
HETATM   32  C   UNL     1     -39.597  50.696 -53.552  1.00  0.00    -0.003 C 
HETATM   33  C   UNL     1     -40.436  50.066 -54.652  1.00  0.00     0.005 C 
ENDBRANCH  31  32
ENDBRANCH  30  31
ENDBRANCH  27  30
ENDBRANCH   1  26
TORSDOF 8
ENDMDL
MODEL 4
REMARK VINA RESULT:      -7.8      4.062      9.967
REMARK  8 active torsions:
REMARK  status: ('A' for Active; 'I' for Inactive)
REMARK    1  A    between atoms: C_2  and  C_3 
REMARK    2  A    between atoms: C_3  and  C_4 
REMARK    3  A    between atoms: C_4  and  N_5 
REMARK       I    between atoms: N_5  and  C_6 
REMARK    4  A    between atoms: C_6  and  C_7 
REMARK    5  A    between atoms: C_14  and  S_15 
REMARK    6  A    between atoms: S_15  and  N_16 
REMARK    7  A    between atoms: N_16  and  C_17 
REMARK    8  A    between atoms: C_19  and  O_20 
ROOT
HETATM    1  C   UNL     1     -42.117  60.029 -58.419  1.00  0.00     0.098 A 
HETATM    2  C   UNL     1     -42.065  59.523 -57.018  1.00  0.00     0.201 A 
HETATM    3  O   UNL     1     -41.765  60.252 -56.075  1.00  0.00    -0.286 OA
HETATM    4  C   UNL     1     -42.376  58.088 -56.777  1.00  0.00     0.043 A 
HETATM    5  C   UNL     1     -42.695  57.268 -57.874  1.00  0.00     0.046 A 
HETATM    6  N   UNL     1     -42.696  57.808 -59.164  1.00  0.00    -0.364 N 
HETATM    7  C   UNL     1     -42.339  57.571 -55.479  1.00  0.00     0.043 A 
HETATM    8  C   UNL     1     -42.599  56.212 -55.283  1.00  0.00     0.081 A 
HETATM    9  C   UNL     1     -42.919  55.381 -56.361  1.00  0.00     0.027 A 
HETATM   10  C   UNL     1     -42.958  55.912 -57.656  1.00  0.00     0.032 A 
HETATM   11  C   UNL     1     -42.434  59.138 -59.374  1.00  0.00     0.109 A 
HETATM   12  H   UNL     1     -43.017  57.246 -59.945  1.00  0.00     0.165 HD
ENDROOT
BRANCH   8  13
HETATM   13  S   UNL     1     -42.561  55.561 -53.626  1.00  0.00     0.263 S 
HETATM   14  O   UNL     1     -42.883  56.655 -52.735  1.00  0.00    -0.200 OA
HETATM   15  O   UNL     1     -43.320  54.329 -53.610  1.00  0.00    -0.200 OA
BRANCH  13  16
HETATM   16  N   UNL     1     -40.922  55.223 -53.399  1.00  0.00    -0.281 N 
HETATM   17  H   UNL     1     -40.319  55.874 -53.898  1.00  0.00     0.179 HD
BRANCH  16  18
HETATM   18  C   UNL     1     -40.506  53.864 -53.322  1.00  0.00     0.045 A 
HETATM   19  C   UNL     1     -40.322  53.268 -52.072  1.00  0.00     0.066 A 
HETATM   20  C   UNL     1     -39.927  51.934 -51.987  1.00  0.00     0.070 A 
HETATM   21  C   UNL     1     -39.754  51.196 -53.162  1.00  0.00     0.037 A 
HETATM   22  C   UNL     1     -39.951  51.788 -54.410  1.00  0.00     0.005 A 
HETATM   23  C   UNL     1     -40.324  53.128 -54.493  1.00  0.00     0.030 A 
BRANCH  20  24
HETATM   24  O   UNL     1     -39.687  51.240 -50.833  1.00  0.00    -0.356 OA
HETATM   25  C   UNL     1     -39.570  49.825 -50.951  1.00  0.00     0.210 C 
ENDBRANCH  20  24
ENDBRANCH  16  18
ENDBRANCH  13  16
ENDBRANCH   8  13
BRANCH   1  26
HETATM   26  C   UNL     1     -41.822  61.434 -58.825  1.00  0.00     0.257 C 
HETATM   27  N   UNL     1     -40.687  61.976 -58.279  1.00  0.00    -0.357 N 
HETATM   28  H   UNL     1     -40.147  61.413 -57.620  1.00  0.00     0.162 HD
HETATM   29  O   UNL     1     -42.547  62.043 -59.606  1.00  0.00    -0.267 OA
BRANCH  27  30
HETATM   30  C   UNL     1     -40.217  63.306 -58.600  1.00  0.00     0.123 C 
BRANCH  30  31
HETATM   31  C   UNL     1     -39.055  63.281 -59.590  1.00  0.00     0.019 C 
BRANCH  31  32
HETATM   32  C   UNL     1     -39.453  63.920 -60.920  1.00  0.00    -0.003 C 
HETATM   33  C   UNL     1     -39.544  62.888 -62.032  1.00  0.00     0.005 C 
ENDBRANCH  31  32
ENDBRANCH  30  31
ENDBRANCH  27  30
ENDBRANCH   1  26
TORSDOF 8
ENDMDL
MODEL 5
REMARK VINA RESULT:      -7.8      2.880      9.593
REMARK  8 active torsions:
REMARK  status: ('A' for Active; 'I' for Inactive)
REMARK    1  A    between atoms: C_2  and  C_3 
REMARK    2  A    between atoms: C_3  and  C_4 
REMARK    3  A    between atoms: C_4  and  N_5 
REMARK       I    between atoms: N_5  and  C_6 
REMARK    4  A    between atoms: C_6  and  C_7 
REMARK    5  A    between atoms: C_14  and  S_15 
REMARK    6  A    between atoms: S_15  and  N_16 
REMARK    7  A    between atoms: N_16  and  C_17 
REMARK    8  A    between atoms: C_19  and  O_20 
ROOT
HETATM    1  C   UNL     1     -44.506  58.229 -56.569  1.00  0.00     0.098 A 
HETATM    2  C   UNL     1     -43.764  57.189 -55.801  1.00  0.00     0.201 A 
HETATM    3  O   UNL     1     -43.062  56.348 -56.358  1.00  0.00    -0.286 OA
HETATM    4  C   UNL     1     -43.902  57.177 -54.319  1.00  0.00     0.043 A 
HETATM    5  C   UNL     1     -44.728  58.135 -53.705  1.00  0.00     0.046 A 
HETATM    6  N   UNL     1     -45.416  59.063 -54.495  1.00  0.00    -0.364 N 
HETATM    7  C   UNL     1     -43.224  56.218 -53.560  1.00  0.00     0.043 A 
HETATM    8  C   UNL     1     -43.398  56.205 -52.174  1.00  0.00     0.081 A 
HETATM    9  C   UNL     1     -44.216  57.150 -51.546  1.00  0.00     0.027 A 
HETATM   10  C   UNL     1     -44.885  58.108 -52.316  1.00  0.00     0.032 A 
HETATM   11  C   UNL     1     -45.263  59.082 -55.857  1.00  0.00     0.109 A 
HETATM   12  H   UNL     1     -45.936  59.812 -54.052  1.00  0.00     0.165 HD
ENDROOT
BRANCH   8  13
HETATM   13  S   UNL     1     -42.525  54.989 -51.211  1.00  0.00     0.263 S 
HETATM   14  O   UNL     1     -42.269  55.581 -49.916  1.00  0.00    -0.200 OA
HETATM   15  O   UNL     1     -43.223  53.728 -51.338  1.00  0.00    -0.200 OA
BRANCH  13  16
HETATM   16  N   UNL     1     -41.034  54.894 -51.999  1.00  0.00    -0.281 N 
HETATM   17  H   UNL     1     -40.812  55.745 -52.512  1.00  0.00     0.179 HD
BRANCH  16  18
HETATM   18  C   UNL     1     -40.640  53.654 -52.577  1.00  0.00     0.045 A 
HETATM   19  C   UNL     1     -40.098  52.656 -51.764  1.00  0.00     0.066 A 
HETATM   20  C   UNL     1     -39.721  51.433 -52.319  1.00  0.00     0.070 A 
HETATM   21  C   UNL     1     -39.927  51.209 -53.683  1.00  0.00     0.037 A 
HETATM   22  C   UNL     1     -40.481  52.202 -54.491  1.00  0.00     0.005 A 
HETATM   23  C   UNL     1     -40.836  53.431 -53.939  1.00  0.00     0.030 A 
BRANCH  20  24
HETATM   24  O   UNL     1     -39.156  50.386 -51.644  1.00  0.00    -0.356 OA
HETATM   25  C   UNL     1     -39.868  49.898 -50.511  1.00  0.00     0.210 C 
ENDBRANCH  20  24
ENDBRANCH  16  18
ENDBRANCH  13  16
ENDBRANCH   8  13
BRANCH   1  26
HETATM   26  C   UNL     1     -44.481  58.366 -58.054  1.00  0.00     0.257 C 
HETATM   27  N   UNL     1     -44.722  57.212 -58.754  1.00  0.00    -0.357 N 
HETATM   28  H   UNL     1     -44.865  56.347 -58.231  1.00  0.00     0.162 HD
HETATM   29  O   UNL     1     -44.272  59.448 -58.596  1.00  0.00    -0.267 OA
BRANCH  27  30
HETATM   30  C   UNL     1     -44.789  57.167 -60.198  1.00  0.00     0.123 C 
BRANCH  30  31
HETATM   31  C   UNL     1     -45.558  55.948 -60.700  1.00  0.00     0.019 C 
BRANCH  31  32
HETATM   32  C   UNL     1     -47.051  56.082 -60.405  1.00  0.00    -0.003 C 
HETATM   33  C   UNL     1     -47.780  56.817 -61.518  1.00  0.00     0.005 C 
ENDBRANCH  31  32
ENDBRANCH  30  31
ENDBRANCH  27  30
ENDBRANCH   1  26
TORSDOF 8
ENDMDL
MODEL 6
REMARK VINA RESULT:      -7.7      6.140      9.917
REMARK  8 active torsions:
REMARK  status: ('A' for Active; 'I' for Inactive)
REMARK    1  A    between atoms: C_2  and  C_3 
REMARK    2  A    between atoms: C_3  and  C_4 
REMARK    3  A    between atoms: C_4  and  N_5 
REMARK       I    between atoms: N_5  and  C_6 
REMARK    4  A    between atoms: C_6  and  C_7 
REMARK    5  A    between atoms: C_14  and  S_15 
REMARK    6  A    between atoms: S_15  and  N_16 
REMARK    7  A    between atoms: N_16  and  C_17 
REMARK    8  A    between atoms: C_19  and  O_20 
ROOT
HETATM    1  C   UNL     1     -44.632  60.526 -50.118  1.00  0.00     0.098 A 
HETATM    2  C   UNL     1     -44.853  59.198 -50.757  1.00  0.00     0.201 A 
HETATM    3  O   UNL     1     -45.929  58.610 -50.679  1.00  0.00    -0.286 OA
HETATM    4  C   UNL     1     -43.719  58.576 -51.495  1.00  0.00     0.043 A 
HETATM    5  C   UNL     1     -42.490  59.256 -51.552  1.00  0.00     0.046 A 
HETATM    6  N   UNL     1     -42.350  60.487 -50.904  1.00  0.00    -0.364 N 
HETATM    7  C   UNL     1     -43.883  57.330 -52.109  1.00  0.00     0.043 A 
HETATM    8  C   UNL     1     -42.794  56.750 -52.764  1.00  0.00     0.081 A 
HETATM    9  C   UNL     1     -41.563  57.411 -52.832  1.00  0.00     0.027 A 
HETATM   10  C   UNL     1     -41.414  58.660 -52.218  1.00  0.00     0.032 A 
HETATM   11  C   UNL     1     -43.407  61.065 -50.248  1.00  0.00     0.109 A 
HETATM   12  H   UNL     1     -41.498  61.024 -51.021  1.00  0.00     0.165 HD
ENDROOT
BRANCH   8  13
HETATM   13  S   UNL     1     -43.010  55.169 -53.553  1.00  0.00     0.263 S 
HETATM   14  O   UNL     1     -43.443  54.242 -52.530  1.00  0.00    -0.200 OA
HETATM   15  O   UNL     1     -43.781  55.371 -54.761  1.00  0.00    -0.200 OA
BRANCH  13  16
HETATM   16  N   UNL     1     -41.427  54.736 -53.955  1.00  0.00    -0.281 N 
HETATM   17  H   UNL     1     -41.268  54.739 -54.960  1.00  0.00     0.179 HD
BRANCH  16  18
HETATM   18  C   UNL     1     -40.774  53.733 -53.185  1.00  0.00     0.045 A 
HETATM   19  C   UNL     1     -40.383  52.540 -53.798  1.00  0.00     0.066 A 
HETATM   20  C   UNL     1     -39.731  51.555 -53.055  1.00  0.00     0.070 A 
HETATM   21  C   UNL     1     -39.443  51.794 -51.709  1.00  0.00     0.037 A 
HETATM   22  C   UNL     1     -39.821  52.992 -51.101  1.00  0.00     0.005 A 
HETATM   23  C   UNL     1     -40.493  53.964 -51.840  1.00  0.00     0.030 A 
BRANCH  20  24
HETATM   24  O   UNL     1     -39.321  50.337 -53.523  1.00  0.00    -0.356 OA
HETATM   25  C   UNL     1     -40.055  49.793 -54.616  1.00  0.00     0.210 C 
ENDBRANCH  20  24
ENDBRANCH  16  18
ENDBRANCH  13  16
ENDBRANCH   8  13
BRANCH   1  26
HETATM   26  C   UNL     1     -45.660  61.273 -49.337  1.00  0.00     0.257 C 
HETATM   27  N   UNL     1     -45.419  61.369 -47.990  1.00  0.00    -0.357 N 
HETATM   28  H   UNL     1     -44.592  60.906 -47.610  1.00  0.00     0.162 HD
HETATM   29  O   UNL     1     -46.641  61.774 -49.880  1.00  0.00    -0.267 OA
BRANCH  27  30
HETATM   30  C   UNL     1     -46.279  62.100 -47.087  1.00  0.00     0.123 C 
BRANCH  30  31
HETATM   31  C   UNL     1     -47.051  61.174 -46.151  1.00  0.00     0.019 C 
BRANCH  31  32
HETATM   32  C   UNL     1     -46.317  59.847 -45.963  1.00  0.00    -0.003 C 
HETATM   33  C   UNL     1     -47.268  58.731 -45.565  1.00  0.00     0.005 C 
ENDBRANCH  31  32
ENDBRANCH  30  31
ENDBRANCH  27  30
ENDBRANCH   1  26
TORSDOF 8
ENDMDL
MODEL 7
REMARK VINA RESULT:      -7.6      3.301      4.018
REMARK  8 active torsions:
REMARK  status: ('A' for Active; 'I' for Inactive)
REMARK    1  A    between atoms: C_2  and  C_3 
REMARK    2  A    between atoms: C_3  and  C_4 
REMARK    3  A    between atoms: C_4  and  N_5 
REMARK       I    between atoms: N_5  and  C_6 
REMARK    4  A    between atoms: C_6  and  C_7 
REMARK    5  A    between atoms: C_14  and  S_15 
REMARK    6  A    between atoms: S_15  and  N_16 
REMARK    7  A    between atoms: N_16  and  C_17 
REMARK    8  A    between atoms: C_19  and  O_20 
ROOT
HETATM    1  C   UNL     1     -42.528  54.829 -52.884  1.00  0.00     0.098 A 
HETATM    2  C   UNL     1     -42.364  54.790 -54.365  1.00  0.00     0.201 A 
HETATM    3  O   UNL     1     -41.632  53.972 -54.916  1.00  0.00    -0.286 OA
HETATM    4  C   UNL     1     -43.108  55.789 -55.181  1.00  0.00     0.043 A 
HETATM    5  C   UNL     1     -43.924  56.729 -54.528  1.00  0.00     0.046 A 
HETATM    6  N   UNL     1     -44.006  56.722 -53.131  1.00  0.00    -0.364 N 
HETATM    7  C   UNL     1     -42.983  55.788 -56.574  1.00  0.00     0.043 A 
HETATM    8  C   UNL     1     -43.662  56.758 -57.315  1.00  0.00     0.081 A 
HETATM    9  C   UNL     1     -44.478  57.702 -56.683  1.00  0.00     0.027 A 
HETATM   10  C   UNL     1     -44.600  57.688 -55.288  1.00  0.00     0.032 A 
HETATM   11  C   UNL     1     -43.337  55.782 -52.389  1.00  0.00     0.109 A 
HETATM   12  H   UNL     1     -44.664  57.335 -52.662  1.00  0.00     0.165 HD
ENDROOT
BRANCH   8  13
HETATM   13  S   UNL     1     -43.508  56.747 -59.088  1.00  0.00     0.263 S 
HETATM   14  O   UNL     1     -43.422  55.362 -59.496  1.00  0.00    -0.200 OA
HETATM   15  O   UNL     1     -44.516  57.631 -59.633  1.00  0.00    -0.200 OA
BRANCH  13  16
HETATM   16  N   UNL     1     -41.975  57.415 -59.331  1.00  0.00    -0.281 N 
HETATM   17  H   UNL     1     -41.255  56.937 -58.793  1.00  0.00     0.179 HD
BRANCH  16  18
HETATM   18  C   UNL     1     -41.858  58.825 -59.485  1.00  0.00     0.045 A 
HETATM   19  C   UNL     1     -41.911  59.385 -60.764  1.00  0.00     0.066 A 
HETATM   20  C   UNL     1     -41.808  60.767 -60.924  1.00  0.00     0.070 A 
HETATM   21  C   UNL     1     -41.692  61.580 -59.793  1.00  0.00     0.037 A 
HETATM   22  C   UNL     1     -41.653  61.020 -58.516  1.00  0.00     0.005 A 
HETATM   23  C   UNL     1     -41.731  59.637 -58.359  1.00  0.00     0.030 A 
BRANCH  20  24
HETATM   24  O   UNL     1     -41.818  61.439 -62.115  1.00  0.00    -0.356 OA
HETATM   25  C   UNL     1     -40.911  62.529 -62.241  1.00  0.00     0.210 C 
ENDBRANCH  20  24
ENDBRANCH  16  18
ENDBRANCH  13  16
ENDBRANCH   8  13
BRANCH   1  26
HETATM   26  C   UNL     1     -41.845  53.907 -51.930  1.00  0.00     0.257 C 
HETATM   27  N   UNL     1     -40.642  53.407 -52.358  1.00  0.00    -0.357 N 
HETATM   28  H   UNL     1     -40.313  53.662 -53.291  1.00  0.00     0.162 HD
HETATM   29  O   UNL     1     -42.333  53.637 -50.837  1.00  0.00    -0.267 OA
BRANCH  27  30
HETATM   30  C   UNL     1     -39.816  52.542 -51.546  1.00  0.00     0.123 C 
BRANCH  30  31
HETATM   31  C   UNL     1     -39.468  51.240 -52.262  1.00  0.00     0.019 C 
BRANCH  31  32
HETATM   32  C   UNL     1     -39.728  51.353 -53.764  1.00  0.00    -0.003 C 
HETATM   33  C   UNL     1     -39.756  49.989 -54.433  1.00  0.00     0.005 C 
ENDBRANCH  31  32
ENDBRANCH  30  31
ENDBRANCH  27  30
ENDBRANCH   1  26
TORSDOF 8
ENDMDL
MODEL 8
REMARK VINA RESULT:      -7.6      4.790      9.110
REMARK  8 active torsions:
REMARK  status: ('A' for Active; 'I' for Inactive)
REMARK    1  A    between atoms: C_2  and  C_3 
REMARK    2  A    between atoms: C_3  and  C_4 
REMARK    3  A    between atoms: C_4  and  N_5 
REMARK       I    between atoms: N_5  and  C_6 
REMARK    4  A    between atoms: C_6  and  C_7 
REMARK    5  A    between atoms: C_14  and  S_15 
REMARK    6  A    between atoms: S_15  and  N_16 
REMARK    7  A    between atoms: N_16  and  C_17 
REMARK    8  A    between atoms: C_19  and  O_20 
ROOT
HETATM    1  C   UNL     1     -45.505  59.495 -51.477  1.00  0.00     0.098 A 
HETATM    2  C   UNL     1     -44.648  58.337 -51.862  1.00  0.00     0.201 A 
HETATM    3  O   UNL     1     -44.108  57.622 -51.023  1.00  0.00    -0.286 OA
HETATM    4  C   UNL     1     -44.444  58.067 -53.312  1.00  0.00     0.043 A 
HETATM    5  C   UNL     1     -45.054  58.912 -54.255  1.00  0.00     0.046 A 
HETATM    6  N   UNL     1     -45.822  59.996 -53.817  1.00  0.00    -0.364 N 
HETATM    7  C   UNL     1     -43.647  56.992 -53.717  1.00  0.00     0.043 A 
HETATM    8  C   UNL     1     -43.440  56.780 -55.083  1.00  0.00     0.081 A 
HETATM    9  C   UNL     1     -44.039  57.610 -56.036  1.00  0.00     0.027 A 
HETATM   10  C   UNL     1     -44.839  58.679 -55.617  1.00  0.00     0.032 A 
HETATM   11  C   UNL     1     -46.026  60.223 -52.480  1.00  0.00     0.109 A 
HETATM   12  H   UNL     1     -46.340  60.551 -54.490  1.00  0.00     0.165 HD
ENDROOT
BRANCH   8  13
HETATM   13  S   UNL     1     -42.433  55.404 -55.595  1.00  0.00     0.263 S 
HETATM   14  O   UNL     1     -42.890  55.013 -56.910  1.00  0.00    -0.200 OA
HETATM   15  O   UNL     1     -41.049  55.743 -55.349  1.00  0.00    -0.200 OA
BRANCH  13  16
HETATM   16  N   UNL     1     -42.915  54.179 -54.536  1.00  0.00    -0.281 N 
HETATM   17  H   UNL     1     -43.844  54.341 -54.153  1.00  0.00     0.179 HD
BRANCH  16  18
HETATM   18  C   UNL     1     -41.942  53.589 -53.680  1.00  0.00     0.045 A 
HETATM   19  C   UNL     1     -41.088  52.604 -54.183  1.00  0.00     0.066 A 
HETATM   20  C   UNL     1     -40.124  52.029 -53.355  1.00  0.00     0.070 A 
HETATM   21  C   UNL     1     -39.999  52.477 -52.037  1.00  0.00     0.037 A 
HETATM   22  C   UNL     1     -40.844  53.470 -51.540  1.00  0.00     0.005 A 
HETATM   23  C   UNL     1     -41.822  54.027 -52.362  1.00  0.00     0.030 A 
BRANCH  20  24
HETATM   24  O   UNL     1     -39.247  51.042 -53.711  1.00  0.00    -0.356 OA
HETATM   25  C   UNL     1     -39.775  49.965 -54.479  1.00  0.00     0.210 C 
ENDBRANCH  20  24
ENDBRANCH  16  18
ENDBRANCH  13  16
ENDBRANCH   8  13
BRANCH   1  26
HETATM   26  C   UNL     1     -45.798  59.904 -50.072  1.00  0.00     0.257 C 
HETATM   27  N   UNL     1     -45.695  61.247 -49.819  1.00  0.00    -0.357 N 
HETATM   28  H   UNL     1     -45.399  61.864 -50.577  1.00  0.00     0.162 HD
HETATM   29  O   UNL     1     -46.121  59.083 -49.219  1.00  0.00    -0.267 OA
BRANCH  27  30
HETATM   30  C   UNL     1     -45.993  61.830 -48.529  1.00  0.00     0.123 C 
BRANCH  30  31
HETATM   31  C   UNL     1     -44.753  61.935 -47.645  1.00  0.00     0.019 C 
BRANCH  31  32
HETATM   32  C   UNL     1     -45.076  61.559 -46.200  1.00  0.00    -0.003 C 
HETATM   33  C   UNL     1     -46.050  60.395 -46.127  1.00  0.00     0.005 C 
ENDBRANCH  31  32
ENDBRANCH  30  31
ENDBRANCH  27  30
ENDBRANCH   1  26
TORSDOF 8
ENDMDL
MODEL 9
REMARK VINA RESULT:      -7.4      5.479      9.841
REMARK  8 active torsions:
REMARK  status: ('A' for Active; 'I' for Inactive)
REMARK    1  A    between atoms: C_2  and  C_3 
REMARK    2  A    between atoms: C_3  and  C_4 
REMARK    3  A    between atoms: C_4  and  N_5 
REMARK       I    between atoms: N_5  and  C_6 
REMARK    4  A    between atoms: C_6  and  C_7 
REMARK    5  A    between atoms: C_14  and  S_15 
REMARK    6  A    between atoms: S_15  and  N_16 
REMARK    7  A    between atoms: N_16  and  C_17 
REMARK    8  A    between atoms: C_19  and  O_20 
ROOT
HETATM    1  C   UNL     1     -44.523  60.360 -50.744  1.00  0.00     0.098 A 
HETATM    2  C   UNL     1     -44.528  58.958 -51.250  1.00  0.00     0.201 A 
HETATM    3  O   UNL     1     -45.251  58.093 -50.761  1.00  0.00    -0.286 OA
HETATM    4  C   UNL     1     -43.614  58.614 -52.373  1.00  0.00     0.043 A 
HETATM    5  C   UNL     1     -42.780  59.615 -52.903  1.00  0.00     0.046 A 
HETATM    6  N   UNL     1     -42.811  60.902 -52.357  1.00  0.00    -0.364 N 
HETATM    7  C   UNL     1     -43.586  57.311 -52.879  1.00  0.00     0.043 A 
HETATM    8  C   UNL     1     -42.693  57.003 -53.909  1.00  0.00     0.081 A 
HETATM    9  C   UNL     1     -41.856  57.985 -54.449  1.00  0.00     0.027 A 
HETATM   10  C   UNL     1     -41.898  59.287 -53.938  1.00  0.00     0.032 A 
HETATM   11  C   UNL     1     -43.675  61.217 -51.339  1.00  0.00     0.109 A 
HETATM   12  H   UNL     1     -42.283  61.648 -52.795  1.00  0.00     0.165 HD
ENDROOT
BRANCH   8  13
HETATM   13  S   UNL     1     -42.669  55.345 -54.557  1.00  0.00     0.263 S 
HETATM   14  O   UNL     1     -43.315  54.500 -53.577  1.00  0.00    -0.200 OA
HETATM   15  O   UNL     1     -43.125  55.392 -55.929  1.00  0.00    -0.200 OA
BRANCH  13  16
HETATM   16  N   UNL     1     -41.025  54.957 -54.518  1.00  0.00    -0.281 N 
HETATM   17  H   UNL     1     -40.581  55.058 -55.428  1.00  0.00     0.179 HD
BRANCH  16  18
HETATM   18  C   UNL     1     -40.593  53.884 -53.688  1.00  0.00     0.045 A 
HETATM   19  C   UNL     1     -40.557  54.056 -52.302  1.00  0.00     0.066 A 
HETATM   20  C   UNL     1     -40.146  53.007 -51.480  1.00  0.00     0.070 A 
HETATM   21  C   UNL     1     -39.811  51.778 -52.055  1.00  0.00     0.037 A 
HETATM   22  C   UNL     1     -39.861  51.603 -53.439  1.00  0.00     0.005 A 
HETATM   23  C   UNL     1     -40.249  52.661 -54.260  1.00  0.00     0.030 A 
BRANCH  20  24
HETATM   24  O   UNL     1     -40.040  53.050 -50.117  1.00  0.00    -0.356 OA
HETATM   25  C   UNL     1     -39.694  54.306 -49.543  1.00  0.00     0.210 C 
ENDBRANCH  20  24
ENDBRANCH  16  18
ENDBRANCH  13  16
ENDBRANCH   8  13
BRANCH   1  26
HETATM   26  C   UNL     1     -45.370  60.860 -49.621  1.00  0.00     0.257 C 
HETATM   27  N   UNL     1     -45.192  60.217 -48.422  1.00  0.00    -0.357 N 
HETATM   28  H   UNL     1     -44.536  59.437 -48.381  1.00  0.00     0.162 HD
HETATM   29  O   UNL     1     -46.155  61.791 -49.773  1.00  0.00    -0.267 OA
BRANCH  27  30
HETATM   30  C   UNL     1     -45.888  60.601 -47.214  1.00  0.00     0.123 C 
BRANCH  30  31
HETATM   31  C   UNL     1     -44.925  61.001 -46.099  1.00  0.00     0.019 C 
BRANCH  31  32
HETATM   32  C   UNL     1     -45.320  62.345 -45.488  1.00  0.00    -0.003 C 
HETATM   33  C   UNL     1     -46.227  63.138 -46.414  1.00  0.00     0.005 C 
ENDBRANCH  31  32
ENDBRANCH  30  31
ENDBRANCH  27  30
ENDBRANCH   1  26
TORSDOF 8
ENDMDL
MODEL 10
REMARK VINA RESULT:      -7.4      6.009      9.491
REMARK  8 active torsions:
REMARK  status: ('A' for Active; 'I' for Inactive)
REMARK    1  A    between atoms: C_2  and  C_3 
REMARK    2  A    between atoms: C_3  and  C_4 
REMARK    3  A    between atoms: C_4  and  N_5 
REMARK       I    between atoms: N_5  and  C_6 
REMARK    4  A    between atoms: C_6  and  C_7 
REMARK    5  A    between atoms: C_14  and  S_15 
REMARK    6  A    between atoms: S_15  and  N_16 
REMARK    7  A    between atoms: N_16  and  C_17 
REMARK    8  A    between atoms: C_19  and  O_20 
ROOT
HETATM    1  C   UNL     1     -44.823  60.733 -49.443  1.00  0.00     0.098 A 
HETATM    2  C   UNL     1     -45.247  59.749 -50.479  1.00  0.00     0.201 A 
HETATM    3  O   UNL     1     -46.239  59.039 -50.334  1.00  0.00    -0.286 OA
HETATM    4  C   UNL     1     -44.421  59.627 -51.712  1.00  0.00     0.043 A 
HETATM    5  C   UNL     1     -43.277  60.433 -51.847  1.00  0.00     0.046 A 
HETATM    6  N   UNL     1     -42.928  61.315 -50.819  1.00  0.00    -0.364 N 
HETATM    7  C   UNL     1     -44.782  58.716 -52.709  1.00  0.00     0.043 A 
HETATM    8  C   UNL     1     -43.972  58.594 -53.841  1.00  0.00     0.081 A 
HETATM    9  C   UNL     1     -42.830  59.388 -53.993  1.00  0.00     0.027 A 
HETATM   10  C   UNL     1     -42.483  60.301 -52.990  1.00  0.00     0.032 A 
HETATM   11  C   UNL     1     -43.708  61.439 -49.698  1.00  0.00     0.109 A 
HETATM   12  H   UNL     1     -42.160  61.964 -50.952  1.00  0.00     0.165 HD
ENDROOT
BRANCH   8  13
HETATM   13  S   UNL     1     -44.441  57.441 -55.112  1.00  0.00     0.263 S 
HETATM   14  O   UNL     1     -45.747  57.842 -55.586  1.00  0.00    -0.200 OA
HETATM   15  O   UNL     1     -43.324  57.293 -56.020  1.00  0.00    -0.200 OA
BRANCH  13  16
HETATM   16  N   UNL     1     -44.663  56.007 -54.247  1.00  0.00    -0.281 N 
HETATM   17  H   UNL     1     -45.400  56.086 -53.549  1.00  0.00     0.179 HD
BRANCH  16  18
HETATM   18  C   UNL     1     -43.524  55.219 -53.919  1.00  0.00     0.045 A 
HETATM   19  C   UNL     1     -42.949  55.335 -52.650  1.00  0.00     0.066 A 
HETATM   20  C   UNL     1     -41.839  54.558 -52.315  1.00  0.00     0.070 A 
HETATM   21  C   UNL     1     -41.339  53.643 -53.245  1.00  0.00     0.037 A 
HETATM   22  C   UNL     1     -41.922  53.520 -54.507  1.00  0.00     0.005 A 
HETATM   23  C   UNL     1     -43.016  54.313 -54.848  1.00  0.00     0.030 A 
BRANCH  20  24
HETATM   24  O   UNL     1     -41.167  54.592 -51.124  1.00  0.00    -0.356 OA
HETATM   25  C   UNL     1     -41.922  54.963 -49.975  1.00  0.00     0.210 C 
ENDBRANCH  20  24
ENDBRANCH  16  18
ENDBRANCH  13  16
ENDBRANCH   8  13
BRANCH   1  26
HETATM   26  C   UNL     1     -45.534  60.965 -48.152  1.00  0.00     0.257 C 
HETATM   27  N   UNL     1     -44.850  60.579 -47.028  1.00  0.00    -0.357 N 
HETATM   28  H   UNL     1     -43.937  60.138 -47.142  1.00  0.00     0.162 HD
HETATM   29  O   UNL     1     -46.648  61.480 -48.116  1.00  0.00    -0.267 OA
BRANCH  27  30
HETATM   30  C   UNL     1     -45.361  60.776 -45.689  1.00  0.00     0.123 C 
BRANCH  30  31
HETATM   31  C   UNL     1     -44.809  62.044 -45.044  1.00  0.00     0.019 C 
BRANCH  31  32
HETATM   32  C   UNL     1     -43.868  61.706 -43.888  1.00  0.00    -0.003 C 
HETATM   33  C   UNL     1     -43.666  62.895 -42.963  1.00  0.00     0.005 C 
ENDBRANCH  31  32
ENDBRANCH  30  31
ENDBRANCH  27  30
ENDBRANCH   1  26
TORSDOF 8
ENDMDL
