MODEL 1
REMARK VINA RESULT:      -9.0      0.000      0.000
REMARK  8 active torsions:
REMARK  status: ('A' for Active; 'I' for Inactive)
REMARK    1  A    between atoms: C_2  and  N_3 
REMARK    2  A    between atoms: C_2  and  C_34 
REMARK       I    between atoms: N_3  and  C_4 
REMARK    3  A    between atoms: C_4  and  C_5 
REMARK    4  A    between atoms: C_5  and  N_6 
REMARK       I    between atoms: N_12  and  C_13 
REMARK    5  A    between atoms: C_13  and  C_14 
REMARK    6  A    between atoms: C_14  and  O_15 
REMARK    7  A    between atoms: O_15  and  C_16 
REMARK    8  A    between atoms: N_25  and  C_26 
ROOT
HETATM    1  N   UNL     1     -43.702  56.367 -54.183  1.00  0.00    -0.325 N 
HETATM    2  C   UNL     1     -43.470  56.544 -55.531  1.00  0.00     0.250 C 
HETATM    3  O   UNL     1     -43.156  55.654 -56.309  1.00  0.00    -0.270 OA
HETATM    4  C   UNL     1     -43.664  58.038 -55.867  1.00  0.00     0.118 C 
HETATM    5  C   UNL     1     -44.945  58.163 -56.704  1.00  0.00     0.061 C 
HETATM    6  C   UNL     1     -44.737  57.733 -58.153  1.00  0.00     0.129 C 
HETATM    7  N   UNL     1     -43.549  58.346 -58.740  1.00  0.00    -0.350 N 
HETATM    8  C   UNL     1     -43.605  58.729 -60.083  1.00  0.00     0.244 C 
HETATM    9  O   UNL     1     -44.637  58.626 -60.751  1.00  0.00    -0.271 OA
HETATM   10  C   UNL     1     -42.301  58.106 -58.021  1.00  0.00     0.129 C 
HETATM   11  C   UNL     1     -42.389  58.535 -56.561  1.00  0.00     0.061 C 
HETATM   12  N   UNL     1     -43.829  58.637 -54.511  1.00  0.00    -0.346 N 
HETATM   13  C   UNL     1     -43.819  57.608 -53.478  1.00  0.00     0.254 C 
ENDROOT
BRANCH  12  14
HETATM   14  C   UNL     1     -43.955  59.969 -54.160  1.00  0.00     0.032 A 
HETATM   15  C   UNL     1     -45.159  60.684 -54.260  1.00  0.00     0.029 A 
HETATM   16  C   UNL     1     -45.267  62.039 -53.914  1.00  0.00     0.002 A 
HETATM   17  C   UNL     1     -44.161  62.733 -53.448  1.00  0.00     0.000 A 
HETATM   18  C   UNL     1     -42.953  62.066 -53.324  1.00  0.00     0.002 A 
HETATM   19  C   UNL     1     -42.860  60.711 -53.670  1.00  0.00     0.029 A 
ENDBRANCH  12  14
BRANCH   1  20
HETATM   20  C   UNL     1     -43.348  55.126 -53.512  1.00  0.00     0.230 C 
BRANCH  20  21
HETATM   21  C   UNL     1     -41.861  54.893 -53.203  1.00  0.00     0.236 C 
HETATM   22  N   UNL     1     -41.634  53.899 -52.274  1.00  0.00    -0.351 N 
HETATM   23  H   UNL     1     -42.415  53.444 -51.820  1.00  0.00     0.163 HD
HETATM   24  O   UNL     1     -40.949  55.480 -53.779  1.00  0.00    -0.272 OA
BRANCH  22  25
HETATM   25  C   UNL     1     -40.288  53.541 -51.850  1.00  0.00     0.113 C 
HETATM   26  C   UNL     1     -40.075  53.833 -50.363  1.00  0.00     0.037 C 
BRANCH  25  27
HETATM   27  C   UNL     1     -39.997  52.088 -52.181  1.00  0.00    -0.036 A 
HETATM   28  C   UNL     1     -39.812  51.160 -51.144  1.00  0.00     0.009 A 
HETATM   29  C   UNL     1     -39.558  49.817 -51.426  1.00  0.00     0.001 A 
HETATM   30  C   UNL     1     -39.478  49.383 -52.747  1.00  0.00     0.000 A 
HETATM   31  C   UNL     1     -39.651  50.293 -53.788  1.00  0.00     0.001 A 
HETATM   32  C   UNL     1     -39.911  51.636 -53.508  1.00  0.00     0.009 A 
ENDBRANCH  25  27
ENDBRANCH  22  25
ENDBRANCH  20  21
ENDBRANCH   1  20
BRANCH   8  33
HETATM   33  C   UNL     1     -42.335  59.284 -60.731  1.00  0.00     0.278 C 
BRANCH  33  34
HETATM   34  O   UNL     1     -42.487  60.682 -60.956  1.00  0.00    -0.342 OA
BRANCH  34  35
HETATM   35  C   UNL     1     -41.498  61.458 -60.418  1.00  0.00     0.069 A 
HETATM   36  C   UNL     1     -41.191  61.519 -59.059  1.00  0.00     0.037 A 
HETATM   37  C   UNL     1     -40.176  62.369 -58.610  1.00  0.00     0.003 A 
HETATM   38  C   UNL     1     -39.473  63.161 -59.516  1.00  0.00     0.000 A 
HETATM   39  C   UNL     1     -39.790  63.114 -60.872  1.00  0.00     0.003 A 
HETATM   40  C   UNL     1     -40.808  62.271 -61.320  1.00  0.00     0.037 A 
ENDBRANCH  34  35
ENDBRANCH  33  34
ENDBRANCH   8  33
TORSDOF 8
ENDMDL
MODEL 2
REMARK VINA RESULT:      -8.7      2.414      8.659
REMARK  8 active torsions:
REMARK  status: ('A' for Active; 'I' for Inactive)
REMARK    1  A    between atoms: C_2  and  N_3 
REMARK    2  A    between atoms: C_2  and  C_34 
REMARK       I    between atoms: N_3  and  C_4 
REMARK    3  A    between atoms: C_4  and  C_5 
REMARK    4  A    between atoms: C_5  and  N_6 
REMARK       I    between atoms: N_12  and  C_13 
REMARK    5  A    between atoms: C_13  and  C_14 
REMARK    6  A    between atoms: C_14  and  O_15 
REMARK    7  A    between atoms: O_15  and  C_16 
REMARK    8  A    between atoms: N_25  and  C_26 
ROOT
HETATM    1  N   UNL     1     -43.931  56.727 -58.195  1.00  0.00    -0.325 N 
HETATM    2  C   UNL     1     -44.059  57.828 -57.375  1.00  0.00     0.250 C 
HETATM    3  O   UNL     1     -44.461  58.926 -57.737  1.00  0.00    -0.270 OA
HETATM    4  C   UNL     1     -43.603  57.434 -55.954  1.00  0.00     0.118 C 
HETATM    5  C   UNL     1     -44.849  57.398 -55.060  1.00  0.00     0.061 C 
HETATM    6  C   UNL     1     -45.319  58.792 -54.659  1.00  0.00     0.129 C 
HETATM    7  N   UNL     1     -44.222  59.617 -54.162  1.00  0.00    -0.350 N 
HETATM    8  C   UNL     1     -44.487  60.493 -53.106  1.00  0.00     0.244 C 
HETATM    9  O   UNL     1     -45.588  60.535 -52.550  1.00  0.00    -0.271 OA
HETATM   10  C   UNL     1     -43.093  59.772 -55.075  1.00  0.00     0.129 C 
HETATM   11  C   UNL     1     -42.521  58.429 -55.513  1.00  0.00     0.061 C 
HETATM   12  N   UNL     1     -43.044  56.070 -56.181  1.00  0.00    -0.346 N 
HETATM   13  C   UNL     1     -43.220  55.654 -57.567  1.00  0.00     0.254 C 
ENDROOT
BRANCH  12  14
HETATM   14  C   UNL     1     -42.403  55.235 -55.284  1.00  0.00     0.032 A 
HETATM   15  C   UNL     1     -43.031  54.688 -54.153  1.00  0.00     0.029 A 
HETATM   16  C   UNL     1     -42.362  53.854 -53.244  1.00  0.00     0.002 A 
HETATM   17  C   UNL     1     -41.028  53.533 -53.439  1.00  0.00     0.000 A 
HETATM   18  C   UNL     1     -40.369  54.043 -54.546  1.00  0.00     0.002 A 
HETATM   19  C   UNL     1     -41.049  54.873 -55.448  1.00  0.00     0.029 A 
ENDBRANCH  12  14
BRANCH   1  20
HETATM   20  C   UNL     1     -44.033  56.846 -59.641  1.00  0.00     0.230 C 
BRANCH  20  21
HETATM   21  C   UNL     1     -42.946  57.659 -60.359  1.00  0.00     0.236 C 
HETATM   22  N   UNL     1     -43.305  58.965 -60.618  1.00  0.00    -0.351 N 
HETATM   23  H   UNL     1     -44.237  59.287 -60.392  1.00  0.00     0.163 HD
HETATM   24  O   UNL     1     -41.829  57.217 -60.618  1.00  0.00    -0.272 OA
BRANCH  22  25
HETATM   25  C   UNL     1     -42.405  59.886 -61.297  1.00  0.00     0.113 C 
HETATM   26  C   UNL     1     -43.139  60.691 -62.373  1.00  0.00     0.037 C 
BRANCH  25  27
HETATM   27  C   UNL     1     -41.718  60.794 -60.293  1.00  0.00    -0.036 A 
HETATM   28  C   UNL     1     -40.993  61.909 -60.743  1.00  0.00     0.009 A 
HETATM   29  C   UNL     1     -40.366  62.765 -59.835  1.00  0.00     0.001 A 
HETATM   30  C   UNL     1     -40.448  62.515 -58.467  1.00  0.00     0.000 A 
HETATM   31  C   UNL     1     -41.158  61.409 -58.005  1.00  0.00     0.001 A 
HETATM   32  C   UNL     1     -41.790  60.554 -58.911  1.00  0.00     0.009 A 
ENDBRANCH  25  27
ENDBRANCH  22  25
ENDBRANCH  20  21
ENDBRANCH   1  20
BRANCH   8  33
HETATM   33  C   UNL     1     -43.368  61.429 -52.643  1.00  0.00     0.278 C 
BRANCH  33  34
HETATM   34  O   UNL     1     -42.759  60.898 -51.469  1.00  0.00    -0.342 OA
BRANCH  34  35
HETATM   35  C   UNL     1     -42.307  59.614 -51.591  1.00  0.00     0.069 A 
HETATM   36  C   UNL     1     -42.971  58.491 -51.098  1.00  0.00     0.037 A 
HETATM   37  C   UNL     1     -42.407  57.222 -51.253  1.00  0.00     0.003 A 
HETATM   38  C   UNL     1     -41.177  57.075 -51.893  1.00  0.00     0.000 A 
HETATM   39  C   UNL     1     -40.504  58.197 -52.371  1.00  0.00     0.003 A 
HETATM   40  C   UNL     1     -41.064  59.465 -52.210  1.00  0.00     0.037 A 
ENDBRANCH  34  35
ENDBRANCH  33  34
ENDBRANCH   8  33
TORSDOF 8
ENDMDL
MODEL 3
REMARK VINA RESULT:      -8.7      1.607      1.923
REMARK  8 active torsions:
REMARK  status: ('A' for Active; 'I' for Inactive)
REMARK    1  A    between atoms: C_2  and  N_3 
REMARK    2  A    between atoms: C_2  and  C_34 
REMARK       I    between atoms: N_3  and  C_4 
REMARK    3  A    between atoms: C_4  and  C_5 
REMARK    4  A    between atoms: C_5  and  N_6 
REMARK       I    between atoms: N_12  and  C_13 
REMARK    5  A    between atoms: C_13  and  C_14 
REMARK    6  A    between atoms: C_14  and  O_15 
REMARK    7  A    between atoms: O_15  and  C_16 
REMARK    8  A    between atoms: N_25  and  C_26 
ROOT
HETATM    1  N   UNL     1     -44.058  57.242 -51.794  1.00  0.00    -0.325 N 
HETATM    2  C   UNL     1     -43.741  57.087 -53.127  1.00  0.00     0.250 C 
HETATM    3  O   UNL     1     -43.380  56.037 -53.641  1.00  0.00    -0.270 OA
HETATM    4  C   UNL     1     -43.912  58.450 -53.831  1.00  0.00     0.118 C 
HETATM    5  C   UNL     1     -45.137  58.346 -54.750  1.00  0.00     0.061 C 
HETATM    6  C   UNL     1     -44.839  57.577 -56.033  1.00  0.00     0.129 C 
HETATM    7  N   UNL     1     -43.616  58.044 -56.679  1.00  0.00    -0.350 N 
HETATM    8  C   UNL     1     -43.587  58.084 -58.075  1.00  0.00     0.244 C 
HETATM    9  O   UNL     1     -44.574  57.805 -58.760  1.00  0.00    -0.271 OA
HETATM   10  C   UNL     1     -42.416  58.005 -55.847  1.00  0.00     0.129 C 
HETATM   11  C   UNL     1     -42.595  58.779 -54.546  1.00  0.00     0.061 C 
HETATM   12  N   UNL     1     -44.161  59.360 -52.677  1.00  0.00    -0.346 N 
HETATM   13  C   UNL     1     -44.218  58.616 -51.424  1.00  0.00     0.254 C 
ENDROOT
BRANCH  12  14
HETATM   14  C   UNL     1     -44.307  60.736 -52.672  1.00  0.00     0.032 A 
HETATM   15  C   UNL     1     -45.526  61.384 -52.928  1.00  0.00     0.029 A 
HETATM   16  C   UNL     1     -45.655  62.781 -52.935  1.00  0.00     0.002 A 
HETATM   17  C   UNL     1     -44.556  63.587 -52.681  1.00  0.00     0.000 A 
HETATM   18  C   UNL     1     -43.334  62.991 -52.414  1.00  0.00     0.002 A 
HETATM   19  C   UNL     1     -43.219  61.594 -52.408  1.00  0.00     0.029 A 
ENDBRANCH  12  14
BRANCH   1  20
HETATM   20  C   UNL     1     -43.749  56.210 -50.818  1.00  0.00     0.230 C 
BRANCH  20  21
HETATM   21  C   UNL     1     -42.269  55.842 -50.627  1.00  0.00     0.236 C 
HETATM   22  N   UNL     1     -41.944  54.582 -51.083  1.00  0.00    -0.351 N 
HETATM   23  H   UNL     1     -42.668  53.972 -51.441  1.00  0.00     0.163 HD
HETATM   24  O   UNL     1     -41.430  56.619 -50.178  1.00  0.00    -0.272 OA
BRANCH  22  25
HETATM   25  C   UNL     1     -40.590  54.057 -50.981  1.00  0.00     0.113 C 
HETATM   26  C   UNL     1     -40.331  53.448 -49.601  1.00  0.00     0.037 C 
BRANCH  25  27
HETATM   27  C   UNL     1     -40.325  53.056 -52.091  1.00  0.00    -0.036 A 
HETATM   28  C   UNL     1     -39.747  51.813 -51.787  1.00  0.00     0.009 A 
HETATM   29  C   UNL     1     -39.507  50.873 -52.791  1.00  0.00     0.001 A 
HETATM   30  C   UNL     1     -39.835  51.164 -54.113  1.00  0.00     0.000 A 
HETATM   31  C   UNL     1     -40.403  52.395 -54.433  1.00  0.00     0.001 A 
HETATM   32  C   UNL     1     -40.648  53.335 -53.430  1.00  0.00     0.009 A 
ENDBRANCH  25  27
ENDBRANCH  22  25
ENDBRANCH  20  21
ENDBRANCH   1  20
BRANCH   8  33
HETATM   33  C   UNL     1     -42.277  58.481 -58.761  1.00  0.00     0.278 C 
BRANCH  33  34
HETATM   34  O   UNL     1     -42.539  59.472 -59.751  1.00  0.00    -0.342 OA
BRANCH  34  35
HETATM   35  C   UNL     1     -41.759  60.591 -59.659  1.00  0.00     0.069 A 
HETATM   36  C   UNL     1     -41.235  61.094 -58.468  1.00  0.00     0.037 A 
HETATM   37  C   UNL     1     -40.470  62.265 -58.482  1.00  0.00     0.003 A 
HETATM   38  C   UNL     1     -40.235  62.935 -59.682  1.00  0.00     0.000 A 
HETATM   39  C   UNL     1     -40.772  62.442 -60.870  1.00  0.00     0.003 A 
HETATM   40  C   UNL     1     -41.542  61.278 -60.855  1.00  0.00     0.037 A 
ENDBRANCH  34  35
ENDBRANCH  33  34
ENDBRANCH   8  33
TORSDOF 8
ENDMDL
MODEL 4
REMARK VINA RESULT:      -8.7      3.105      9.646
REMARK  8 active torsions:
REMARK  status: ('A' for Active; 'I' for Inactive)
REMARK    1  A    between atoms: C_2  and  N_3 
REMARK    2  A    between atoms: C_2  and  C_34 
REMARK       I    between atoms: N_3  and  C_4 
REMARK    3  A    between atoms: C_4  and  C_5 
REMARK    4  A    between atoms: C_5  and  N_6 
REMARK       I    between atoms: N_12  and  C_13 
REMARK    5  A    between atoms: C_13  and  C_14 
REMARK    6  A    between atoms: C_14  and  O_15 
REMARK    7  A    between atoms: O_15  and  C_16 
REMARK    8  A    between atoms: N_25  and  C_26 
ROOT
HETATM    1  N   UNL     1     -42.988  60.468 -54.092  1.00  0.00    -0.325 N 
HETATM    2  C   UNL     1     -42.667  59.392 -53.291  1.00  0.00     0.250 C 
HETATM    3  O   UNL     1     -42.465  59.455 -52.086  1.00  0.00    -0.270 OA
HETATM    4  C   UNL     1     -42.602  58.128 -54.174  1.00  0.00     0.118 C 
HETATM    5  C   UNL     1     -43.805  57.247 -53.811  1.00  0.00     0.061 C 
HETATM    6  C   UNL     1     -43.603  56.495 -52.500  1.00  0.00     0.129 C 
HETATM    7  N   UNL     1     -42.305  55.828 -52.447  1.00  0.00    -0.350 N 
HETATM    8  C   UNL     1     -42.237  54.579 -51.824  1.00  0.00     0.244 C 
HETATM    9  O   UNL     1     -43.239  54.008 -51.387  1.00  0.00    -0.271 OA
HETATM   10  C   UNL     1     -41.148  56.694 -52.647  1.00  0.00     0.129 C 
HETATM   11  C   UNL     1     -41.232  57.471 -53.956  1.00  0.00     0.061 C 
HETATM   12  N   UNL     1     -42.731  58.705 -55.543  1.00  0.00    -0.346 N 
HETATM   13  C   UNL     1     -42.936  60.148 -55.487  1.00  0.00     0.254 C 
ENDROOT
BRANCH  12  14
HETATM   14  C   UNL     1     -42.657  58.063 -56.766  1.00  0.00     0.032 A 
HETATM   15  C   UNL     1     -42.110  58.654 -57.916  1.00  0.00     0.029 A 
HETATM   16  C   UNL     1     -42.055  57.995 -59.154  1.00  0.00     0.002 A 
HETATM   17  C   UNL     1     -42.549  56.706 -59.284  1.00  0.00     0.000 A 
HETATM   18  C   UNL     1     -43.091  56.080 -58.172  1.00  0.00     0.002 A 
HETATM   19  C   UNL     1     -43.138  56.749 -56.941  1.00  0.00     0.029 A 
ENDBRANCH  12  14
BRANCH   1  20
HETATM   20  C   UNL     1     -42.869  61.834 -53.607  1.00  0.00     0.230 C 
BRANCH  20  21
HETATM   21  C   UNL     1     -44.136  62.491 -53.039  1.00  0.00     0.236 C 
HETATM   22  N   UNL     1     -44.500  62.020 -51.795  1.00  0.00    -0.351 N 
HETATM   23  H   UNL     1     -43.981  61.262 -51.371  1.00  0.00     0.163 HD
HETATM   24  O   UNL     1     -44.735  63.405 -53.601  1.00  0.00    -0.272 OA
BRANCH  22  25
HETATM   25  C   UNL     1     -45.677  62.522 -51.102  1.00  0.00     0.113 C 
HETATM   26  C   UNL     1     -46.946  61.798 -51.561  1.00  0.00     0.037 C 
BRANCH  25  27
HETATM   27  C   UNL     1     -45.491  62.420 -49.598  1.00  0.00    -0.036 A 
HETATM   28  C   UNL     1     -45.359  61.158 -48.996  1.00  0.00     0.009 A 
HETATM   29  C   UNL     1     -45.172  61.043 -47.617  1.00  0.00     0.001 A 
HETATM   30  C   UNL     1     -45.121  62.185 -46.821  1.00  0.00     0.000 A 
HETATM   31  C   UNL     1     -45.258  63.443 -47.402  1.00  0.00     0.001 A 
HETATM   32  C   UNL     1     -45.440  63.562 -48.782  1.00  0.00     0.009 A 
ENDBRANCH  25  27
ENDBRANCH  22  25
ENDBRANCH  20  21
ENDBRANCH   1  20
BRANCH   8  33
HETATM   33  C   UNL     1     -40.864  53.916 -51.680  1.00  0.00     0.278 C 
BRANCH  33  34
HETATM   34  O   UNL     1     -40.402  53.495 -52.960  1.00  0.00    -0.342 OA
BRANCH  34  35
HETATM   35  C   UNL     1     -40.122  52.160 -53.056  1.00  0.00     0.069 A 
HETATM   36  C   UNL     1     -40.258  51.405 -54.221  1.00  0.00     0.037 A 
HETATM   37  C   UNL     1     -39.971  50.037 -54.203  1.00  0.00     0.003 A 
HETATM   38  C   UNL     1     -39.554  49.424 -53.022  1.00  0.00     0.000 A 
HETATM   39  C   UNL     1     -39.434  50.173 -51.854  1.00  0.00     0.003 A 
HETATM   40  C   UNL     1     -39.728  51.537 -51.870  1.00  0.00     0.037 A 
ENDBRANCH  34  35
ENDBRANCH  33  34
ENDBRANCH   8  33
TORSDOF 8
ENDMDL
MODEL 5
REMARK VINA RESULT:      -8.7      1.698      2.084
REMARK  8 active torsions:
REMARK  status: ('A' for Active; 'I' for Inactive)
REMARK    1  A    between atoms: C_2  and  N_3 
REMARK    2  A    between atoms: C_2  and  C_34 
REMARK       I    between atoms: N_3  and  C_4 
REMARK    3  A    between atoms: C_4  and  C_5 
REMARK    4  A    between atoms: C_5  and  N_6 
REMARK       I    between atoms: N_12  and  C_13 
REMARK    5  A    between atoms: C_13  and  C_14 
REMARK    6  A    between atoms: C_14  and  O_15 
REMARK    7  A    between atoms: O_15  and  C_16 
REMARK    8  A    between atoms: N_25  and  C_26 
ROOT
HETATM    1  N   UNL     1     -43.460  56.504 -53.681  1.00  0.00    -0.325 N 
HETATM    2  C   UNL     1     -43.266  57.277 -54.807  1.00  0.00     0.250 C 
HETATM    3  O   UNL     1     -42.986  56.839 -55.915  1.00  0.00    -0.270 OA
HETATM    4  C   UNL     1     -43.449  58.760 -54.419  1.00  0.00     0.118 C 
HETATM    5  C   UNL     1     -44.752  59.250 -55.066  1.00  0.00     0.061 C 
HETATM    6  C   UNL     1     -44.593  59.528 -56.557  1.00  0.00     0.129 C 
HETATM    7  N   UNL     1     -43.414  60.342 -56.839  1.00  0.00    -0.350 N 
HETATM    8  C   UNL     1     -43.504  61.295 -57.858  1.00  0.00     0.244 C 
HETATM    9  O   UNL     1     -44.556  61.506 -58.466  1.00  0.00    -0.271 OA
HETATM   10  C   UNL     1     -42.149  59.802 -56.349  1.00  0.00     0.129 C 
HETATM   11  C   UNL     1     -42.188  59.519 -54.852  1.00  0.00     0.061 C 
HETATM   12  N   UNL     1     -43.566  58.674 -52.935  1.00  0.00    -0.346 N 
HETATM   13  C   UNL     1     -43.540  57.288 -52.485  1.00  0.00     0.254 C 
ENDROOT
BRANCH  12  14
HETATM   14  C   UNL     1     -43.663  59.700 -52.012  1.00  0.00     0.032 A 
HETATM   15  C   UNL     1     -44.873  60.331 -51.683  1.00  0.00     0.029 A 
HETATM   16  C   UNL     1     -44.953  61.381 -50.756  1.00  0.00     0.002 A 
HETATM   17  C   UNL     1     -43.812  61.838 -50.115  1.00  0.00     0.000 A 
HETATM   18  C   UNL     1     -42.596  61.239 -50.402  1.00  0.00     0.002 A 
HETATM   19  C   UNL     1     -42.530  60.190 -51.329  1.00  0.00     0.029 A 
ENDBRANCH  12  14
BRANCH   1  20
HETATM   20  C   UNL     1     -43.104  55.095 -53.661  1.00  0.00     0.230 C 
BRANCH  20  21
HETATM   21  C   UNL     1     -41.641  54.743 -53.349  1.00  0.00     0.236 C 
HETATM   22  N   UNL     1     -41.483  53.957 -52.228  1.00  0.00    -0.351 N 
HETATM   23  H   UNL     1     -42.286  53.717 -51.661  1.00  0.00     0.163 HD
HETATM   24  O   UNL     1     -40.699  55.066 -54.068  1.00  0.00    -0.272 OA
BRANCH  22  25
HETATM   25  C   UNL     1     -40.168  53.528 -51.773  1.00  0.00     0.113 C 
HETATM   26  C   UNL     1     -39.976  53.808 -50.280  1.00  0.00     0.037 C 
BRANCH  25  27
HETATM   27  C   UNL     1     -39.947  52.062 -52.098  1.00  0.00    -0.036 A 
HETATM   28  C   UNL     1     -39.895  51.644 -53.438  1.00  0.00     0.009 A 
HETATM   29  C   UNL     1     -39.678  50.303 -53.759  1.00  0.00     0.001 A 
HETATM   30  C   UNL     1     -39.516  49.359 -52.747  1.00  0.00     0.000 A 
HETATM   31  C   UNL     1     -39.571  49.756 -51.413  1.00  0.00     0.001 A 
HETATM   32  C   UNL     1     -39.783  51.098 -51.089  1.00  0.00     0.009 A 
ENDBRANCH  25  27
ENDBRANCH  22  25
ENDBRANCH  20  21
ENDBRANCH   1  20
BRANCH   8  33
HETATM   33  C   UNL     1     -42.246  62.086 -58.223  1.00  0.00     0.278 C 
BRANCH  33  34
HETATM   34  O   UNL     1     -41.722  61.603 -59.457  1.00  0.00    -0.342 OA
BRANCH  34  35
HETATM   35  C   UNL     1     -40.695  62.344 -59.971  1.00  0.00     0.069 A 
HETATM   36  C   UNL     1     -39.793  63.084 -59.206  1.00  0.00     0.037 A 
HETATM   37  C   UNL     1     -38.794  63.832 -59.834  1.00  0.00     0.003 A 
HETATM   38  C   UNL     1     -38.699  63.846 -61.226  1.00  0.00     0.000 A 
HETATM   39  C   UNL     1     -39.609  63.121 -61.991  1.00  0.00     0.003 A 
HETATM   40  C   UNL     1     -40.611  62.380 -61.364  1.00  0.00     0.037 A 
ENDBRANCH  34  35
ENDBRANCH  33  34
ENDBRANCH   8  33
TORSDOF 8
ENDMDL
MODEL 6
REMARK VINA RESULT:      -8.7      3.599      7.784
REMARK  8 active torsions:
REMARK  status: ('A' for Active; 'I' for Inactive)
REMARK    1  A    between atoms: C_2  and  N_3 
REMARK    2  A    between atoms: C_2  and  C_34 
REMARK       I    between atoms: N_3  and  C_4 
REMARK    3  A    between atoms: C_4  and  C_5 
REMARK    4  A    between atoms: C_5  and  N_6 
REMARK       I    between atoms: N_12  and  C_13 
REMARK    5  A    between atoms: C_13  and  C_14 
REMARK    6  A    between atoms: C_14  and  O_15 
REMARK    7  A    between atoms: O_15  and  C_16 
REMARK    8  A    between atoms: N_25  and  C_26 
ROOT
HETATM    1  N   UNL     1     -43.992  57.513 -51.956  1.00  0.00    -0.325 N 
HETATM    2  C   UNL     1     -43.908  58.195 -53.152  1.00  0.00     0.250 C 
HETATM    3  O   UNL     1     -44.555  59.195 -53.433  1.00  0.00    -0.270 OA
HETATM    4  C   UNL     1     -42.882  57.474 -54.053  1.00  0.00     0.118 C 
HETATM    5  C   UNL     1     -41.648  58.379 -54.164  1.00  0.00     0.061 C 
HETATM    6  C   UNL     1     -41.864  59.544 -55.125  1.00  0.00     0.129 C 
HETATM    7  N   UNL     1     -42.430  59.105 -56.398  1.00  0.00    -0.350 N 
HETATM    8  C   UNL     1     -41.996  59.744 -57.563  1.00  0.00     0.244 C 
HETATM    9  O   UNL     1     -41.114  60.606 -57.547  1.00  0.00    -0.271 OA
HETATM   10  C   UNL     1     -43.686  58.367 -56.302  1.00  0.00     0.129 C 
HETATM   11  C   UNL     1     -43.570  57.154 -55.387  1.00  0.00     0.061 C 
HETATM   12  N   UNL     1     -42.596  56.242 -53.264  1.00  0.00    -0.346 N 
HETATM   13  C   UNL     1     -43.306  56.257 -51.991  1.00  0.00     0.254 C 
ENDROOT
BRANCH  12  14
HETATM   14  C   UNL     1     -41.806  55.158 -53.604  1.00  0.00     0.032 A 
HETATM   15  C   UNL     1     -41.659  54.024 -52.789  1.00  0.00     0.029 A 
HETATM   16  C   UNL     1     -40.842  52.939 -53.140  1.00  0.00     0.002 A 
HETATM   17  C   UNL     1     -40.138  52.950 -54.335  1.00  0.00     0.000 A 
HETATM   18  C   UNL     1     -40.260  54.045 -55.175  1.00  0.00     0.002 A 
HETATM   19  C   UNL     1     -41.081  55.122 -54.813  1.00  0.00     0.029 A 
ENDBRANCH  12  14
BRANCH   1  20
HETATM   20  C   UNL     1     -45.054  57.788 -51.002  1.00  0.00     0.230 C 
BRANCH  20  21
HETATM   21  C   UNL     1     -45.351  59.262 -50.684  1.00  0.00     0.236 C 
HETATM   22  N   UNL     1     -44.251  59.973 -50.252  1.00  0.00    -0.351 N 
HETATM   23  H   UNL     1     -43.368  59.500 -50.113  1.00  0.00     0.163 HD
HETATM   24  O   UNL     1     -46.447  59.786 -50.864  1.00  0.00    -0.272 OA
BRANCH  22  25
HETATM   25  C   UNL     1     -44.341  61.382 -49.898  1.00  0.00     0.113 C 
HETATM   26  C   UNL     1     -44.899  62.213 -51.056  1.00  0.00     0.037 C 
BRANCH  25  27
HETATM   27  C   UNL     1     -45.165  61.560 -48.636  1.00  0.00    -0.036 A 
HETATM   28  C   UNL     1     -44.736  60.975 -47.434  1.00  0.00     0.009 A 
HETATM   29  C   UNL     1     -45.471  61.139 -46.259  1.00  0.00     0.001 A 
HETATM   30  C   UNL     1     -46.648  61.883 -46.269  1.00  0.00     0.000 A 
HETATM   31  C   UNL     1     -47.092  62.465 -47.455  1.00  0.00     0.001 A 
HETATM   32  C   UNL     1     -46.355  62.306 -48.631  1.00  0.00     0.009 A 
ENDBRANCH  25  27
ENDBRANCH  22  25
ENDBRANCH  20  21
ENDBRANCH   1  20
BRANCH   8  33
HETATM   33  C   UNL     1     -42.654  59.356 -58.889  1.00  0.00     0.278 C 
BRANCH  33  34
HETATM   34  O   UNL     1     -42.114  58.119 -59.345  1.00  0.00    -0.342 OA
BRANCH  34  35
HETATM   35  C   UNL     1     -43.033  57.120 -59.506  1.00  0.00     0.069 A 
HETATM   36  C   UNL     1     -42.900  55.831 -58.989  1.00  0.00     0.037 A 
HETATM   37  C   UNL     1     -43.888  54.874 -59.236  1.00  0.00     0.003 A 
HETATM   38  C   UNL     1     -45.004  55.201 -60.006  1.00  0.00     0.000 A 
HETATM   39  C   UNL     1     -45.129  56.483 -60.538  1.00  0.00     0.003 A 
HETATM   40  C   UNL     1     -44.140  57.436 -60.296  1.00  0.00     0.037 A 
ENDBRANCH  34  35
ENDBRANCH  33  34
ENDBRANCH   8  33
TORSDOF 8
ENDMDL
MODEL 7
REMARK VINA RESULT:      -8.6      2.563      3.582
REMARK  8 active torsions:
REMARK  status: ('A' for Active; 'I' for Inactive)
REMARK    1  A    between atoms: C_2  and  N_3 
REMARK    2  A    between atoms: C_2  and  C_34 
REMARK       I    between atoms: N_3  and  C_4 
REMARK    3  A    between atoms: C_4  and  C_5 
REMARK    4  A    between atoms: C_5  and  N_6 
REMARK       I    between atoms: N_12  and  C_13 
REMARK    5  A    between atoms: C_13  and  C_14 
REMARK    6  A    between atoms: C_14  and  O_15 
REMARK    7  A    between atoms: O_15  and  C_16 
REMARK    8  A    between atoms: N_25  and  C_26 
ROOT
HETATM    1  N   UNL     1     -42.084  58.897 -52.788  1.00  0.00    -0.325 N 
HETATM    2  C   UNL     1     -42.693  58.609 -53.992  1.00  0.00     0.250 C 
HETATM    3  O   UNL     1     -42.455  57.624 -54.677  1.00  0.00    -0.270 OA
HETATM    4  C   UNL     1     -43.696  59.738 -54.312  1.00  0.00     0.118 C 
HETATM    5  C   UNL     1     -45.109  59.157 -54.167  1.00  0.00     0.061 C 
HETATM    6  C   UNL     1     -45.508  58.292 -55.358  1.00  0.00     0.129 C 
HETATM    7  N   UNL     1     -45.235  58.953 -56.631  1.00  0.00    -0.350 N 
HETATM    8  C   UNL     1     -46.145  58.764 -57.675  1.00  0.00     0.244 C 
HETATM    9  O   UNL     1     -47.186  58.120 -57.528  1.00  0.00    -0.271 OA
HETATM   10  C   UNL     1     -43.853  59.378 -56.832  1.00  0.00     0.129 C 
HETATM   11  C   UNL     1     -43.362  60.283 -55.708  1.00  0.00     0.061 C 
HETATM   12  N   UNL     1     -43.392  60.729 -53.241  1.00  0.00    -0.346 N 
HETATM   13  C   UNL     1     -42.378  60.220 -52.326  1.00  0.00     0.254 C 
ENDROOT
BRANCH  12  14
HETATM   14  C   UNL     1     -43.917  61.996 -53.057  1.00  0.00     0.032 A 
HETATM   15  C   UNL     1     -43.277  63.168 -53.491  1.00  0.00     0.029 A 
HETATM   16  C   UNL     1     -43.815  64.447 -53.283  1.00  0.00     0.002 A 
HETATM   17  C   UNL     1     -45.027  64.599 -52.628  1.00  0.00     0.000 A 
HETATM   18  C   UNL     1     -45.699  63.469 -52.189  1.00  0.00     0.002 A 
HETATM   19  C   UNL     1     -45.152  62.197 -52.405  1.00  0.00     0.029 A 
ENDBRANCH  12  14
BRANCH   1  20
HETATM   20  C   UNL     1     -40.909  58.164 -52.341  1.00  0.00     0.230 C 
BRANCH  20  21
HETATM   21  C   UNL     1     -41.144  56.923 -51.467  1.00  0.00     0.236 C 
HETATM   22  N   UNL     1     -41.378  55.770 -52.186  1.00  0.00    -0.351 N 
HETATM   23  H   UNL     1     -41.444  55.809 -53.195  1.00  0.00     0.163 HD
HETATM   24  O   UNL     1     -41.059  56.932 -50.242  1.00  0.00    -0.272 OA
BRANCH  22  25
HETATM   25  C   UNL     1     -41.627  54.495 -51.529  1.00  0.00     0.113 C 
HETATM   26  C   UNL     1     -43.126  54.194 -51.447  1.00  0.00     0.037 C 
BRANCH  25  27
HETATM   27  C   UNL     1     -40.872  53.381 -52.230  1.00  0.00    -0.036 A 
HETATM   28  C   UNL     1     -40.953  53.252 -53.626  1.00  0.00     0.009 A 
HETATM   29  C   UNL     1     -40.255  52.243 -54.291  1.00  0.00     0.001 A 
HETATM   30  C   UNL     1     -39.471  51.344 -53.571  1.00  0.00     0.000 A 
HETATM   31  C   UNL     1     -39.385  51.453 -52.185  1.00  0.00     0.001 A 
HETATM   32  C   UNL     1     -40.079  52.465 -51.518  1.00  0.00     0.009 A 
ENDBRANCH  25  27
ENDBRANCH  22  25
ENDBRANCH  20  21
ENDBRANCH   1  20
BRANCH   8  33
HETATM   33  C   UNL     1     -45.818  59.375 -59.040  1.00  0.00     0.278 C 
BRANCH  33  34
HETATM   34  O   UNL     1     -45.683  58.337 -60.007  1.00  0.00    -0.342 OA
BRANCH  34  35
HETATM   35  C   UNL     1     -44.463  57.720 -60.016  1.00  0.00     0.069 A 
HETATM   36  C   UNL     1     -44.251  56.381 -59.689  1.00  0.00     0.037 A 
HETATM   37  C   UNL     1     -42.956  55.855 -59.704  1.00  0.00     0.003 A 
HETATM   38  C   UNL     1     -41.873  56.667 -60.037  1.00  0.00     0.000 A 
HETATM   39  C   UNL     1     -42.081  58.009 -60.347  1.00  0.00     0.003 A 
HETATM   40  C   UNL     1     -43.373  58.536 -60.325  1.00  0.00     0.037 A 
ENDBRANCH  34  35
ENDBRANCH  33  34
ENDBRANCH   8  33
TORSDOF 8
ENDMDL
MODEL 8
REMARK VINA RESULT:      -8.5      2.689      4.833
REMARK  8 active torsions:
REMARK  status: ('A' for Active; 'I' for Inactive)
REMARK    1  A    between atoms: C_2  and  N_3 
REMARK    2  A    between atoms: C_2  and  C_34 
REMARK       I    between atoms: N_3  and  C_4 
REMARK    3  A    between atoms: C_4  and  C_5 
REMARK    4  A    between atoms: C_5  and  N_6 
REMARK       I    between atoms: N_12  and  C_13 
REMARK    5  A    between atoms: C_13  and  C_14 
REMARK    6  A    between atoms: C_14  and  O_15 
REMARK    7  A    between atoms: O_15  and  C_16 
REMARK    8  A    between atoms: N_25  and  C_26 
ROOT
HETATM    1  N   UNL     1     -42.909  56.685 -53.773  1.00  0.00    -0.325 N 
HETATM    2  C   UNL     1     -43.527  57.917 -53.808  1.00  0.00     0.250 C 
HETATM    3  O   UNL     1     -44.030  58.473 -52.842  1.00  0.00    -0.270 OA
HETATM    4  C   UNL     1     -43.477  58.447 -55.257  1.00  0.00     0.118 C 
HETATM    5  C   UNL     1     -42.498  59.628 -55.285  1.00  0.00     0.061 C 
HETATM    6  C   UNL     1     -43.106  60.902 -54.706  1.00  0.00     0.129 C 
HETATM    7  N   UNL     1     -44.429  61.177 -55.259  1.00  0.00    -0.350 N 
HETATM    8  C   UNL     1     -44.775  62.510 -55.497  1.00  0.00     0.244 C 
HETATM    9  O   UNL     1     -43.979  63.435 -55.318  1.00  0.00    -0.271 OA
HETATM   10  C   UNL     1     -45.408  60.105 -55.103  1.00  0.00     0.129 C 
HETATM   11  C   UNL     1     -44.911  58.786 -55.684  1.00  0.00     0.061 C 
HETATM   12  N   UNL     1     -42.941  57.267 -55.995  1.00  0.00    -0.346 N 
HETATM   13  C   UNL     1     -42.624  56.176 -55.081  1.00  0.00     0.254 C 
ENDROOT
BRANCH  12  14
HETATM   14  C   UNL     1     -42.753  57.106 -57.356  1.00  0.00     0.032 A 
HETATM   15  C   UNL     1     -43.175  55.970 -58.065  1.00  0.00     0.029 A 
HETATM   16  C   UNL     1     -42.963  55.815 -59.443  1.00  0.00     0.002 A 
HETATM   17  C   UNL     1     -42.317  56.805 -60.168  1.00  0.00     0.000 A 
HETATM   18  C   UNL     1     -41.891  57.949 -59.511  1.00  0.00     0.002 A 
HETATM   19  C   UNL     1     -42.111  58.092 -58.135  1.00  0.00     0.029 A 
ENDBRANCH  12  14
BRANCH   1  20
HETATM   20  C   UNL     1     -43.021  55.815 -52.612  1.00  0.00     0.230 C 
BRANCH  20  21
HETATM   21  C   UNL     1     -41.714  55.330 -51.967  1.00  0.00     0.236 C 
HETATM   22  N   UNL     1     -41.498  53.974 -52.096  1.00  0.00    -0.351 N 
HETATM   23  H   UNL     1     -42.201  53.390 -52.528  1.00  0.00     0.163 HD
HETATM   24  O   UNL     1     -40.895  56.083 -51.447  1.00  0.00    -0.272 OA
BRANCH  22  25
HETATM   25  C   UNL     1     -40.315  53.332 -51.543  1.00  0.00     0.113 C 
HETATM   26  C   UNL     1     -40.436  53.151 -50.027  1.00  0.00     0.037 C 
BRANCH  25  27
HETATM   27  C   UNL     1     -40.052  52.011 -52.243  1.00  0.00    -0.036 A 
HETATM   28  C   UNL     1     -40.173  51.924 -53.639  1.00  0.00     0.009 A 
HETATM   29  C   UNL     1     -39.922  50.723 -54.304  1.00  0.00     0.001 A 
HETATM   30  C   UNL     1     -39.552  49.589 -53.583  1.00  0.00     0.000 A 
HETATM   31  C   UNL     1     -39.433  49.657 -52.196  1.00  0.00     0.001 A 
HETATM   32  C   UNL     1     -39.680  50.859 -51.529  1.00  0.00     0.009 A 
ENDBRANCH  25  27
ENDBRANCH  22  25
ENDBRANCH  20  21
ENDBRANCH   1  20
BRANCH   8  33
HETATM   33  C   UNL     1     -46.193  62.814 -55.987  1.00  0.00     0.278 C 
BRANCH  33  34
HETATM   34  O   UNL     1     -46.201  62.883 -57.410  1.00  0.00    -0.342 OA
BRANCH  34  35
HETATM   35  C   UNL     1     -46.253  61.672 -58.041  1.00  0.00     0.069 A 
HETATM   36  C   UNL     1     -45.204  61.117 -58.775  1.00  0.00     0.037 A 
HETATM   37  C   UNL     1     -45.372  59.881 -59.406  1.00  0.00     0.003 A 
HETATM   38  C   UNL     1     -46.587  59.204 -59.309  1.00  0.00     0.000 A 
HETATM   39  C   UNL     1     -47.640  59.765 -58.591  1.00  0.00     0.003 A 
HETATM   40  C   UNL     1     -47.475  61.003 -57.968  1.00  0.00     0.037 A 
ENDBRANCH  34  35
ENDBRANCH  33  34
ENDBRANCH   8  33
TORSDOF 8
ENDMDL
MODEL 9
REMARK VINA RESULT:      -8.5      2.321      3.162
REMARK  8 active torsions:
REMARK  status: ('A' for Active; 'I' for Inactive)
REMARK    1  A    between atoms: C_2  and  N_3 
REMARK    2  A    between atoms: C_2  and  C_34 
REMARK       I    between atoms: N_3  and  C_4 
REMARK    3  A    between atoms: C_4  and  C_5 
REMARK    4  A    between atoms: C_5  and  N_6 
REMARK       I    between atoms: N_12  and  C_13 
REMARK    5  A    between atoms: C_13  and  C_14 
REMARK    6  A    between atoms: C_14  and  O_15 
REMARK    7  A    between atoms: O_15  and  C_16 
REMARK    8  A    between atoms: N_25  and  C_26 
ROOT
HETATM    1  N   UNL     1     -41.897  58.729 -51.356  1.00  0.00    -0.325 N 
HETATM    2  C   UNL     1     -42.104  58.843 -52.714  1.00  0.00     0.250 C 
HETATM    3  O   UNL     1     -41.575  58.139 -53.563  1.00  0.00    -0.270 OA
HETATM    4  C   UNL     1     -43.093  60.003 -52.961  1.00  0.00     0.118 C 
HETATM    5  C   UNL     1     -44.416  59.391 -53.439  1.00  0.00     0.061 C 
HETATM    6  C   UNL     1     -44.362  58.957 -54.900  1.00  0.00     0.129 C 
HETATM    7  N   UNL     1     -43.814  60.001 -55.761  1.00  0.00    -0.350 N 
HETATM    8  C   UNL     1     -44.363  60.153 -57.037  1.00  0.00     0.244 C 
HETATM    9  O   UNL     1     -45.326  59.484 -57.420  1.00  0.00    -0.271 OA
HETATM   10  C   UNL     1     -42.487  60.484 -55.391  1.00  0.00     0.129 C 
HETATM   11  C   UNL     1     -42.438  60.978 -53.949  1.00  0.00     0.061 C 
HETATM   12  N   UNL     1     -43.216  60.593 -51.597  1.00  0.00    -0.346 N 
HETATM   13  C   UNL     1     -42.454  59.825 -50.621  1.00  0.00     0.254 C 
ENDROOT
BRANCH  12  14
HETATM   14  C   UNL     1     -43.908  61.724 -51.201  1.00  0.00     0.032 A 
HETATM   15  C   UNL     1     -45.304  61.764 -51.055  1.00  0.00     0.029 A 
HETATM   16  C   UNL     1     -45.992  62.923 -50.666  1.00  0.00     0.002 A 
HETATM   17  C   UNL     1     -45.299  64.095 -50.404  1.00  0.00     0.000 A 
HETATM   18  C   UNL     1     -43.919  64.100 -50.527  1.00  0.00     0.002 A 
HETATM   19  C   UNL     1     -43.243  62.935 -50.914  1.00  0.00     0.029 A 
ENDBRANCH  12  14
BRANCH   1  20
HETATM   20  C   UNL     1     -40.825  57.904 -50.821  1.00  0.00     0.230 C 
BRANCH  20  21
HETATM   21  C   UNL     1     -41.190  56.485 -50.361  1.00  0.00     0.236 C 
HETATM   22  N   UNL     1     -41.464  55.616 -51.396  1.00  0.00    -0.351 N 
HETATM   23  H   UNL     1     -41.474  55.954 -52.350  1.00  0.00     0.163 HD
HETATM   24  O   UNL     1     -41.170  56.127 -49.186  1.00  0.00    -0.272 OA
BRANCH  22  25
HETATM   25  C   UNL     1     -41.835  54.230 -51.154  1.00  0.00     0.113 C 
HETATM   26  C   UNL     1     -43.341  54.016 -51.330  1.00  0.00     0.037 C 
BRANCH  25  27
HETATM   27  C   UNL     1     -41.032  53.301 -52.047  1.00  0.00    -0.036 A 
HETATM   28  C   UNL     1     -41.172  53.382 -53.442  1.00  0.00     0.009 A 
HETATM   29  C   UNL     1     -40.432  52.548 -54.282  1.00  0.00     0.001 A 
HETATM   30  C   UNL     1     -39.548  51.617 -53.741  1.00  0.00     0.000 A 
HETATM   31  C   UNL     1     -39.403  51.520 -52.358  1.00  0.00     0.001 A 
HETATM   32  C   UNL     1     -40.138  52.357 -51.516  1.00  0.00     0.009 A 
ENDBRANCH  25  27
ENDBRANCH  22  25
ENDBRANCH  20  21
ENDBRANCH   1  20
BRANCH   8  33
HETATM   33  C   UNL     1     -43.732  61.181 -57.979  1.00  0.00     0.278 C 
BRANCH  33  34
HETATM   34  O   UNL     1     -42.853  60.519 -58.885  1.00  0.00    -0.342 OA
BRANCH  34  35
HETATM   35  C   UNL     1     -41.812  61.284 -59.333  1.00  0.00     0.069 A 
HETATM   36  C   UNL     1     -40.843  61.860 -58.511  1.00  0.00     0.037 A 
HETATM   37  C   UNL     1     -39.834  62.649 -59.069  1.00  0.00     0.003 A 
HETATM   38  C   UNL     1     -39.796  62.868 -60.446  1.00  0.00     0.000 A 
HETATM   39  C   UNL     1     -40.772  62.307 -61.266  1.00  0.00     0.003 A 
HETATM   40  C   UNL     1     -41.784  61.525 -60.707  1.00  0.00     0.037 A 
ENDBRANCH  34  35
ENDBRANCH  33  34
ENDBRANCH   8  33
TORSDOF 8
ENDMDL
MODEL 10
REMARK VINA RESULT:      -8.4      1.747      2.360
REMARK  8 active torsions:
REMARK  status: ('A' for Active; 'I' for Inactive)
REMARK    1  A    between atoms: C_2  and  N_3 
REMARK    2  A    between atoms: C_2  and  C_34 
REMARK       I    between atoms: N_3  and  C_4 
REMARK    3  A    between atoms: C_4  and  C_5 
REMARK    4  A    between atoms: C_5  and  N_6 
REMARK       I    between atoms: N_12  and  C_13 
REMARK    5  A    between atoms: C_13  and  C_14 
REMARK    6  A    between atoms: C_14  and  O_15 
REMARK    7  A    between atoms: O_15  and  C_16 
REMARK    8  A    between atoms: N_25  and  C_26 
ROOT
HETATM    1  N   UNL     1     -41.930  58.637 -53.178  1.00  0.00    -0.325 N 
HETATM    2  C   UNL     1     -42.042  58.104 -54.445  1.00  0.00     0.250 C 
HETATM    3  O   UNL     1     -41.475  57.090 -54.828  1.00  0.00    -0.270 OA
HETATM    4  C   UNL     1     -42.983  59.006 -55.273  1.00  0.00     0.118 C 
HETATM    5  C   UNL     1     -44.286  58.228 -55.503  1.00  0.00     0.061 C 
HETATM    6  C   UNL     1     -44.146  57.164 -56.586  1.00  0.00     0.129 C 
HETATM    7  N   UNL     1     -43.515  57.692 -57.793  1.00  0.00    -0.350 N 
HETATM    8  C   UNL     1     -43.974  57.226 -59.028  1.00  0.00     0.244 C 
HETATM    9  O   UNL     1     -44.925  56.447 -59.123  1.00  0.00    -0.271 OA
HETATM   10  C   UNL     1     -42.204  58.304 -57.597  1.00  0.00     0.129 C 
HETATM   11  C   UNL     1     -42.239  59.413 -56.552  1.00  0.00     0.061 C 
HETATM   12  N   UNL     1     -43.183  60.162 -54.353  1.00  0.00    -0.346 N 
HETATM   13  C   UNL     1     -42.507  59.944 -53.080  1.00  0.00     0.254 C 
ENDROOT
BRANCH  12  14
HETATM   14  C   UNL     1     -43.871  61.341 -54.579  1.00  0.00     0.032 A 
HETATM   15  C   UNL     1     -45.175  61.575 -54.114  1.00  0.00     0.029 A 
HETATM   16  C   UNL     1     -45.866  62.770 -54.364  1.00  0.00     0.002 A 
HETATM   17  C   UNL     1     -45.267  63.786 -55.094  1.00  0.00     0.000 A 
HETATM   18  C   UNL     1     -43.977  63.602 -55.566  1.00  0.00     0.002 A 
HETATM   19  C   UNL     1     -43.298  62.404 -55.307  1.00  0.00     0.029 A 
ENDBRANCH  12  14
BRANCH   1  20
HETATM   20  C   UNL     1     -40.916  58.167 -52.247  1.00  0.00     0.230 C 
BRANCH  20  21
HETATM   21  C   UNL     1     -41.247  56.917 -51.418  1.00  0.00     0.236 C 
HETATM   22  N   UNL     1     -41.347  55.762 -52.165  1.00  0.00    -0.351 N 
HETATM   23  H   UNL     1     -41.265  55.804 -53.173  1.00  0.00     0.163 HD
HETATM   24  O   UNL     1     -41.344  56.922 -50.194  1.00  0.00    -0.272 OA
BRANCH  22  25
HETATM   25  C   UNL     1     -41.660  54.479 -51.553  1.00  0.00     0.113 C 
HETATM   26  C   UNL     1     -43.169  54.221 -51.541  1.00  0.00     0.037 C 
BRANCH  25  27
HETATM   27  C   UNL     1     -40.908  53.361 -52.252  1.00  0.00    -0.036 A 
HETATM   28  C   UNL     1     -40.102  52.488 -51.503  1.00  0.00     0.009 A 
HETATM   29  C   UNL     1     -39.414  51.444 -52.124  1.00  0.00     0.001 A 
HETATM   30  C   UNL     1     -39.516  51.261 -53.502  1.00  0.00     0.000 A 
HETATM   31  C   UNL     1     -40.307  52.122 -54.259  1.00  0.00     0.001 A 
HETATM   32  C   UNL     1     -41.000  53.164 -53.640  1.00  0.00     0.009 A 
ENDBRANCH  25  27
ENDBRANCH  22  25
ENDBRANCH  20  21
ENDBRANCH   1  20
BRANCH   8  33
HETATM   33  C   UNL     1     -43.255  57.702 -60.293  1.00  0.00     0.278 C 
BRANCH  33  34
HETATM   34  O   UNL     1     -43.875  58.890 -60.775  1.00  0.00    -0.342 OA
BRANCH  34  35
HETATM   35  C   UNL     1     -43.287  60.052 -60.358  1.00  0.00     0.069 A 
HETATM   36  C   UNL     1     -41.973  60.421 -60.646  1.00  0.00     0.037 A 
HETATM   37  C   UNL     1     -41.459  61.621 -60.146  1.00  0.00     0.003 A 
HETATM   38  C   UNL     1     -42.255  62.448 -59.354  1.00  0.00     0.000 A 
HETATM   39  C   UNL     1     -43.562  62.072 -59.052  1.00  0.00     0.003 A 
HETATM   40  C   UNL     1     -44.073  60.871 -59.545  1.00  0.00     0.037 A 
ENDBRANCH  34  35
ENDBRANCH  33  34
ENDBRANCH   8  33
TORSDOF 8
ENDMDL
