MODEL 1
REMARK VINA RESULT:      -8.0      0.000      0.000
REMARK  6 active torsions:
REMARK  status: ('A' for Active; 'I' for Inactive)
REMARK    1  A    between atoms: C_3  and  C_4 
REMARK    2  A    between atoms: C_9  and  C_10 
REMARK    3  A    between atoms: C_10  and  O_11 
REMARK    4  A    between atoms: C_10  and  C_12 
REMARK    5  A    between atoms: C_12  and  N_13 
REMARK    6  A    between atoms: C_17  and  C_18 
ROOT
HETATM    1  C   UNL     1     -41.821  54.793 -49.827  1.00  0.00     0.271 C 
ENDROOT
BRANCH   1   2
HETATM    2  C   UNL     1     -40.366  54.585 -50.328  1.00  0.00     0.177 C 
BRANCH   2   3
HETATM    3  C   UNL     1     -40.250  53.491 -51.369  1.00  0.00    -0.027 A 
HETATM    4  C   UNL     1     -39.951  52.162 -51.021  1.00  0.00     0.025 A 
HETATM    5  C   UNL     1     -39.872  51.152 -51.998  1.00  0.00     0.048 A 
HETATM    6  C   UNL     1     -40.083  51.489 -53.340  1.00  0.00     0.016 A 
HETATM    7  C   UNL     1     -40.375  52.804 -53.699  1.00  0.00     0.001 A 
HETATM    8  C   UNL     1     -40.461  53.798 -52.722  1.00  0.00     0.010 A 
BRANCH   5   9
HETATM    9  C   UNL     1     -39.547  49.733 -51.587  1.00  0.00     0.417 C 
HETATM   10  F   UNL     1     -40.542  49.120 -50.894  1.00  0.00    -0.166 F 
HETATM   11  F   UNL     1     -39.264  48.938 -52.650  1.00  0.00    -0.166 F 
HETATM   12  F   UNL     1     -38.446  49.693 -50.783  1.00  0.00    -0.166 F 
ENDBRANCH   5   9
ENDBRANCH   2   3
BRANCH   2  13
HETATM   13  O   UNL     1     -39.493  54.341 -49.227  1.00  0.00    -0.389 OA
HETATM   14  H   UNL     1     -39.573  55.107 -48.624  1.00  0.00     0.210 HD
ENDBRANCH   2  13
ENDBRANCH   1   2
BRANCH   1  15
HETATM   15  N   UNL     1     -42.449  56.141 -50.229  1.00  0.00    -0.068 N 
HETATM   16  H   UNL     1     -42.577  56.680 -49.362  1.00  0.00     0.280 HD
HETATM   17  C   UNL     1     -41.551  56.952 -51.142  1.00  0.00     0.235 C 
HETATM   18  C   UNL     1     -42.226  58.269 -51.505  1.00  0.00     0.037 C 
HETATM   19  C   UNL     1     -43.594  58.061 -52.170  1.00  0.00     0.025 C 
HETATM   20  C   UNL     1     -44.464  57.237 -51.211  1.00  0.00     0.037 C 
HETATM   21  C   UNL     1     -43.815  55.912 -50.834  1.00  0.00     0.235 C 
BRANCH  19  22
HETATM   22  C   UNL     1     -43.492  57.478 -53.557  1.00  0.00    -0.018 A 
HETATM   23  C   UNL     1     -42.371  57.438 -54.425  1.00  0.00     0.147 A 
HETATM   24  N   UNL     1     -42.643  56.870 -55.598  1.00  0.00    -0.187 NA
HETATM   25  N   UNL     1     -43.903  56.439 -55.465  1.00  0.00    -0.289 N 
HETATM   26  H   UNL     1     -44.318  55.911 -56.227  1.00  0.00     0.188 HD
HETATM   27  C   UNL     1     -44.462  56.796 -54.269  1.00  0.00     0.118 A 
ENDBRANCH  19  22
ENDBRANCH   1  15
TORSDOF 6
ENDMDL
MODEL 2
REMARK VINA RESULT:      -7.9      2.498      3.988
REMARK  6 active torsions:
REMARK  status: ('A' for Active; 'I' for Inactive)
REMARK    1  A    between atoms: C_3  and  C_4 
REMARK    2  A    between atoms: C_9  and  C_10 
REMARK    3  A    between atoms: C_10  and  O_11 
REMARK    4  A    between atoms: C_10  and  C_12 
REMARK    5  A    between atoms: C_12  and  N_13 
REMARK    6  A    between atoms: C_17  and  C_18 
ROOT
HETATM    1  C   UNL     1     -42.560  55.620 -53.770  1.00  0.00     0.271 C 
ENDROOT
BRANCH   1   2
HETATM    2  C   UNL     1     -41.815  54.529 -54.586  1.00  0.00     0.177 C 
BRANCH   2   3
HETATM    3  C   UNL     1     -41.069  53.543 -53.711  1.00  0.00    -0.027 A 
HETATM    4  C   UNL     1     -40.740  52.251 -54.159  1.00  0.00     0.025 A 
HETATM    5  C   UNL     1     -40.024  51.356 -53.343  1.00  0.00     0.048 A 
HETATM    6  C   UNL     1     -39.649  51.763 -52.057  1.00  0.00     0.016 A 
HETATM    7  C   UNL     1     -39.974  53.038 -51.598  1.00  0.00     0.001 A 
HETATM    8  C   UNL     1     -40.676  53.923 -52.419  1.00  0.00     0.010 A 
BRANCH   5   9
HETATM    9  C   UNL     1     -39.689  49.974 -53.858  1.00  0.00     0.417 C 
HETATM   10  F   UNL     1     -38.539  49.921 -54.579  1.00  0.00    -0.166 F 
HETATM   11  F   UNL     1     -39.565  49.065 -52.857  1.00  0.00    -0.166 F 
HETATM   12  F   UNL     1     -40.672  49.501 -54.677  1.00  0.00    -0.166 F 
ENDBRANCH   5   9
ENDBRANCH   2   3
BRANCH   2  13
HETATM   13  O   UNL     1     -40.942  55.132 -55.538  1.00  0.00    -0.389 OA
HETATM   14  H   UNL     1     -41.240  56.057 -55.653  1.00  0.00     0.210 HD
ENDBRANCH   2  13
ENDBRANCH   1   2
BRANCH   1  15
HETATM   15  N   UNL     1     -42.076  57.059 -54.036  1.00  0.00    -0.068 N 
HETATM   16  H   UNL     1     -41.566  57.040 -54.929  1.00  0.00     0.280 HD
HETATM   17  C   UNL     1     -43.222  58.040 -54.185  1.00  0.00     0.235 C 
HETATM   18  C   UNL     1     -42.681  59.442 -54.443  1.00  0.00     0.037 C 
HETATM   19  C   UNL     1     -41.730  59.915 -53.334  1.00  0.00     0.025 C 
HETATM   20  C   UNL     1     -40.592  58.891 -53.221  1.00  0.00     0.037 C 
HETATM   21  C   UNL     1     -41.104  57.481 -52.959  1.00  0.00     0.235 C 
BRANCH  19  22
HETATM   22  C   UNL     1     -42.437  60.189 -52.031  1.00  0.00    -0.018 A 
HETATM   23  C   UNL     1     -43.810  60.462 -51.803  1.00  0.00     0.147 A 
HETATM   24  N   UNL     1     -44.088  60.690 -50.522  1.00  0.00    -0.187 NA
HETATM   25  N   UNL     1     -42.930  60.460 -49.893  1.00  0.00    -0.289 N 
HETATM   26  H   UNL     1     -42.909  60.514 -48.878  1.00  0.00     0.188 HD
HETATM   27  C   UNL     1     -41.906  60.177 -50.754  1.00  0.00     0.118 A 
ENDBRANCH  19  22
ENDBRANCH   1  15
TORSDOF 6
ENDMDL
MODEL 3
REMARK VINA RESULT:      -7.9      3.257      4.863
REMARK  6 active torsions:
REMARK  status: ('A' for Active; 'I' for Inactive)
REMARK    1  A    between atoms: C_3  and  C_4 
REMARK    2  A    between atoms: C_9  and  C_10 
REMARK    3  A    between atoms: C_10  and  O_11 
REMARK    4  A    between atoms: C_10  and  C_12 
REMARK    5  A    between atoms: C_12  and  N_13 
REMARK    6  A    between atoms: C_17  and  C_18 
ROOT
HETATM    1  C   UNL     1     -42.122  55.164 -55.470  1.00  0.00     0.271 C 
ENDROOT
BRANCH   1   2
HETATM    2  C   UNL     1     -40.748  55.190 -54.748  1.00  0.00     0.177 C 
BRANCH   2   3
HETATM    3  C   UNL     1     -40.545  54.010 -53.821  1.00  0.00    -0.027 A 
HETATM    4  C   UNL     1     -40.364  52.703 -54.308  1.00  0.00     0.025 A 
HETATM    5  C   UNL     1     -40.151  51.621 -53.435  1.00  0.00     0.048 A 
HETATM    6  C   UNL     1     -40.134  51.857 -52.055  1.00  0.00     0.016 A 
HETATM    7  C   UNL     1     -40.318  53.146 -51.558  1.00  0.00     0.001 A 
HETATM    8  C   UNL     1     -40.519  54.215 -52.433  1.00  0.00     0.010 A 
BRANCH   5   9
HETATM    9  C   UNL     1     -39.961  50.229 -53.995  1.00  0.00     0.417 C 
HETATM   10  F   UNL     1     -41.021  49.778 -54.715  1.00  0.00    -0.166 F 
HETATM   11  F   UNL     1     -38.874  50.140 -54.804  1.00  0.00    -0.166 F 
HETATM   12  F   UNL     1     -39.764  49.319 -52.999  1.00  0.00    -0.166 F 
ENDBRANCH   5   9
ENDBRANCH   2   3
BRANCH   2  13
HETATM   13  O   UNL     1     -40.576  56.423 -54.054  1.00  0.00    -0.389 OA
HETATM   14  H   UNL     1     -41.254  57.040 -54.396  1.00  0.00     0.210 HD
ENDBRANCH   2  13
ENDBRANCH   1   2
BRANCH   1  15
HETATM   15  N   UNL     1     -42.140  55.878 -56.835  1.00  0.00    -0.068 N 
HETATM   16  H   UNL     1     -41.166  55.918 -57.163  1.00  0.00     0.280 HD
HETATM   17  C   UNL     1     -42.941  55.121 -57.876  1.00  0.00     0.235 C 
HETATM   18  C   UNL     1     -42.924  55.876 -59.201  1.00  0.00     0.037 C 
HETATM   19  C   UNL     1     -43.464  57.307 -59.065  1.00  0.00     0.025 C 
HETATM   20  C   UNL     1     -42.625  58.029 -58.002  1.00  0.00     0.037 C 
HETATM   21  C   UNL     1     -42.628  57.298 -56.666  1.00  0.00     0.235 C 
BRANCH  19  22
HETATM   22  C   UNL     1     -44.949  57.354 -58.807  1.00  0.00    -0.018 A 
HETATM   23  C   UNL     1     -45.671  58.191 -57.919  1.00  0.00     0.147 A 
HETATM   24  N   UNL     1     -46.979  57.942 -57.919  1.00  0.00    -0.187 NA
HETATM   25  N   UNL     1     -47.134  57.023 -58.880  1.00  0.00    -0.289 N 
HETATM   26  H   UNL     1     -48.074  56.714 -59.109  1.00  0.00     0.188 HD
HETATM   27  C   UNL     1     -45.946  56.624 -59.427  1.00  0.00     0.118 A 
ENDBRANCH  19  22
ENDBRANCH   1  15
TORSDOF 6
ENDMDL
MODEL 4
REMARK VINA RESULT:      -7.8      2.440      3.574
REMARK  6 active torsions:
REMARK  status: ('A' for Active; 'I' for Inactive)
REMARK    1  A    between atoms: C_3  and  C_4 
REMARK    2  A    between atoms: C_9  and  C_10 
REMARK    3  A    between atoms: C_10  and  O_11 
REMARK    4  A    between atoms: C_10  and  C_12 
REMARK    5  A    between atoms: C_12  and  N_13 
REMARK    6  A    between atoms: C_17  and  C_18 
ROOT
HETATM    1  C   UNL     1     -41.414  56.082 -53.186  1.00  0.00     0.271 C 
ENDROOT
BRANCH   1   2
HETATM    2  C   UNL     1     -41.055  54.856 -54.070  1.00  0.00     0.177 C 
BRANCH   2   3
HETATM    3  C   UNL     1     -40.598  53.659 -53.263  1.00  0.00    -0.027 A 
HETATM    4  C   UNL     1     -40.383  52.401 -53.853  1.00  0.00     0.025 A 
HETATM    5  C   UNL     1     -39.933  51.306 -53.095  1.00  0.00     0.048 A 
HETATM    6  C   UNL     1     -39.711  51.477 -51.723  1.00  0.00     0.016 A 
HETATM    7  C   UNL     1     -39.925  52.716 -51.124  1.00  0.00     0.001 A 
HETATM    8  C   UNL     1     -40.362  53.801 -51.887  1.00  0.00     0.010 A 
BRANCH   5   9
HETATM    9  C   UNL     1     -39.715  49.967 -53.764  1.00  0.00     0.417 C 
HETATM   10  F   UNL     1     -38.640  49.937 -54.594  1.00  0.00    -0.166 F 
HETATM   11  F   UNL     1     -39.544  48.961 -52.868  1.00  0.00    -0.166 F 
HETATM   12  F   UNL     1     -40.790  49.615 -54.525  1.00  0.00    -0.166 F 
ENDBRANCH   5   9
ENDBRANCH   2   3
BRANCH   2  13
HETATM   13  O   UNL     1     -40.082  55.218 -55.048  1.00  0.00    -0.389 OA
HETATM   14  H   UNL     1     -40.549  55.731 -55.737  1.00  0.00     0.210 HD
ENDBRANCH   2  13
ENDBRANCH   1   2
BRANCH   1  15
HETATM   15  N   UNL     1     -42.407  57.067 -53.833  1.00  0.00    -0.068 N 
HETATM   16  H   UNL     1     -42.929  57.509 -53.065  1.00  0.00     0.280 HD
HETATM   17  C   UNL     1     -41.712  58.169 -54.607  1.00  0.00     0.235 C 
HETATM   18  C   UNL     1     -42.744  59.107 -55.223  1.00  0.00     0.037 C 
HETATM   19  C   UNL     1     -43.732  58.369 -56.138  1.00  0.00     0.025 C 
HETATM   20  C   UNL     1     -44.406  57.265 -55.312  1.00  0.00     0.037 C 
HETATM   21  C   UNL     1     -43.397  56.310 -54.688  1.00  0.00     0.235 C 
BRANCH  19  22
HETATM   22  C   UNL     1     -43.097  57.875 -57.413  1.00  0.00    -0.018 A 
HETATM   23  C   UNL     1     -43.476  56.780 -58.230  1.00  0.00     0.147 A 
HETATM   24  N   UNL     1     -42.669  56.607 -59.274  1.00  0.00    -0.187 NA
HETATM   25  N   UNL     1     -41.829  57.647 -59.211  1.00  0.00    -0.289 N 
HETATM   26  H   UNL     1     -41.145  57.764 -59.952  1.00  0.00     0.188 HD
HETATM   27  C   UNL     1     -42.031  58.424 -58.104  1.00  0.00     0.118 A 
ENDBRANCH  19  22
ENDBRANCH   1  15
TORSDOF 6
ENDMDL
MODEL 5
REMARK VINA RESULT:      -7.6      3.993      5.485
REMARK  6 active torsions:
REMARK  status: ('A' for Active; 'I' for Inactive)
REMARK    1  A    between atoms: C_3  and  C_4 
REMARK    2  A    between atoms: C_9  and  C_10 
REMARK    3  A    between atoms: C_10  and  O_11 
REMARK    4  A    between atoms: C_10  and  C_12 
REMARK    5  A    between atoms: C_12  and  N_13 
REMARK    6  A    between atoms: C_17  and  C_18 
ROOT
HETATM    1  C   UNL     1     -42.893  56.418 -55.299  1.00  0.00     0.271 C 
ENDROOT
BRANCH   1   2
HETATM    2  C   UNL     1     -43.318  55.494 -54.126  1.00  0.00     0.177 C 
BRANCH   2   3
HETATM    3  C   UNL     1     -42.241  54.504 -53.733  1.00  0.00    -0.027 A 
HETATM    4  C   UNL     1     -41.848  54.324 -52.395  1.00  0.00     0.025 A 
HETATM    5  C   UNL     1     -40.865  53.382 -52.043  1.00  0.00     0.048 A 
HETATM    6  C   UNL     1     -40.260  52.625 -53.052  1.00  0.00     0.016 A 
HETATM    7  C   UNL     1     -40.636  52.797 -54.383  1.00  0.00     0.001 A 
HETATM    8  C   UNL     1     -41.620  53.727 -54.722  1.00  0.00     0.010 A 
BRANCH   5   9
HETATM    9  C   UNL     1     -40.467  53.217 -50.592  1.00  0.00     0.417 C 
HETATM   10  F   UNL     1     -40.285  51.925 -50.217  1.00  0.00    -0.166 F 
HETATM   11  F   UNL     1     -39.319  53.877 -50.292  1.00  0.00    -0.166 F 
HETATM   12  F   UNL     1     -41.421  53.723 -49.759  1.00  0.00    -0.166 F 
ENDBRANCH   5   9
ENDBRANCH   2   3
BRANCH   2  13
HETATM   13  O   UNL     1     -44.539  54.826 -54.438  1.00  0.00    -0.389 OA
HETATM   14  H   UNL     1     -44.690  54.165 -53.734  1.00  0.00     0.210 HD
ENDBRANCH   2  13
ENDBRANCH   1   2
BRANCH   1  15
HETATM   15  N   UNL     1     -43.792  56.321 -56.547  1.00  0.00    -0.068 N 
HETATM   16  H   UNL     1     -44.605  55.748 -56.284  1.00  0.00     0.280 HD
HETATM   17  C   UNL     1     -44.310  57.673 -56.997  1.00  0.00     0.235 C 
HETATM   18  C   UNL     1     -45.188  57.512 -58.233  1.00  0.00     0.037 C 
HETATM   19  C   UNL     1     -44.448  56.825 -59.390  1.00  0.00     0.025 C 
HETATM   20  C   UNL     1     -43.943  55.467 -58.886  1.00  0.00     0.037 C 
HETATM   21  C   UNL     1     -43.058  55.598 -57.653  1.00  0.00     0.235 C 
BRANCH  19  22
HETATM   22  C   UNL     1     -43.373  57.691 -59.997  1.00  0.00    -0.018 A 
HETATM   23  C   UNL     1     -43.435  59.059 -60.364  1.00  0.00     0.147 A 
HETATM   24  N   UNL     1     -42.302  59.503 -60.905  1.00  0.00    -0.187 NA
HETATM   25  N   UNL     1     -41.462  58.466 -60.794  1.00  0.00    -0.289 N 
HETATM   26  H   UNL     1     -40.499  58.588 -61.092  1.00  0.00     0.188 HD
HETATM   27  C   UNL     1     -42.062  57.352 -60.275  1.00  0.00     0.118 A 
ENDBRANCH  19  22
ENDBRANCH   1  15
TORSDOF 6
ENDMDL
MODEL 6
REMARK VINA RESULT:      -7.6      2.063      3.424
REMARK  6 active torsions:
REMARK  status: ('A' for Active; 'I' for Inactive)
REMARK    1  A    between atoms: C_3  and  C_4 
REMARK    2  A    between atoms: C_9  and  C_10 
REMARK    3  A    between atoms: C_10  and  O_11 
REMARK    4  A    between atoms: C_10  and  C_12 
REMARK    5  A    between atoms: C_12  and  N_13 
REMARK    6  A    between atoms: C_17  and  C_18 
ROOT
HETATM    1  C   UNL     1     -42.343  54.175 -51.054  1.00  0.00     0.271 C 
ENDROOT
BRANCH   1   2
HETATM    2  C   UNL     1     -40.826  53.898 -50.872  1.00  0.00     0.177 C 
BRANCH   2   3
HETATM    3  C   UNL     1     -40.437  52.478 -51.227  1.00  0.00    -0.027 A 
HETATM    4  C   UNL     1     -40.280  52.061 -52.561  1.00  0.00     0.025 A 
HETATM    5  C   UNL     1     -39.894  50.745 -52.874  1.00  0.00     0.048 A 
HETATM    6  C   UNL     1     -39.678  49.836 -51.831  1.00  0.00     0.016 A 
HETATM    7  C   UNL     1     -39.836  50.235 -50.505  1.00  0.00     0.001 A 
HETATM    8  C   UNL     1     -40.210  51.545 -50.203  1.00  0.00     0.010 A 
BRANCH   5   9
HETATM    9  C   UNL     1     -39.735  50.332 -54.320  1.00  0.00     0.417 C 
HETATM   10  F   UNL     1     -38.610  49.612 -54.565  1.00  0.00    -0.166 F 
HETATM   11  F   UNL     1     -40.780  49.586 -54.763  1.00  0.00    -0.166 F 
HETATM   12  F   UNL     1     -39.676  51.420 -55.140  1.00  0.00    -0.166 F 
ENDBRANCH   5   9
ENDBRANCH   2   3
BRANCH   2  13
HETATM   13  O   UNL     1     -40.418  54.225 -49.545  1.00  0.00    -0.389 OA
HETATM   14  H   UNL     1     -40.959  53.680 -48.939  1.00  0.00     0.210 HD
ENDBRANCH   2  13
ENDBRANCH   1   2
BRANCH   1  15
HETATM   15  N   UNL     1     -42.667  55.458 -51.843  1.00  0.00    -0.068 N 
HETATM   16  H   UNL     1     -43.450  55.230 -52.471  1.00  0.00     0.280 HD
HETATM   17  C   UNL     1     -43.116  56.595 -50.946  1.00  0.00     0.235 C 
HETATM   18  C   UNL     1     -43.420  57.833 -51.783  1.00  0.00     0.037 C 
HETATM   19  C   UNL     1     -42.217  58.278 -52.626  1.00  0.00     0.025 C 
HETATM   20  C   UNL     1     -41.800  57.096 -53.513  1.00  0.00     0.037 C 
HETATM   21  C   UNL     1     -41.486  55.846 -52.702  1.00  0.00     0.235 C 
BRANCH  19  22
HETATM   22  C   UNL     1     -41.093  58.845 -51.796  1.00  0.00    -0.018 A 
HETATM   23  C   UNL     1     -39.715  58.948 -52.116  1.00  0.00     0.147 A 
HETATM   24  N   UNL     1     -38.992  59.477 -51.131  1.00  0.00    -0.187 NA
HETATM   25  N   UNL     1     -39.901  59.823 -50.212  1.00  0.00    -0.289 N 
HETATM   26  H   UNL     1     -39.587  60.310 -49.377  1.00  0.00     0.188 HD
HETATM   27  C   UNL     1     -41.170  59.448 -50.554  1.00  0.00     0.118 A 
ENDBRANCH  19  22
ENDBRANCH   1  15
TORSDOF 6
ENDMDL
MODEL 7
REMARK VINA RESULT:      -7.4      3.936      5.565
REMARK  6 active torsions:
REMARK  status: ('A' for Active; 'I' for Inactive)
REMARK    1  A    between atoms: C_3  and  C_4 
REMARK    2  A    between atoms: C_9  and  C_10 
REMARK    3  A    between atoms: C_10  and  O_11 
REMARK    4  A    between atoms: C_10  and  C_12 
REMARK    5  A    between atoms: C_12  and  N_13 
REMARK    6  A    between atoms: C_17  and  C_18 
ROOT
HETATM    1  C   UNL     1     -42.692  56.474 -55.568  1.00  0.00     0.271 C 
ENDROOT
BRANCH   1   2
HETATM    2  C   UNL     1     -41.382  56.509 -54.736  1.00  0.00     0.177 C 
BRANCH   2   3
HETATM    3  C   UNL     1     -40.974  55.146 -54.217  1.00  0.00    -0.027 A 
HETATM    4  C   UNL     1     -40.934  54.854 -52.842  1.00  0.00     0.025 A 
HETATM    5  C   UNL     1     -40.579  53.575 -52.377  1.00  0.00     0.048 A 
HETATM    6  C   UNL     1     -40.246  52.584 -53.308  1.00  0.00     0.016 A 
HETATM    7  C   UNL     1     -40.275  52.862 -54.673  1.00  0.00     0.001 A 
HETATM    8  C   UNL     1     -40.639  54.131 -55.126  1.00  0.00     0.010 A 
BRANCH   5   9
HETATM    9  C   UNL     1     -40.546  53.299 -50.890  1.00  0.00     0.417 C 
HETATM   10  F   UNL     1     -39.521  53.908 -50.241  1.00  0.00    -0.166 F 
HETATM   11  F   UNL     1     -41.688  53.685 -50.266  1.00  0.00    -0.166 F 
HETATM   12  F   UNL     1     -40.413  51.965 -50.640  1.00  0.00    -0.166 F 
ENDBRANCH   5   9
ENDBRANCH   2   3
BRANCH   2  13
HETATM   13  O   UNL     1     -41.497  57.450 -53.670  1.00  0.00    -0.389 OA
HETATM   14  H   UNL     1     -41.223  56.989 -52.852  1.00  0.00     0.210 HD
ENDBRANCH   2  13
ENDBRANCH   1   2
BRANCH   1  15
HETATM   15  N   UNL     1     -42.491  56.656 -57.085  1.00  0.00    -0.068 N 
HETATM   16  H   UNL     1     -41.478  56.744 -57.242  1.00  0.00     0.280 HD
HETATM   17  C   UNL     1     -42.976  55.463 -57.883  1.00  0.00     0.235 C 
HETATM   18  C   UNL     1     -42.753  55.703 -59.372  1.00  0.00     0.037 C 
HETATM   19  C   UNL     1     -43.447  56.980 -59.869  1.00  0.00     0.025 C 
HETATM   20  C   UNL     1     -42.926  58.155 -59.031  1.00  0.00     0.037 C 
HETATM   21  C   UNL     1     -43.141  57.943 -57.538  1.00  0.00     0.235 C 
BRANCH  19  22
HETATM   22  C   UNL     1     -44.950  56.862 -59.889  1.00  0.00    -0.018 A 
HETATM   23  C   UNL     1     -45.924  57.886 -59.769  1.00  0.00     0.147 A 
HETATM   24  N   UNL     1     -47.171  57.422 -59.798  1.00  0.00    -0.187 NA
HETATM   25  N   UNL     1     -47.025  56.115 -60.048  1.00  0.00    -0.289 N 
HETATM   26  H   UNL     1     -47.859  55.549 -60.175  1.00  0.00     0.188 HD
HETATM   27  C   UNL     1     -45.715  55.727 -60.090  1.00  0.00     0.118 A 
ENDBRANCH  19  22
ENDBRANCH   1  15
TORSDOF 6
ENDMDL
MODEL 8
REMARK VINA RESULT:      -7.4      2.657      4.108
REMARK  6 active torsions:
REMARK  status: ('A' for Active; 'I' for Inactive)
REMARK    1  A    between atoms: C_3  and  C_4 
REMARK    2  A    between atoms: C_9  and  C_10 
REMARK    3  A    between atoms: C_10  and  O_11 
REMARK    4  A    between atoms: C_10  and  C_12 
REMARK    5  A    between atoms: C_12  and  N_13 
REMARK    6  A    between atoms: C_17  and  C_18 
ROOT
HETATM    1  C   UNL     1     -40.859  56.078 -54.297  1.00  0.00     0.271 C 
ENDROOT
BRANCH   1   2
HETATM    2  C   UNL     1     -41.025  54.572 -54.637  1.00  0.00     0.177 C 
BRANCH   2   3
HETATM    3  C   UNL     1     -40.575  53.659 -53.516  1.00  0.00    -0.027 A 
HETATM    4  C   UNL     1     -40.660  54.042 -52.165  1.00  0.00     0.025 A 
HETATM    5  C   UNL     1     -40.262  53.173 -51.134  1.00  0.00     0.048 A 
HETATM    6  C   UNL     1     -39.759  51.910 -51.468  1.00  0.00     0.016 A 
HETATM    7  C   UNL     1     -39.663  51.520 -52.803  1.00  0.00     0.001 A 
HETATM    8  C   UNL     1     -40.070  52.386 -53.819  1.00  0.00     0.010 A 
BRANCH   5   9
HETATM    9  C   UNL     1     -40.367  53.619 -49.692  1.00  0.00     0.417 C 
HETATM   10  F   UNL     1     -41.381  54.492 -49.460  1.00  0.00    -0.166 F 
HETATM   11  F   UNL     1     -40.546  52.578 -48.839  1.00  0.00    -0.166 F 
HETATM   12  F   UNL     1     -39.226  54.246 -49.286  1.00  0.00    -0.166 F 
ENDBRANCH   5   9
ENDBRANCH   2   3
BRANCH   2  13
HETATM   13  O   UNL     1     -40.349  54.262 -55.854  1.00  0.00    -0.389 OA
HETATM   14  H   UNL     1     -39.393  54.391 -55.690  1.00  0.00     0.210 HD
ENDBRANCH   2  13
ENDBRANCH   1   2
BRANCH   1  15
HETATM   15  N   UNL     1     -42.068  56.956 -54.675  1.00  0.00    -0.068 N 
HETATM   16  H   UNL     1     -42.034  57.085 -55.694  1.00  0.00     0.280 HD
HETATM   17  C   UNL     1     -43.392  56.297 -54.341  1.00  0.00     0.235 C 
HETATM   18  C   UNL     1     -44.546  57.211 -54.735  1.00  0.00     0.037 C 
HETATM   19  C   UNL     1     -44.461  58.585 -54.055  1.00  0.00     0.025 C 
HETATM   20  C   UNL     1     -43.107  59.209 -54.419  1.00  0.00     0.037 C 
HETATM   21  C   UNL     1     -41.935  58.317 -54.032  1.00  0.00     0.235 C 
BRANCH  19  22
HETATM   22  C   UNL     1     -44.726  58.524 -52.572  1.00  0.00    -0.018 A 
HETATM   23  C   UNL     1     -44.863  57.385 -51.738  1.00  0.00     0.147 A 
HETATM   24  N   UNL     1     -45.126  57.697 -50.471  1.00  0.00    -0.187 NA
HETATM   25  N   UNL     1     -45.053  59.033 -50.445  1.00  0.00    -0.289 N 
HETATM   26  H   UNL     1     -45.163  59.508 -49.553  1.00  0.00     0.188 HD
HETATM   27  C   UNL     1     -44.837  59.576 -51.680  1.00  0.00     0.118 A 
ENDBRANCH  19  22
ENDBRANCH   1  15
TORSDOF 6
ENDMDL
MODEL 9
REMARK VINA RESULT:      -7.3      2.851      4.255
REMARK  6 active torsions:
REMARK  status: ('A' for Active; 'I' for Inactive)
REMARK    1  A    between atoms: C_3  and  C_4 
REMARK    2  A    between atoms: C_9  and  C_10 
REMARK    3  A    between atoms: C_10  and  O_11 
REMARK    4  A    between atoms: C_10  and  C_12 
REMARK    5  A    between atoms: C_12  and  N_13 
REMARK    6  A    between atoms: C_17  and  C_18 
ROOT
HETATM    1  C   UNL     1     -43.435  56.102 -52.701  1.00  0.00     0.271 C 
ENDROOT
BRANCH   1   2
HETATM    2  C   UNL     1     -43.098  55.510 -51.306  1.00  0.00     0.177 C 
BRANCH   2   3
HETATM    3  C   UNL     1     -41.995  54.473 -51.354  1.00  0.00    -0.027 A 
HETATM    4  C   UNL     1     -41.595  53.869 -52.559  1.00  0.00     0.025 A 
HETATM    5  C   UNL     1     -40.551  52.926 -52.591  1.00  0.00     0.048 A 
HETATM    6  C   UNL     1     -39.915  52.579 -51.394  1.00  0.00     0.016 A 
HETATM    7  C   UNL     1     -40.306  53.165 -50.191  1.00  0.00     0.001 A 
HETATM    8  C   UNL     1     -41.336  54.107 -50.171  1.00  0.00     0.010 A 
BRANCH   5   9
HETATM    9  C   UNL     1     -40.148  52.296 -53.906  1.00  0.00     0.417 C 
HETATM   10  F   UNL     1     -41.087  51.466 -54.428  1.00  0.00    -0.166 F 
HETATM   11  F   UNL     1     -39.870  53.222 -54.860  1.00  0.00    -0.166 F 
HETATM   12  F   UNL     1     -39.016  51.548 -53.767  1.00  0.00    -0.166 F 
ENDBRANCH   5   9
ENDBRANCH   2   3
BRANCH   2  13
HETATM   13  O   UNL     1     -44.273  54.982 -50.695  1.00  0.00    -0.389 OA
HETATM   14  H   UNL     1     -44.569  54.231 -51.248  1.00  0.00     0.210 HD
ENDBRANCH   2  13
ENDBRANCH   1   2
BRANCH   1  15
HETATM   15  N   UNL     1     -43.187  57.617 -52.830  1.00  0.00    -0.068 N 
HETATM   16  H   UNL     1     -42.629  57.756 -53.682  1.00  0.00     0.280 HD
HETATM   17  C   UNL     1     -44.472  58.405 -52.991  1.00  0.00     0.235 C 
HETATM   18  C   UNL     1     -44.162  59.893 -53.111  1.00  0.00     0.037 C 
HETATM   19  C   UNL     1     -43.373  60.424 -51.906  1.00  0.00     0.025 C 
HETATM   20  C   UNL     1     -42.086  59.596 -51.783  1.00  0.00     0.037 C 
HETATM   21  C   UNL     1     -42.366  58.105 -51.658  1.00  0.00     0.235 C 
BRANCH  19  22
HETATM   22  C   UNL     1     -44.191  60.472 -50.640  1.00  0.00    -0.018 A 
HETATM   23  C   UNL     1     -45.420  59.825 -50.351  1.00  0.00     0.147 A 
HETATM   24  N   UNL     1     -45.885  60.114 -49.137  1.00  0.00    -0.187 NA
HETATM   25  N   UNL     1     -44.916  60.856 -48.587  1.00  0.00    -0.289 N 
HETATM   26  H   UNL     1     -45.021  61.151 -47.620  1.00  0.00     0.188 HD
HETATM   27  C   UNL     1     -43.891  61.115 -49.453  1.00  0.00     0.118 A 
ENDBRANCH  19  22
ENDBRANCH   1  15
TORSDOF 6
ENDMDL
MODEL 10
REMARK VINA RESULT:      -7.1      2.679      3.356
REMARK  6 active torsions:
REMARK  status: ('A' for Active; 'I' for Inactive)
REMARK    1  A    between atoms: C_3  and  C_4 
REMARK    2  A    between atoms: C_9  and  C_10 
REMARK    3  A    between atoms: C_10  and  O_11 
REMARK    4  A    between atoms: C_10  and  C_12 
REMARK    5  A    between atoms: C_12  and  N_13 
REMARK    6  A    between atoms: C_17  and  C_18 
ROOT
HETATM    1  C   UNL     1     -43.016  55.586 -50.482  1.00  0.00     0.271 C 
ENDROOT
BRANCH   1   2
HETATM    2  C   UNL     1     -41.615  55.003 -50.152  1.00  0.00     0.177 C 
BRANCH   2   3
HETATM    3  C   UNL     1     -41.061  54.132 -51.260  1.00  0.00    -0.027 A 
HETATM    4  C   UNL     1     -41.142  54.509 -52.613  1.00  0.00     0.025 A 
HETATM    5  C   UNL     1     -40.599  53.701 -53.629  1.00  0.00     0.048 A 
HETATM    6  C   UNL     1     -39.982  52.495 -53.278  1.00  0.00     0.016 A 
HETATM    7  C   UNL     1     -39.901  52.107 -51.942  1.00  0.00     0.001 A 
HETATM    8  C   UNL     1     -40.433  52.919 -50.940  1.00  0.00     0.010 A 
BRANCH   5   9
HETATM    9  C   UNL     1     -40.705  54.138 -55.073  1.00  0.00     0.417 C 
HETATM   10  F   UNL     1     -39.921  53.424 -55.922  1.00  0.00    -0.166 F 
HETATM   11  F   UNL     1     -41.974  54.053 -55.548  1.00  0.00    -0.166 F 
HETATM   12  F   UNL     1     -40.334  55.442 -55.222  1.00  0.00    -0.166 F 
ENDBRANCH   5   9
ENDBRANCH   2   3
BRANCH   2  13
HETATM   13  O   UNL     1     -41.652  54.296 -48.914  1.00  0.00    -0.389 OA
HETATM   14  H   UNL     1     -42.322  53.590 -49.009  1.00  0.00     0.210 HD
ENDBRANCH   2  13
ENDBRANCH   1   2
BRANCH   1  15
HETATM   15  N   UNL     1     -43.076  57.125 -50.516  1.00  0.00    -0.068 N 
HETATM   16  H   UNL     1     -43.221  57.438 -49.547  1.00  0.00     0.280 HD
HETATM   17  C   UNL     1     -41.785  57.746 -51.010  1.00  0.00     0.235 C 
HETATM   18  C   UNL     1     -41.906  59.266 -51.024  1.00  0.00     0.037 C 
HETATM   19  C   UNL     1     -43.081  59.751 -51.885  1.00  0.00     0.025 C 
HETATM   20  C   UNL     1     -44.361  59.095 -51.349  1.00  0.00     0.037 C 
HETATM   21  C   UNL     1     -44.269  57.575 -51.329  1.00  0.00     0.235 C 
BRANCH  19  22
HETATM   22  C   UNL     1     -42.857  59.536 -53.361  1.00  0.00    -0.018 A 
HETATM   23  C   UNL     1     -43.814  59.314 -54.383  1.00  0.00     0.147 A 
HETATM   24  N   UNL     1     -43.262  59.132 -55.581  1.00  0.00    -0.187 NA
HETATM   25  N   UNL     1     -41.957  59.343 -55.371  1.00  0.00    -0.289 N 
HETATM   26  H   UNL     1     -41.327  59.316 -56.168  1.00  0.00     0.188 HD
HETATM   27  C   UNL     1     -41.661  59.568 -54.056  1.00  0.00     0.118 A 
ENDBRANCH  19  22
ENDBRANCH   1  15
TORSDOF 6
ENDMDL
