MODEL 1
REMARK VINA RESULT:      -8.9      0.000      0.000
REMARK  6 active torsions:
REMARK  status: ('A' for Active; 'I' for Inactive)
REMARK    1  A    between atoms: O_2  and  C_3 
REMARK    2  A    between atoms: C_3  and  C_4 
REMARK    3  A    between atoms: C_7  and  N_8 
REMARK       I    between atoms: N_8  and  C_9 
REMARK    4  A    between atoms: C_9  and  C_10 
REMARK    5  A    between atoms: C_10  and  O_11 
REMARK    6  A    between atoms: O_11  and  C_12 
ROOT
HETATM    1  C   UNL     1     -42.390  57.595 -53.746  1.00  0.00     0.278 C 
ENDROOT
BRANCH   1   2
HETATM    2  C   UNL     1     -43.475  57.217 -54.759  1.00  0.00     0.246 C 
HETATM    3  N   UNL     1     -43.124  57.546 -56.058  1.00  0.00    -0.325 N 
HETATM    4  H   UNL     1     -42.286  58.115 -56.144  1.00  0.00     0.169 HD
HETATM    5  O   UNL     1     -44.479  56.606 -54.402  1.00  0.00    -0.271 OA
BRANCH   3   6
HETATM    6  C   UNL     1     -43.772  57.171 -57.249  1.00  0.00     0.034 A 
HETATM    7  C   UNL     1     -44.871  57.846 -57.783  1.00  0.00     0.030 A 
HETATM    8  C   UNL     1     -45.505  57.378 -58.943  1.00  0.00     0.020 A 
HETATM    9  C   UNL     1     -45.042  56.223 -59.584  1.00  0.00     0.039 A 
HETATM   10  C   UNL     1     -43.925  55.558 -59.065  1.00  0.00     0.020 A 
HETATM   11  C   UNL     1     -43.295  56.031 -57.908  1.00  0.00     0.030 A 
BRANCH   9  12
HETATM   12  C   UNL     1     -45.704  55.661 -60.793  1.00  0.00     0.292 C 
HETATM   13  O   UNL     1     -45.099  55.100 -61.692  1.00  0.00    -0.259 OA
BRANCH  12  14
HETATM   14  O   UNL     1     -47.048  55.833 -60.724  1.00  0.00    -0.323 OA
HETATM   15  C   UNL     1     -47.603  56.535 -61.838  1.00  0.00     0.213 C 
ENDBRANCH  12  14
ENDBRANCH   9  12
ENDBRANCH   3   6
ENDBRANCH   1   2
BRANCH   1  16
HETATM   16  O   UNL     1     -41.108  57.150 -54.189  1.00  0.00    -0.342 OA
BRANCH  16  17
HETATM   17  C   UNL     1     -40.890  55.804 -54.031  1.00  0.00     0.071 A 
HETATM   18  C   UNL     1     -40.895  55.342 -52.710  1.00  0.00     0.067 A 
HETATM   19  C   UNL     1     -40.613  53.987 -52.488  1.00  0.00     0.046 A 
HETATM   20  C   UNL     1     -40.316  53.101 -53.522  1.00  0.00     0.003 A 
HETATM   21  N   UNL     1     -40.557  53.267 -51.316  1.00  0.00    -0.355 N 
HETATM   22  C   UNL     1     -40.311  53.589 -54.843  1.00  0.00     0.017 A 
HETATM   23  C   UNL     1     -40.050  51.824 -52.934  1.00  0.00     0.003 A 
HETATM   24  C   UNL     1     -40.593  54.941 -55.085  1.00  0.00     0.038 A 
HETATM   25  C   UNL     1     -40.208  51.959 -51.556  1.00  0.00     0.043 A 
HETATM   26  C   UNL     1     -39.680  50.565 -53.451  1.00  0.00     0.014 A 
HETATM   27  C   UNL     1     -40.016  50.895 -50.664  1.00  0.00     0.030 A 
HETATM   28  C   UNL     1     -39.646  49.658 -51.202  1.00  0.00     0.002 A 
HETATM   29  C   UNL     1     -39.478  49.493 -52.575  1.00  0.00     0.001 A 
HETATM   30  H   UNL     1     -40.734  53.651 -50.399  1.00  0.00     0.166 HD
ENDBRANCH  16  17
ENDBRANCH   1  16
TORSDOF 6
ENDMDL
MODEL 2
REMARK VINA RESULT:      -8.5      1.137      1.777
REMARK  6 active torsions:
REMARK  status: ('A' for Active; 'I' for Inactive)
REMARK    1  A    between atoms: O_2  and  C_3 
REMARK    2  A    between atoms: C_3  and  C_4 
REMARK    3  A    between atoms: C_7  and  N_8 
REMARK       I    between atoms: N_8  and  C_9 
REMARK    4  A    between atoms: C_9  and  C_10 
REMARK    5  A    between atoms: C_10  and  O_11 
REMARK    6  A    between atoms: O_11  and  C_12 
ROOT
HETATM    1  C   UNL     1     -41.510  58.011 -54.313  1.00  0.00     0.278 C 
ENDROOT
BRANCH   1   2
HETATM    2  C   UNL     1     -42.640  57.849 -55.334  1.00  0.00     0.246 C 
HETATM    3  N   UNL     1     -42.175  57.473 -56.583  1.00  0.00    -0.325 N 
HETATM    4  H   UNL     1     -41.165  57.503 -56.691  1.00  0.00     0.169 HD
HETATM    5  O   UNL     1     -43.815  57.964 -54.991  1.00  0.00    -0.271 OA
BRANCH   3   6
HETATM    6  C   UNL     1     -42.928  57.042 -57.691  1.00  0.00     0.034 A 
HETATM    7  C   UNL     1     -43.477  57.905 -58.642  1.00  0.00     0.030 A 
HETATM    8  C   UNL     1     -44.269  57.409 -59.687  1.00  0.00     0.020 A 
HETATM    9  C   UNL     1     -44.521  56.037 -59.792  1.00  0.00     0.039 A 
HETATM   10  C   UNL     1     -43.954  55.166 -58.854  1.00  0.00     0.020 A 
HETATM   11  C   UNL     1     -43.162  55.667 -57.814  1.00  0.00     0.030 A 
BRANCH   9  12
HETATM   12  C   UNL     1     -45.389  55.463 -60.857  1.00  0.00     0.292 C 
HETATM   13  O   UNL     1     -44.955  54.914 -61.856  1.00  0.00    -0.259 OA
BRANCH  12  14
HETATM   14  O   UNL     1     -46.699  55.611 -60.536  1.00  0.00    -0.323 OA
HETATM   15  C   UNL     1     -47.422  56.468 -61.420  1.00  0.00     0.213 C 
ENDBRANCH  12  14
ENDBRANCH   9  12
ENDBRANCH   3   6
ENDBRANCH   1   2
BRANCH   1  16
HETATM   16  O   UNL     1     -41.911  57.520 -53.033  1.00  0.00    -0.342 OA
BRANCH  16  17
HETATM   17  C   UNL     1     -41.426  56.273 -52.729  1.00  0.00     0.071 A 
HETATM   18  C   UNL     1     -41.216  55.423 -53.821  1.00  0.00     0.067 A 
HETATM   19  C   UNL     1     -40.784  54.115 -53.561  1.00  0.00     0.046 A 
HETATM   20  C   UNL     1     -40.576  53.634 -52.269  1.00  0.00     0.003 A 
HETATM   21  N   UNL     1     -40.494  53.082 -54.424  1.00  0.00    -0.355 N 
HETATM   22  C   UNL     1     -40.801  54.505 -51.185  1.00  0.00     0.017 A 
HETATM   23  C   UNL     1     -40.177  52.264 -52.377  1.00  0.00     0.003 A 
HETATM   24  C   UNL     1     -41.231  55.817 -51.426  1.00  0.00     0.038 A 
HETATM   25  C   UNL     1     -40.135  51.948 -53.734  1.00  0.00     0.043 A 
HETATM   26  C   UNL     1     -39.856  51.261 -51.440  1.00  0.00     0.014 A 
HETATM   27  C   UNL     1     -39.784  50.676 -54.204  1.00  0.00     0.030 A 
HETATM   28  C   UNL     1     -39.473  49.697 -53.254  1.00  0.00     0.002 A 
HETATM   29  C   UNL     1     -39.509  49.982 -51.891  1.00  0.00     0.001 A 
HETATM   30  H   UNL     1     -40.551  53.144 -55.430  1.00  0.00     0.166 HD
ENDBRANCH  16  17
ENDBRANCH   1  16
TORSDOF 6
ENDMDL
MODEL 3
REMARK VINA RESULT:      -8.3      4.205      7.235
REMARK  6 active torsions:
REMARK  status: ('A' for Active; 'I' for Inactive)
REMARK    1  A    between atoms: O_2  and  C_3 
REMARK    2  A    between atoms: C_3  and  C_4 
REMARK    3  A    between atoms: C_7  and  N_8 
REMARK       I    between atoms: N_8  and  C_9 
REMARK    4  A    between atoms: C_9  and  C_10 
REMARK    5  A    between atoms: C_10  and  O_11 
REMARK    6  A    between atoms: O_11  and  C_12 
ROOT
HETATM    1  C   UNL     1     -40.479  58.222 -53.209  1.00  0.00     0.278 C 
ENDROOT
BRANCH   1   2
HETATM    2  C   UNL     1     -41.042  58.993 -52.012  1.00  0.00     0.246 C 
HETATM    3  N   UNL     1     -42.274  59.566 -52.284  1.00  0.00    -0.325 N 
HETATM    4  H   UNL     1     -42.559  59.527 -53.259  1.00  0.00     0.169 HD
HETATM    5  O   UNL     1     -40.458  58.986 -50.931  1.00  0.00    -0.271 OA
BRANCH   3   6
HETATM    6  C   UNL     1     -43.167  60.165 -51.376  1.00  0.00     0.034 A 
HETATM    7  C   UNL     1     -42.887  61.333 -50.664  1.00  0.00     0.030 A 
HETATM    8  C   UNL     1     -43.801  61.838 -49.729  1.00  0.00     0.020 A 
HETATM    9  C   UNL     1     -45.012  61.176 -49.496  1.00  0.00     0.039 A 
HETATM   10  C   UNL     1     -45.306  60.018 -50.225  1.00  0.00     0.020 A 
HETATM   11  C   UNL     1     -44.391  59.519 -51.158  1.00  0.00     0.030 A 
BRANCH   9  12
HETATM   12  C   UNL     1     -45.998  61.647 -48.485  1.00  0.00     0.292 C 
HETATM   13  O   UNL     1     -46.550  62.734 -48.538  1.00  0.00    -0.259 OA
BRANCH  12  14
HETATM   14  O   UNL     1     -46.206  60.695 -47.542  1.00  0.00    -0.323 OA
HETATM   15  C   UNL     1     -45.363  60.816 -46.395  1.00  0.00     0.213 C 
ENDBRANCH  12  14
ENDBRANCH   9  12
ENDBRANCH   3   6
ENDBRANCH   1   2
BRANCH   1  16
HETATM   16  O   UNL     1     -41.508  57.470 -53.855  1.00  0.00    -0.342 OA
BRANCH  16  17
HETATM   17  C   UNL     1     -41.258  56.122 -53.932  1.00  0.00     0.071 A 
HETATM   18  C   UNL     1     -40.996  55.485 -52.713  1.00  0.00     0.067 A 
HETATM   19  C   UNL     1     -40.671  54.122 -52.743  1.00  0.00     0.046 A 
HETATM   20  C   UNL     1     -40.585  53.394 -53.928  1.00  0.00     0.003 A 
HETATM   21  N   UNL     1     -40.378  53.252 -51.717  1.00  0.00    -0.355 N 
HETATM   22  C   UNL     1     -40.846  54.057 -55.143  1.00  0.00     0.017 A 
HETATM   23  C   UNL     1     -40.202  52.058 -53.588  1.00  0.00     0.003 A 
HETATM   24  C   UNL     1     -41.175  55.420 -55.133  1.00  0.00     0.038 A 
HETATM   25  C   UNL     1     -40.080  52.000 -52.201  1.00  0.00     0.043 A 
HETATM   26  C   UNL     1     -39.938  50.894 -54.338  1.00  0.00     0.014 A 
HETATM   27  C   UNL     1     -39.709  50.832 -51.522  1.00  0.00     0.030 A 
HETATM   28  C   UNL     1     -39.450  49.691 -52.290  1.00  0.00     0.002 A 
HETATM   29  C   UNL     1     -39.561  49.719 -53.678  1.00  0.00     0.001 A 
HETATM   30  H   UNL     1     -40.369  53.503 -50.739  1.00  0.00     0.166 HD
ENDBRANCH  16  17
ENDBRANCH   1  16
TORSDOF 6
ENDMDL
MODEL 4
REMARK VINA RESULT:      -8.1      2.967      8.239
REMARK  6 active torsions:
REMARK  status: ('A' for Active; 'I' for Inactive)
REMARK    1  A    between atoms: O_2  and  C_3 
REMARK    2  A    between atoms: C_3  and  C_4 
REMARK    3  A    between atoms: C_7  and  N_8 
REMARK       I    between atoms: N_8  and  C_9 
REMARK    4  A    between atoms: C_9  and  C_10 
REMARK    5  A    between atoms: C_10  and  O_11 
REMARK    6  A    between atoms: O_11  and  C_12 
ROOT
HETATM    1  C   UNL     1     -41.886  59.572 -53.919  1.00  0.00     0.278 C 
ENDROOT
BRANCH   1   2
HETATM    2  C   UNL     1     -41.036  58.353 -53.550  1.00  0.00     0.246 C 
HETATM    3  N   UNL     1     -41.724  57.161 -53.707  1.00  0.00    -0.325 N 
HETATM    4  H   UNL     1     -42.718  57.262 -53.892  1.00  0.00     0.169 HD
HETATM    5  O   UNL     1     -39.852  58.483 -53.248  1.00  0.00    -0.271 OA
BRANCH   3   6
HETATM    6  C   UNL     1     -41.208  55.853 -53.659  1.00  0.00     0.034 A 
HETATM    7  C   UNL     1     -40.678  55.184 -54.764  1.00  0.00     0.030 A 
HETATM    8  C   UNL     1     -40.238  53.858 -54.656  1.00  0.00     0.020 A 
HETATM    9  C   UNL     1     -40.325  53.183 -53.434  1.00  0.00     0.039 A 
HETATM   10  C   UNL     1     -40.833  53.857 -52.318  1.00  0.00     0.020 A 
HETATM   11  C   UNL     1     -41.270  55.182 -52.431  1.00  0.00     0.030 A 
BRANCH   9  12
HETATM   12  C   UNL     1     -39.910  51.762 -53.275  1.00  0.00     0.292 C 
HETATM   13  O   UNL     1     -39.314  51.339 -52.298  1.00  0.00    -0.259 OA
BRANCH  12  14
HETATM   14  O   UNL     1     -40.318  51.024 -54.339  1.00  0.00    -0.323 OA
HETATM   15  C   UNL     1     -39.616  49.790 -54.496  1.00  0.00     0.213 C 
ENDBRANCH  12  14
ENDBRANCH   9  12
ENDBRANCH   3   6
ENDBRANCH   1   2
BRANCH   1  16
HETATM   16  O   UNL     1     -41.745  59.887 -55.305  1.00  0.00    -0.342 OA
BRANCH  16  17
HETATM   17  C   UNL     1     -42.650  59.256 -56.122  1.00  0.00     0.071 A 
HETATM   18  C   UNL     1     -42.146  58.183 -56.867  1.00  0.00     0.067 A 
HETATM   19  C   UNL     1     -43.012  57.545 -57.766  1.00  0.00     0.046 A 
HETATM   20  C   UNL     1     -44.333  57.948 -57.954  1.00  0.00     0.003 A 
HETATM   21  N   UNL     1     -42.796  56.478 -58.608  1.00  0.00    -0.355 N 
HETATM   22  C   UNL     1     -44.817  59.034 -57.197  1.00  0.00     0.017 A 
HETATM   23  C   UNL     1     -44.903  57.106 -58.959  1.00  0.00     0.003 A 
HETATM   24  C   UNL     1     -43.966  59.683 -56.292  1.00  0.00     0.038 A 
HETATM   25  C   UNL     1     -43.920  56.199 -59.349  1.00  0.00     0.043 A 
HETATM   26  C   UNL     1     -46.168  57.040 -59.580  1.00  0.00     0.014 A 
HETATM   27  C   UNL     1     -44.138  55.222 -60.331  1.00  0.00     0.030 A 
HETATM   28  C   UNL     1     -45.399  55.180 -60.934  1.00  0.00     0.002 A 
HETATM   29  C   UNL     1     -46.401  56.075 -60.567  1.00  0.00     0.001 A 
HETATM   30  H   UNL     1     -41.924  55.976 -58.684  1.00  0.00     0.166 HD
ENDBRANCH  16  17
ENDBRANCH   1  16
TORSDOF 6
ENDMDL
MODEL 5
REMARK VINA RESULT:      -8.0     14.852     18.689
REMARK  6 active torsions:
REMARK  status: ('A' for Active; 'I' for Inactive)
REMARK    1  A    between atoms: O_2  and  C_3 
REMARK    2  A    between atoms: C_3  and  C_4 
REMARK    3  A    between atoms: C_7  and  N_8 
REMARK       I    between atoms: N_8  and  C_9 
REMARK    4  A    between atoms: C_9  and  C_10 
REMARK    5  A    between atoms: C_10  and  O_11 
REMARK    6  A    between atoms: O_11  and  C_12 
ROOT
HETATM    1  C   UNL     1     -35.162  42.495 -55.467  1.00  0.00     0.278 C 
ENDROOT
BRANCH   1   2
HETATM    2  C   UNL     1     -35.167  42.033 -54.008  1.00  0.00     0.246 C 
HETATM    3  N   UNL     1     -34.202  41.071 -53.754  1.00  0.00    -0.325 N 
HETATM    4  H   UNL     1     -33.738  40.702 -54.579  1.00  0.00     0.169 HD
HETATM    5  O   UNL     1     -35.907  42.566 -53.184  1.00  0.00    -0.271 OA
BRANCH   3   6
HETATM    6  C   UNL     1     -33.787  40.573 -52.505  1.00  0.00     0.034 A 
HETATM    7  C   UNL     1     -34.664  40.171 -51.496  1.00  0.00     0.030 A 
HETATM    8  C   UNL     1     -34.178  39.743 -50.254  1.00  0.00     0.020 A 
HETATM    9  C   UNL     1     -32.801  39.712 -50.005  1.00  0.00     0.039 A 
HETATM   10  C   UNL     1     -31.918  40.092 -51.022  1.00  0.00     0.020 A 
HETATM   11  C   UNL     1     -32.408  40.517 -52.263  1.00  0.00     0.030 A 
BRANCH   9  12
HETATM   12  C   UNL     1     -32.235  39.306 -48.690  1.00  0.00     0.292 C 
HETATM   13  O   UNL     1     -32.850  38.648 -47.867  1.00  0.00    -0.259 OA
BRANCH  12  14
HETATM   14  O   UNL     1     -30.955  39.738 -48.568  1.00  0.00    -0.323 OA
HETATM   15  C   UNL     1     -30.464  39.736 -47.227  1.00  0.00     0.213 C 
ENDBRANCH  12  14
ENDBRANCH   9  12
ENDBRANCH   3   6
ENDBRANCH   1   2
BRANCH   1  16
HETATM   16  O   UNL     1     -36.494  42.726 -55.929  1.00  0.00    -0.342 OA
BRANCH  16  17
HETATM   17  C   UNL     1     -36.983  41.748 -56.757  1.00  0.00     0.071 A 
HETATM   18  C   UNL     1     -36.554  41.811 -58.088  1.00  0.00     0.067 A 
HETATM   19  C   UNL     1     -37.075  40.874 -58.991  1.00  0.00     0.046 A 
HETATM   20  C   UNL     1     -38.005  39.906 -58.617  1.00  0.00     0.003 A 
HETATM   21  N   UNL     1     -36.831  40.697 -60.334  1.00  0.00    -0.355 N 
HETATM   22  C   UNL     1     -38.428  39.864 -57.274  1.00  0.00     0.017 A 
HETATM   23  C   UNL     1     -38.339  39.153 -59.787  1.00  0.00     0.003 A 
HETATM   24  C   UNL     1     -37.916  40.792 -56.356  1.00  0.00     0.038 A 
HETATM   25  C   UNL     1     -37.591  39.670 -60.843  1.00  0.00     0.043 A 
HETATM   26  C   UNL     1     -39.219  38.082 -60.045  1.00  0.00     0.014 A 
HETATM   27  C   UNL     1     -37.675  39.167 -62.148  1.00  0.00     0.030 A 
HETATM   28  C   UNL     1     -38.557  38.107 -62.378  1.00  0.00     0.002 A 
HETATM   29  C   UNL     1     -39.320  37.571 -61.344  1.00  0.00     0.001 A 
HETATM   30  H   UNL     1     -36.190  41.257 -60.878  1.00  0.00     0.166 HD
ENDBRANCH  16  17
ENDBRANCH   1  16
TORSDOF 6
ENDMDL
MODEL 6
REMARK VINA RESULT:      -7.8      2.198      3.787
REMARK  6 active torsions:
REMARK  status: ('A' for Active; 'I' for Inactive)
REMARK    1  A    between atoms: O_2  and  C_3 
REMARK    2  A    between atoms: C_3  and  C_4 
REMARK    3  A    between atoms: C_7  and  N_8 
REMARK       I    between atoms: N_8  and  C_9 
REMARK    4  A    between atoms: C_9  and  C_10 
REMARK    5  A    between atoms: C_10  and  O_11 
REMARK    6  A    between atoms: O_11  and  C_12 
ROOT
HETATM    1  C   UNL     1     -42.876  55.847 -57.975  1.00  0.00     0.278 C 
ENDROOT
BRANCH   1   2
HETATM    2  C   UNL     1     -43.792  55.986 -59.194  1.00  0.00     0.246 C 
HETATM    3  N   UNL     1     -45.033  56.507 -58.867  1.00  0.00    -0.325 N 
HETATM    4  H   UNL     1     -45.216  56.582 -57.870  1.00  0.00     0.169 HD
HETATM    5  O   UNL     1     -43.377  55.732 -60.323  1.00  0.00    -0.271 OA
BRANCH   3   6
HETATM    6  C   UNL     1     -46.040  56.955 -59.742  1.00  0.00     0.034 A 
HETATM    7  C   UNL     1     -46.858  56.105 -60.489  1.00  0.00     0.030 A 
HETATM    8  C   UNL     1     -47.799  56.625 -61.388  1.00  0.00     0.020 A 
HETATM    9  C   UNL     1     -47.933  58.008 -61.550  1.00  0.00     0.039 A 
HETATM   10  C   UNL     1     -47.132  58.864 -60.786  1.00  0.00     0.020 A 
HETATM   11  C   UNL     1     -46.194  58.340 -59.888  1.00  0.00     0.030 A 
BRANCH   9  12
HETATM   12  C   UNL     1     -48.887  58.610 -62.521  1.00  0.00     0.292 C 
HETATM   13  O   UNL     1     -48.656  59.630 -63.149  1.00  0.00    -0.259 OA
BRANCH  12  14
HETATM   14  O   UNL     1     -50.007  57.850 -62.622  1.00  0.00    -0.323 OA
HETATM   15  C   UNL     1     -51.223  58.578 -62.442  1.00  0.00     0.213 C 
ENDBRANCH  12  14
ENDBRANCH   9  12
ENDBRANCH   3   6
ENDBRANCH   1   2
BRANCH   1  16
HETATM   16  O   UNL     1     -43.553  56.252 -56.785  1.00  0.00    -0.342 OA
BRANCH  16  17
HETATM   17  C   UNL     1     -43.032  55.723 -55.631  1.00  0.00     0.071 A 
HETATM   18  C   UNL     1     -42.113  54.682 -55.803  1.00  0.00     0.067 A 
HETATM   19  C   UNL     1     -41.600  54.063 -54.655  1.00  0.00     0.046 A 
HETATM   20  C   UNL     1     -41.982  54.431 -53.366  1.00  0.00     0.003 A 
HETATM   21  N   UNL     1     -40.692  53.037 -54.525  1.00  0.00    -0.355 N 
HETATM   22  C   UNL     1     -42.914  55.478 -53.216  1.00  0.00     0.017 A 
HETATM   23  C   UNL     1     -41.295  53.575 -52.450  1.00  0.00     0.003 A 
HETATM   24  C   UNL     1     -43.436  56.111 -54.353  1.00  0.00     0.038 A 
HETATM   25  C   UNL     1     -40.498  52.714 -53.202  1.00  0.00     0.043 A 
HETATM   26  C   UNL     1     -41.287  53.448 -51.045  1.00  0.00     0.014 A 
HETATM   27  C   UNL     1     -39.687  51.731 -52.620  1.00  0.00     0.030 A 
HETATM   28  C   UNL     1     -39.699  51.623 -51.225  1.00  0.00     0.002 A 
HETATM   29  C   UNL     1     -40.488  52.467 -50.447  1.00  0.00     0.001 A 
HETATM   30  H   UNL     1     -40.239  52.571 -55.297  1.00  0.00     0.166 HD
ENDBRANCH  16  17
ENDBRANCH   1  16
TORSDOF 6
ENDMDL
MODEL 7
REMARK VINA RESULT:      -7.7      2.669     10.223
REMARK  6 active torsions:
REMARK  status: ('A' for Active; 'I' for Inactive)
REMARK    1  A    between atoms: O_2  and  C_3 
REMARK    2  A    between atoms: C_3  and  C_4 
REMARK    3  A    between atoms: C_7  and  N_8 
REMARK       I    between atoms: N_8  and  C_9 
REMARK    4  A    between atoms: C_9  and  C_10 
REMARK    5  A    between atoms: C_10  and  O_11 
REMARK    6  A    between atoms: O_11  and  C_12 
ROOT
HETATM    1  C   UNL     1     -42.740  56.386 -56.883  1.00  0.00     0.278 C 
ENDROOT
BRANCH   1   2
HETATM    2  C   UNL     1     -42.671  55.281 -55.824  1.00  0.00     0.246 C 
HETATM    3  N   UNL     1     -41.369  54.971 -55.468  1.00  0.00    -0.325 N 
HETATM    4  H   UNL     1     -40.652  55.398 -56.049  1.00  0.00     0.169 HD
HETATM    5  O   UNL     1     -43.697  54.830 -55.322  1.00  0.00    -0.271 OA
BRANCH   3   6
HETATM    6  C   UNL     1     -40.935  54.165 -54.399  1.00  0.00     0.034 A 
HETATM    7  C   UNL     1     -40.360  52.903 -54.559  1.00  0.00     0.030 A 
HETATM    8  C   UNL     1     -40.007  52.130 -53.444  1.00  0.00     0.020 A 
HETATM    9  C   UNL     1     -40.228  52.614 -52.150  1.00  0.00     0.039 A 
HETATM   10  C   UNL     1     -40.783  53.888 -51.985  1.00  0.00     0.020 A 
HETATM   11  C   UNL     1     -41.132  54.657 -53.102  1.00  0.00     0.030 A 
BRANCH   9  12
HETATM   12  C   UNL     1     -39.911  51.817 -50.934  1.00  0.00     0.292 C 
HETATM   13  O   UNL     1     -40.314  52.102 -49.818  1.00  0.00    -0.259 OA
BRANCH  12  14
HETATM   14  O   UNL     1     -39.156  50.736 -51.255  1.00  0.00    -0.323 OA
HETATM   15  C   UNL     1     -39.845  49.490 -51.141  1.00  0.00     0.213 C 
ENDBRANCH  12  14
ENDBRANCH   9  12
ENDBRANCH   3   6
ENDBRANCH   1   2
BRANCH   1  16
HETATM   16  O   UNL     1     -42.593  55.839 -58.194  1.00  0.00    -0.342 OA
BRANCH  16  17
HETATM   17  C   UNL     1     -43.685  56.017 -59.006  1.00  0.00     0.071 A 
HETATM   18  C   UNL     1     -44.195  57.319 -59.058  1.00  0.00     0.067 A 
HETATM   19  C   UNL     1     -45.350  57.541 -59.821  1.00  0.00     0.046 A 
HETATM   20  C   UNL     1     -46.008  56.521 -60.506  1.00  0.00     0.003 A 
HETATM   21  N   UNL     1     -46.056  58.700 -60.055  1.00  0.00    -0.355 N 
HETATM   22  C   UNL     1     -45.480  55.217 -60.434  1.00  0.00     0.017 A 
HETATM   23  C   UNL     1     -47.153  57.096 -61.141  1.00  0.00     0.003 A 
HETATM   24  C   UNL     1     -44.325  54.976 -59.678  1.00  0.00     0.038 A 
HETATM   25  C   UNL     1     -47.157  58.457 -60.842  1.00  0.00     0.043 A 
HETATM   26  C   UNL     1     -48.194  56.577 -61.939  1.00  0.00     0.014 A 
HETATM   27  C   UNL     1     -48.151  59.330 -61.303  1.00  0.00     0.030 A 
HETATM   28  C   UNL     1     -49.174  58.790 -62.089  1.00  0.00     0.002 A 
HETATM   29  C   UNL     1     -49.199  57.434 -62.403  1.00  0.00     0.001 A 
HETATM   30  H   UNL     1     -45.807  59.606 -59.687  1.00  0.00     0.166 HD
ENDBRANCH  16  17
ENDBRANCH   1  16
TORSDOF 6
ENDMDL
MODEL 8
REMARK VINA RESULT:      -7.5     14.465     17.531
REMARK  6 active torsions:
REMARK  status: ('A' for Active; 'I' for Inactive)
REMARK    1  A    between atoms: O_2  and  C_3 
REMARK    2  A    between atoms: C_3  and  C_4 
REMARK    3  A    between atoms: C_7  and  N_8 
REMARK       I    between atoms: N_8  and  C_9 
REMARK    4  A    between atoms: C_9  and  C_10 
REMARK    5  A    between atoms: C_10  and  O_11 
REMARK    6  A    between atoms: O_11  and  C_12 
ROOT
HETATM    1  C   UNL     1     -33.918  40.876 -51.781  1.00  0.00     0.278 C 
ENDROOT
BRANCH   1   2
HETATM    2  C   UNL     1     -34.944  40.734 -52.908  1.00  0.00     0.246 C 
HETATM    3  N   UNL     1     -34.848  41.751 -53.843  1.00  0.00    -0.325 N 
HETATM    4  H   UNL     1     -34.230  42.515 -53.582  1.00  0.00     0.169 HD
HETATM    5  O   UNL     1     -35.679  39.751 -52.966  1.00  0.00    -0.271 OA
BRANCH   3   6
HETATM    6  C   UNL     1     -35.480  41.835 -55.098  1.00  0.00     0.034 A 
HETATM    7  C   UNL     1     -36.841  42.096 -55.268  1.00  0.00     0.030 A 
HETATM    8  C   UNL     1     -37.414  42.103 -56.547  1.00  0.00     0.020 A 
HETATM    9  C   UNL     1     -36.628  41.847 -57.675  1.00  0.00     0.039 A 
HETATM   10  C   UNL     1     -35.259  41.608 -57.511  1.00  0.00     0.020 A 
HETATM   11  C   UNL     1     -34.691  41.604 -56.231  1.00  0.00     0.030 A 
BRANCH   9  12
HETATM   12  C   UNL     1     -37.195  41.801 -59.051  1.00  0.00     0.292 C 
HETATM   13  O   UNL     1     -37.167  42.746 -59.823  1.00  0.00    -0.259 OA
BRANCH  12  14
HETATM   14  O   UNL     1     -37.702  40.571 -59.317  1.00  0.00    -0.323 OA
HETATM   15  C   UNL     1     -37.415  40.095 -60.633  1.00  0.00     0.213 C 
ENDBRANCH  12  14
ENDBRANCH   9  12
ENDBRANCH   3   6
ENDBRANCH   1   2
BRANCH   1  16
HETATM   16  O   UNL     1     -33.243  39.638 -51.553  1.00  0.00    -0.342 OA
BRANCH  16  17
HETATM   17  C   UNL     1     -33.023  39.350 -50.229  1.00  0.00     0.071 A 
HETATM   18  C   UNL     1     -31.925  39.991 -49.644  1.00  0.00     0.067 A 
HETATM   19  C   UNL     1     -31.618  39.682 -48.312  1.00  0.00     0.046 A 
HETATM   20  C   UNL     1     -32.347  38.758 -47.566  1.00  0.00     0.003 A 
HETATM   21  N   UNL     1     -30.618  40.156 -47.494  1.00  0.00    -0.355 N 
HETATM   22  C   UNL     1     -33.445  38.119 -48.177  1.00  0.00     0.017 A 
HETATM   23  C   UNL     1     -31.738  38.667 -46.275  1.00  0.00     0.003 A 
HETATM   24  C   UNL     1     -33.769  38.418 -49.508  1.00  0.00     0.038 A 
HETATM   25  C   UNL     1     -30.661  39.551 -46.260  1.00  0.00     0.043 A 
HETATM   26  C   UNL     1     -32.002  37.904 -45.119  1.00  0.00     0.014 A 
HETATM   27  C   UNL     1     -29.832  39.714 -45.142  1.00  0.00     0.030 A 
HETATM   28  C   UNL     1     -30.113  38.944 -44.009  1.00  0.00     0.002 A 
HETATM   29  C   UNL     1     -31.181  38.050 -43.995  1.00  0.00     0.001 A 
HETATM   30  H   UNL     1     -29.934  40.846 -47.766  1.00  0.00     0.166 HD
ENDBRANCH  16  17
ENDBRANCH   1  16
TORSDOF 6
ENDMDL
MODEL 9
REMARK VINA RESULT:      -7.4      2.582      3.305
REMARK  6 active torsions:
REMARK  status: ('A' for Active; 'I' for Inactive)
REMARK    1  A    between atoms: O_2  and  C_3 
REMARK    2  A    between atoms: C_3  and  C_4 
REMARK    3  A    between atoms: C_7  and  N_8 
REMARK       I    between atoms: N_8  and  C_9 
REMARK    4  A    between atoms: C_9  and  C_10 
REMARK    5  A    between atoms: C_10  and  O_11 
REMARK    6  A    between atoms: O_11  and  C_12 
ROOT
HETATM    1  C   UNL     1     -43.179  57.381 -52.093  1.00  0.00     0.278 C 
ENDROOT
BRANCH   1   2
HETATM    2  C   UNL     1     -43.634  57.876 -53.469  1.00  0.00     0.246 C 
HETATM    3  N   UNL     1     -42.591  58.400 -54.214  1.00  0.00    -0.325 N 
HETATM    4  H   UNL     1     -41.720  58.522 -53.706  1.00  0.00     0.169 HD
HETATM    5  O   UNL     1     -44.793  57.710 -53.842  1.00  0.00    -0.271 OA
BRANCH   3   6
HETATM    6  C   UNL     1     -42.597  58.756 -55.576  1.00  0.00     0.034 A 
HETATM    7  C   UNL     1     -42.904  60.035 -56.045  1.00  0.00     0.030 A 
HETATM    8  C   UNL     1     -42.950  60.301 -57.421  1.00  0.00     0.020 A 
HETATM    9  C   UNL     1     -42.688  59.285 -58.346  1.00  0.00     0.039 A 
HETATM   10  C   UNL     1     -42.356  58.008 -57.879  1.00  0.00     0.020 A 
HETATM   11  C   UNL     1     -42.310  57.748 -56.504  1.00  0.00     0.030 A 
BRANCH   9  12
HETATM   12  C   UNL     1     -42.764  59.505 -59.816  1.00  0.00     0.292 C 
HETATM   13  O   UNL     1     -43.536  58.907 -60.548  1.00  0.00    -0.259 OA
BRANCH  12  14
HETATM   14  O   UNL     1     -41.891  60.470 -60.200  1.00  0.00    -0.323 OA
HETATM   15  C   UNL     1     -41.903  60.743 -61.602  1.00  0.00     0.213 C 
ENDBRANCH  12  14
ENDBRANCH   9  12
ENDBRANCH   3   6
ENDBRANCH   1   2
BRANCH   1  16
HETATM   16  O   UNL     1     -41.754  57.294 -52.034  1.00  0.00    -0.342 OA
BRANCH  16  17
HETATM   17  C   UNL     1     -41.269  56.013 -51.949  1.00  0.00     0.071 A 
HETATM   18  C   UNL     1     -41.192  55.314 -53.159  1.00  0.00     0.067 A 
HETATM   19  C   UNL     1     -40.765  53.979 -53.119  1.00  0.00     0.046 A 
HETATM   20  C   UNL     1     -40.436  53.329 -51.931  1.00  0.00     0.003 A 
HETATM   21  N   UNL     1     -40.589  53.068 -54.136  1.00  0.00    -0.355 N 
HETATM   22  C   UNL     1     -40.528  54.050 -50.724  1.00  0.00     0.017 A 
HETATM   23  C   UNL     1     -40.082  51.982 -52.259  1.00  0.00     0.003 A 
HETATM   24  C   UNL     1     -40.951  55.386 -50.744  1.00  0.00     0.038 A 
HETATM   25  C   UNL     1     -40.187  51.849 -53.642  1.00  0.00     0.043 A 
HETATM   26  C   UNL     1     -39.688  50.861 -51.501  1.00  0.00     0.014 A 
HETATM   27  C   UNL     1     -39.915  50.647 -54.309  1.00  0.00     0.030 A 
HETATM   28  C   UNL     1     -39.530  49.548 -53.534  1.00  0.00     0.002 A 
HETATM   29  C   UNL     1     -39.419  49.650 -52.150  1.00  0.00     0.001 A 
HETATM   30  H   UNL     1     -40.749  53.263 -55.113  1.00  0.00     0.166 HD
ENDBRANCH  16  17
ENDBRANCH   1  16
TORSDOF 6
ENDMDL
MODEL 10
REMARK VINA RESULT:      -7.3      4.185      6.530
REMARK  6 active torsions:
REMARK  status: ('A' for Active; 'I' for Inactive)
REMARK    1  A    between atoms: O_2  and  C_3 
REMARK    2  A    between atoms: C_3  and  C_4 
REMARK    3  A    between atoms: C_7  and  N_8 
REMARK       I    between atoms: N_8  and  C_9 
REMARK    4  A    between atoms: C_9  and  C_10 
REMARK    5  A    between atoms: C_10  and  O_11 
REMARK    6  A    between atoms: O_11  and  C_12 
ROOT
HETATM    1  C   UNL     1     -41.651  58.187 -54.180  1.00  0.00     0.278 C 
ENDROOT
BRANCH   1   2
HETATM    2  C   UNL     1     -42.829  59.131 -53.922  1.00  0.00     0.246 C 
HETATM    3  N   UNL     1     -43.349  58.991 -52.646  1.00  0.00    -0.325 N 
HETATM    4  H   UNL     1     -42.989  58.199 -52.121  1.00  0.00     0.169 HD
HETATM    5  O   UNL     1     -43.163  59.960 -54.765  1.00  0.00    -0.271 OA
BRANCH   3   6
HETATM    6  C   UNL     1     -44.286  59.819 -52.000  1.00  0.00     0.034 A 
HETATM    7  C   UNL     1     -45.634  59.894 -52.355  1.00  0.00     0.030 A 
HETATM    8  C   UNL     1     -46.497  60.788 -51.706  1.00  0.00     0.020 A 
HETATM    9  C   UNL     1     -46.017  61.621 -50.690  1.00  0.00     0.039 A 
HETATM   10  C   UNL     1     -44.672  61.531 -50.314  1.00  0.00     0.020 A 
HETATM   11  C   UNL     1     -43.815  60.635 -50.964  1.00  0.00     0.030 A 
BRANCH   9  12
HETATM   12  C   UNL     1     -46.881  62.616 -49.998  1.00  0.00     0.292 C 
HETATM   13  O   UNL     1     -47.010  62.670 -48.786  1.00  0.00    -0.259 OA
BRANCH  12  14
HETATM   14  O   UNL     1     -47.459  63.453 -50.897  1.00  0.00    -0.323 OA
HETATM   15  C   UNL     1     -46.615  64.524 -51.322  1.00  0.00     0.213 C 
ENDBRANCH  12  14
ENDBRANCH   9  12
ENDBRANCH   3   6
ENDBRANCH   1   2
BRANCH   1  16
HETATM   16  O   UNL     1     -41.372  57.398 -53.022  1.00  0.00    -0.342 OA
BRANCH  16  17
HETATM   17  C   UNL     1     -41.158  56.068 -53.283  1.00  0.00     0.071 A 
HETATM   18  C   UNL     1     -40.849  55.275 -52.172  1.00  0.00     0.067 A 
HETATM   19  C   UNL     1     -40.557  53.922 -52.392  1.00  0.00     0.046 A 
HETATM   20  C   UNL     1     -40.546  53.351 -53.663  1.00  0.00     0.003 A 
HETATM   21  N   UNL     1     -40.233  52.923 -51.502  1.00  0.00    -0.355 N 
HETATM   22  C   UNL     1     -40.853  54.169 -54.768  1.00  0.00     0.017 A 
HETATM   23  C   UNL     1     -40.177  51.977 -53.516  1.00  0.00     0.003 A 
HETATM   24  C   UNL     1     -41.150  55.524 -54.567  1.00  0.00     0.038 A 
HETATM   25  C   UNL     1     -39.987  51.739 -52.156  1.00  0.00     0.043 A 
HETATM   26  C   UNL     1     -39.977  50.914 -54.422  1.00  0.00     0.014 A 
HETATM   27  C   UNL     1     -39.610  50.487 -51.652  1.00  0.00     0.030 A 
HETATM   28  C   UNL     1     -39.416  49.451 -52.571  1.00  0.00     0.002 A 
HETATM   29  C   UNL     1     -39.594  49.659 -53.936  1.00  0.00     0.001 A 
HETATM   30  H   UNL     1     -40.170  53.046 -50.501  1.00  0.00     0.166 HD
ENDBRANCH  16  17
ENDBRANCH   1  16
TORSDOF 6
ENDMDL
