MODEL 1
REMARK VINA RESULT:      -7.4      0.000      0.000
REMARK  7 active torsions:
REMARK  status: ('A' for Active; 'I' for Inactive)
REMARK    1  A    between atoms: C_2  and  N_3 
REMARK    2  A    between atoms: N_3  and  C_4 
REMARK    3  A    between atoms: C_6  and  N_7 
REMARK    4  A    between atoms: N_7  and  C_8 
REMARK    5  A    between atoms: C_8  and  C_9 
REMARK    6  A    between atoms: C_9  and  C_10 
REMARK    7  A    between atoms: C_11  and  O_12 
ROOT
HETATM    1  C   UNL     1     -40.671  53.543 -53.201  1.00  0.00     0.119 A 
HETATM    2  N   UNL     1     -40.566  54.295 -52.088  1.00  0.00    -0.207 NA
HETATM    3  C   UNL     1     -40.129  53.703 -50.971  1.00  0.00     0.181 A 
HETATM    4  N   UNL     1     -39.813  52.415 -50.905  1.00  0.00    -0.330 N 
HETATM    5  H   UNL     1     -39.564  52.046 -49.997  1.00  0.00     0.168 HD
HETATM    6  C   UNL     1     -39.861  51.632 -51.987  1.00  0.00     0.048 A 
HETATM    7  C   UNL     1     -40.292  52.182 -53.211  1.00  0.00     0.031 A 
HETATM    8  C   UNL     1     -39.485  50.283 -51.897  1.00  0.00     0.030 A 
HETATM    9  C   UNL     1     -39.519  49.470 -53.029  1.00  0.00     0.002 A 
HETATM   10  C   UNL     1     -39.924  49.997 -54.251  1.00  0.00     0.001 A 
HETATM   11  C   UNL     1     -40.306  51.338 -54.345  1.00  0.00     0.017 A 
ENDROOT
BRANCH   3  12
HETATM   12  N   UNL     1     -40.096  54.464 -49.819  1.00  0.00    -0.262 NA
HETATM   13  H   UNL     1     -39.847  53.818 -49.062  1.00  0.00     0.130 HD
BRANCH  12  14
HETATM   14  C   UNL     1     -41.259  55.292 -49.487  1.00  0.00     0.100 C 
BRANCH  14  15
HETATM   15  C   UNL     1     -41.174  56.694 -50.107  1.00  0.00     0.056 C 
BRANCH  15  16
HETATM   16  C   UNL     1     -42.290  57.161 -51.024  1.00  0.00    -0.024 A 
HETATM   17  C   UNL     1     -42.044  58.264 -51.874  1.00  0.00     0.074 A 
HETATM   18  C   UNL     1     -43.038  58.713 -52.748  1.00  0.00     0.037 A 
HETATM   19  C   UNL     1     -44.285  58.088 -52.778  1.00  0.00     0.003 A 
HETATM   20  C   UNL     1     -44.546  57.017 -51.931  1.00  0.00     0.001 A 
HETATM   21  C   UNL     1     -43.558  56.559 -51.057  1.00  0.00     0.010 A 
BRANCH  17  22
HETATM   22  O   UNL     1     -40.792  58.820 -51.773  1.00  0.00    -0.355 OA
HETATM   23  C   UNL     1     -39.989  58.829 -52.949  1.00  0.00     0.210 C 
ENDBRANCH  17  22
ENDBRANCH  15  16
ENDBRANCH  14  15
ENDBRANCH  12  14
ENDBRANCH   3  12
BRANCH   1  24
HETATM   24  N   UNL     1     -41.114  54.144 -54.382  1.00  0.00    -0.273 NA
HETATM   25  H   UNL     1     -41.332  53.454 -55.098  1.00  0.00     0.129 HD
BRANCH  24  26
HETATM   26  C   UNL     1     -42.152  55.181 -54.307  1.00  0.00     0.053 C 
HETATM   27  C   UNL     1     -43.520  54.610 -54.679  1.00  0.00     0.026 C 
HETATM   28  C   UNL     1     -41.772  56.296 -55.282  1.00  0.00     0.026 C 
ENDBRANCH  24  26
ENDBRANCH   1  24
TORSDOF 7
ENDMDL
MODEL 2
REMARK VINA RESULT:      -7.4      1.167      3.299
REMARK  7 active torsions:
REMARK  status: ('A' for Active; 'I' for Inactive)
REMARK    1  A    between atoms: C_2  and  N_3 
REMARK    2  A    between atoms: N_3  and  C_4 
REMARK    3  A    between atoms: C_6  and  N_7 
REMARK    4  A    between atoms: N_7  and  C_8 
REMARK    5  A    between atoms: C_8  and  C_9 
REMARK    6  A    between atoms: C_9  and  C_10 
REMARK    7  A    between atoms: C_11  and  O_12 
ROOT
HETATM    1  C   UNL     1     -40.298  53.533 -52.238  1.00  0.00     0.119 A 
HETATM    2  N   UNL     1     -40.574  54.378 -53.250  1.00  0.00    -0.207 NA
HETATM    3  C   UNL     1     -40.554  53.891 -54.496  1.00  0.00     0.181 A 
HETATM    4  N   UNL     1     -40.262  52.627 -54.779  1.00  0.00    -0.330 N 
HETATM    5  H   UNL     1     -40.201  52.375 -55.757  1.00  0.00     0.168 HD
HETATM    6  C   UNL     1     -40.019  51.738 -53.812  1.00  0.00     0.048 A 
HETATM    7  C   UNL     1     -40.040  52.164 -52.470  1.00  0.00     0.031 A 
HETATM    8  C   UNL     1     -39.749  50.399 -54.139  1.00  0.00     0.030 A 
HETATM    9  C   UNL     1     -39.513  49.467 -53.130  1.00  0.00     0.002 A 
HETATM   10  C   UNL     1     -39.545  49.863 -51.796  1.00  0.00     0.001 A 
HETATM   11  C   UNL     1     -39.806  51.195 -51.466  1.00  0.00     0.017 A 
ENDROOT
BRANCH   3  12
HETATM   12  N   UNL     1     -40.765  54.781 -55.530  1.00  0.00    -0.262 NA
HETATM   13  H   UNL     1     -40.076  55.530 -55.403  1.00  0.00     0.130 HD
BRANCH  12  14
HETATM   14  C   UNL     1     -42.118  55.300 -55.749  1.00  0.00     0.100 C 
BRANCH  14  15
HETATM   15  C   UNL     1     -42.239  56.788 -55.388  1.00  0.00     0.056 C 
BRANCH  15  16
HETATM   16  C   UNL     1     -42.793  57.173 -54.028  1.00  0.00    -0.024 A 
HETATM   17  C   UNL     1     -41.915  57.758 -53.087  1.00  0.00     0.074 A 
HETATM   18  C   UNL     1     -42.389  58.145 -51.829  1.00  0.00     0.037 A 
HETATM   19  C   UNL     1     -43.726  57.942 -51.488  1.00  0.00     0.003 A 
HETATM   20  C   UNL     1     -44.593  57.347 -52.397  1.00  0.00     0.001 A 
HETATM   21  C   UNL     1     -44.130  56.961 -53.656  1.00  0.00     0.010 A 
BRANCH  17  22
HETATM   22  O   UNL     1     -40.616  57.913 -53.506  1.00  0.00    -0.355 OA
HETATM   23  C   UNL     1     -39.813  58.849 -52.795  1.00  0.00     0.210 C 
ENDBRANCH  17  22
ENDBRANCH  15  16
ENDBRANCH  14  15
ENDBRANCH  12  14
ENDBRANCH   3  12
BRANCH   1  24
HETATM   24  N   UNL     1     -40.324  54.018 -50.927  1.00  0.00    -0.273 NA
HETATM   25  H   UNL     1     -39.408  54.344 -50.627  1.00  0.00     0.129 HD
BRANCH  24  26
HETATM   26  C   UNL     1     -41.382  54.962 -50.540  1.00  0.00     0.053 C 
HETATM   27  C   UNL     1     -41.258  55.340 -49.064  1.00  0.00     0.026 C 
HETATM   28  C   UNL     1     -42.730  54.285 -50.792  1.00  0.00     0.026 C 
ENDBRANCH  24  26
ENDBRANCH   1  24
TORSDOF 7
ENDMDL
MODEL 3
REMARK VINA RESULT:      -7.4      3.149      5.546
REMARK  7 active torsions:
REMARK  status: ('A' for Active; 'I' for Inactive)
REMARK    1  A    between atoms: C_2  and  N_3 
REMARK    2  A    between atoms: N_3  and  C_4 
REMARK    3  A    between atoms: C_6  and  N_7 
REMARK    4  A    between atoms: N_7  and  C_8 
REMARK    5  A    between atoms: C_8  and  C_9 
REMARK    6  A    between atoms: C_9  and  C_10 
REMARK    7  A    between atoms: C_11  and  O_12 
ROOT
HETATM    1  C   UNL     1     -40.313  53.572 -52.340  1.00  0.00     0.119 A 
HETATM    2  N   UNL     1     -40.611  54.363 -53.389  1.00  0.00    -0.207 NA
HETATM    3  C   UNL     1     -40.607  53.814 -54.609  1.00  0.00     0.181 A 
HETATM    4  N   UNL     1     -40.309  52.539 -54.833  1.00  0.00    -0.330 N 
HETATM    5  H   UNL     1     -40.260  52.239 -55.797  1.00  0.00     0.168 HD
HETATM    6  C   UNL     1     -40.043  51.701 -53.826  1.00  0.00     0.048 A 
HETATM    7  C   UNL     1     -40.047  52.194 -52.507  1.00  0.00     0.031 A 
HETATM    8  C   UNL     1     -39.767  50.351 -54.090  1.00  0.00     0.030 A 
HETATM    9  C   UNL     1     -39.508  49.472 -53.039  1.00  0.00     0.002 A 
HETATM   10  C   UNL     1     -39.524  49.934 -51.727  1.00  0.00     0.001 A 
HETATM   11  C   UNL     1     -39.791  51.279 -51.459  1.00  0.00     0.017 A 
ENDROOT
BRANCH   3  12
HETATM   12  N   UNL     1     -40.841  54.649 -55.683  1.00  0.00    -0.262 NA
HETATM   13  H   UNL     1     -39.965  55.158 -55.840  1.00  0.00     0.130 HD
BRANCH  12  14
HETATM   14  C   UNL     1     -42.004  55.540 -55.643  1.00  0.00     0.100 C 
BRANCH  14  15
HETATM   15  C   UNL     1     -42.895  55.394 -56.886  1.00  0.00     0.056 C 
BRANCH  15  16
HETATM   16  C   UNL     1     -42.831  56.458 -57.966  1.00  0.00    -0.024 A 
HETATM   17  C   UNL     1     -43.301  56.133 -59.258  1.00  0.00     0.074 A 
HETATM   18  C   UNL     1     -43.278  57.091 -60.277  1.00  0.00     0.037 A 
HETATM   19  C   UNL     1     -42.777  58.369 -60.030  1.00  0.00     0.003 A 
HETATM   20  C   UNL     1     -42.290  58.693 -58.769  1.00  0.00     0.001 A 
HETATM   21  C   UNL     1     -42.313  57.745 -57.745  1.00  0.00     0.010 A 
BRANCH  17  22
HETATM   22  O   UNL     1     -43.771  54.851 -59.412  1.00  0.00    -0.355 OA
HETATM   23  C   UNL     1     -45.015  54.692 -60.085  1.00  0.00     0.210 C 
ENDBRANCH  17  22
ENDBRANCH  15  16
ENDBRANCH  14  15
ENDBRANCH  12  14
ENDBRANCH   3  12
BRANCH   1  24
HETATM   24  N   UNL     1     -40.324  54.121 -51.055  1.00  0.00    -0.273 NA
HETATM   25  H   UNL     1     -39.425  54.531 -50.812  1.00  0.00     0.129 HD
BRANCH  24  26
HETATM   26  C   UNL     1     -41.435  55.002 -50.668  1.00  0.00     0.053 C 
HETATM   27  C   UNL     1     -41.261  55.498 -49.232  1.00  0.00     0.026 C 
HETATM   28  C   UNL     1     -42.732  54.201 -50.787  1.00  0.00     0.026 C 
ENDBRANCH  24  26
ENDBRANCH   1  24
TORSDOF 7
ENDMDL
MODEL 4
REMARK VINA RESULT:      -7.4      1.930      6.349
REMARK  7 active torsions:
REMARK  status: ('A' for Active; 'I' for Inactive)
REMARK    1  A    between atoms: C_2  and  N_3 
REMARK    2  A    between atoms: N_3  and  C_4 
REMARK    3  A    between atoms: C_6  and  N_7 
REMARK    4  A    between atoms: N_7  and  C_8 
REMARK    5  A    between atoms: C_8  and  C_9 
REMARK    6  A    between atoms: C_9  and  C_10 
REMARK    7  A    between atoms: C_11  and  O_12 
ROOT
HETATM    1  C   UNL     1     -42.969  56.446 -51.647  1.00  0.00     0.119 A 
HETATM    2  N   UNL     1     -42.460  55.403 -50.966  1.00  0.00    -0.207 NA
HETATM    3  C   UNL     1     -41.505  55.651 -50.061  1.00  0.00     0.181 A 
HETATM    4  N   UNL     1     -41.030  56.867 -49.819  1.00  0.00    -0.330 N 
HETATM    5  H   UNL     1     -40.257  56.940 -49.171  1.00  0.00     0.168 HD
HETATM    6  C   UNL     1     -41.526  57.942 -50.439  1.00  0.00     0.048 A 
HETATM    7  C   UNL     1     -42.549  57.771 -51.392  1.00  0.00     0.031 A 
HETATM    8  C   UNL     1     -41.029  59.219 -50.136  1.00  0.00     0.030 A 
HETATM    9  C   UNL     1     -41.558  60.343 -50.768  1.00  0.00     0.002 A 
HETATM   10  C   UNL     1     -42.581  60.199 -51.701  1.00  0.00     0.001 A 
HETATM   11  C   UNL     1     -43.074  58.929 -52.011  1.00  0.00     0.017 A 
ENDROOT
BRANCH   3  12
HETATM   12  N   UNL     1     -40.938  54.566 -49.422  1.00  0.00    -0.262 NA
HETATM   13  H   UNL     1     -39.993  54.860 -49.152  1.00  0.00     0.130 HD
BRANCH  12  14
HETATM   14  C   UNL     1     -40.946  53.266 -50.098  1.00  0.00     0.100 C 
BRANCH  14  15
HETATM   15  C   UNL     1     -39.767  53.104 -51.069  1.00  0.00     0.056 C 
BRANCH  15  16
HETATM   16  C   UNL     1     -39.806  51.984 -52.093  1.00  0.00    -0.024 A 
HETATM   17  C   UNL     1     -40.093  52.312 -53.437  1.00  0.00     0.074 A 
HETATM   18  C   UNL     1     -40.118  51.312 -54.415  1.00  0.00     0.037 A 
HETATM   19  C   UNL     1     -39.878  49.983 -54.069  1.00  0.00     0.003 A 
HETATM   20  C   UNL     1     -39.617  49.645 -52.746  1.00  0.00     0.001 A 
HETATM   21  C   UNL     1     -39.585  50.636 -51.763  1.00  0.00     0.010 A 
BRANCH  17  22
HETATM   22  O   UNL     1     -40.322  53.643 -53.685  1.00  0.00    -0.355 OA
HETATM   23  C   UNL     1     -40.160  54.091 -55.027  1.00  0.00     0.210 C 
ENDBRANCH  17  22
ENDBRANCH  15  16
ENDBRANCH  14  15
ENDBRANCH  12  14
ENDBRANCH   3  12
BRANCH   1  24
HETATM   24  N   UNL     1     -43.975  56.212 -52.588  1.00  0.00    -0.273 NA
HETATM   25  H   UNL     1     -44.765  56.842 -52.462  1.00  0.00     0.129 HD
BRANCH  24  26
HETATM   26  C   UNL     1     -43.609  56.093 -54.007  1.00  0.00     0.053 C 
HETATM   27  C   UNL     1     -44.523  56.953 -54.879  1.00  0.00     0.026 C 
HETATM   28  C   UNL     1     -43.746  54.622 -54.404  1.00  0.00     0.026 C 
ENDBRANCH  24  26
ENDBRANCH   1  24
TORSDOF 7
ENDMDL
MODEL 5
REMARK VINA RESULT:      -7.2      3.222      5.527
REMARK  7 active torsions:
REMARK  status: ('A' for Active; 'I' for Inactive)
REMARK    1  A    between atoms: C_2  and  N_3 
REMARK    2  A    between atoms: N_3  and  C_4 
REMARK    3  A    between atoms: C_6  and  N_7 
REMARK    4  A    between atoms: N_7  and  C_8 
REMARK    5  A    between atoms: C_8  and  C_9 
REMARK    6  A    between atoms: C_9  and  C_10 
REMARK    7  A    between atoms: C_11  and  O_12 
ROOT
HETATM    1  C   UNL     1     -40.531  53.803 -52.428  1.00  0.00     0.119 A 
HETATM    2  N   UNL     1     -40.873  54.535 -53.505  1.00  0.00    -0.207 NA
HETATM    3  C   UNL     1     -40.841  53.941 -54.703  1.00  0.00     0.181 A 
HETATM    4  N   UNL     1     -40.474  52.677 -54.879  1.00  0.00    -0.330 N 
HETATM    5  H   UNL     1     -40.411  52.343 -55.831  1.00  0.00     0.168 HD
HETATM    6  C   UNL     1     -40.162  51.894 -53.842  1.00  0.00     0.048 A 
HETATM    7  C   UNL     1     -40.190  52.436 -52.542  1.00  0.00     0.031 A 
HETATM    8  C   UNL     1     -39.813  50.551 -54.054  1.00  0.00     0.030 A 
HETATM    9  C   UNL     1     -39.505  49.729 -52.972  1.00  0.00     0.002 A 
HETATM   10  C   UNL     1     -39.543  50.240 -51.678  1.00  0.00     0.001 A 
HETATM   11  C   UNL     1     -39.882  51.577 -51.461  1.00  0.00     0.017 A 
ENDROOT
BRANCH   3  12
HETATM   12  N   UNL     1     -41.122  54.720 -55.807  1.00  0.00    -0.262 NA
HETATM   13  H   UNL     1     -40.575  55.580 -55.692  1.00  0.00     0.130 HD
BRANCH  12  14
HETATM   14  C   UNL     1     -42.523  54.991 -56.142  1.00  0.00     0.100 C 
BRANCH  14  15
HETATM   15  C   UNL     1     -42.675  56.170 -57.114  1.00  0.00     0.056 C 
BRANCH  15  16
HETATM   16  C   UNL     1     -43.459  55.967 -58.398  1.00  0.00    -0.024 A 
HETATM   17  C   UNL     1     -43.790  57.104 -59.170  1.00  0.00     0.074 A 
HETATM   18  C   UNL     1     -44.494  56.960 -60.369  1.00  0.00     0.037 A 
HETATM   19  C   UNL     1     -44.889  55.696 -60.805  1.00  0.00     0.003 A 
HETATM   20  C   UNL     1     -44.590  54.572 -60.043  1.00  0.00     0.001 A 
HETATM   21  C   UNL     1     -43.884  54.706 -58.847  1.00  0.00     0.010 A 
BRANCH  17  22
HETATM   22  O   UNL     1     -43.366  58.308 -58.661  1.00  0.00    -0.355 OA
HETATM   23  C   UNL     1     -42.480  59.078 -59.468  1.00  0.00     0.210 C 
ENDBRANCH  17  22
ENDBRANCH  15  16
ENDBRANCH  14  15
ENDBRANCH  12  14
ENDBRANCH   3  12
BRANCH   1  24
HETATM   24  N   UNL     1     -40.569  54.400 -51.165  1.00  0.00    -0.273 NA
HETATM   25  H   UNL     1     -39.657  54.756 -50.887  1.00  0.00     0.129 HD
BRANCH  24  26
HETATM   26  C   UNL     1     -41.633  55.370 -50.869  1.00  0.00     0.053 C 
HETATM   27  C   UNL     1     -41.180  56.366 -49.802  1.00  0.00     0.026 C 
HETATM   28  C   UNL     1     -42.850  54.591 -50.368  1.00  0.00     0.026 C 
ENDBRANCH  24  26
ENDBRANCH   1  24
TORSDOF 7
ENDMDL
MODEL 6
REMARK VINA RESULT:      -7.1      3.170      6.191
REMARK  7 active torsions:
REMARK  status: ('A' for Active; 'I' for Inactive)
REMARK    1  A    between atoms: C_2  and  N_3 
REMARK    2  A    between atoms: N_3  and  C_4 
REMARK    3  A    between atoms: C_6  and  N_7 
REMARK    4  A    between atoms: N_7  and  C_8 
REMARK    5  A    between atoms: C_8  and  C_9 
REMARK    6  A    between atoms: C_9  and  C_10 
REMARK    7  A    between atoms: C_11  and  O_12 
ROOT
HETATM    1  C   UNL     1     -40.502  52.762 -52.784  1.00  0.00     0.119 A 
HETATM    2  N   UNL     1     -41.208  53.064 -53.890  1.00  0.00    -0.207 NA
HETATM    3  C   UNL     1     -42.100  54.059 -53.812  1.00  0.00     0.181 A 
HETATM    4  N   UNL     1     -42.330  54.744 -52.698  1.00  0.00    -0.330 N 
HETATM    5  H   UNL     1     -43.077  55.426 -52.721  1.00  0.00     0.168 HD
HETATM    6  C   UNL     1     -41.631  54.512 -51.583  1.00  0.00     0.048 A 
HETATM    7  C   UNL     1     -40.657  53.495 -51.586  1.00  0.00     0.031 A 
HETATM    8  C   UNL     1     -41.870  55.277 -50.431  1.00  0.00     0.030 A 
HETATM    9  C   UNL     1     -41.129  55.048 -49.273  1.00  0.00     0.002 A 
HETATM   10  C   UNL     1     -40.149  54.059 -49.259  1.00  0.00     0.001 A 
HETATM   11  C   UNL     1     -39.912  53.290 -50.400  1.00  0.00     0.017 A 
ENDROOT
BRANCH   3  12
HETATM   12  N   UNL     1     -42.871  54.311 -54.929  1.00  0.00    -0.262 NA
HETATM   13  H   UNL     1     -43.221  53.399 -55.242  1.00  0.00     0.130 HD
BRANCH  12  14
HETATM   14  C   UNL     1     -42.290  55.092 -56.025  1.00  0.00     0.100 C 
BRANCH  14  15
HETATM   15  C   UNL     1     -43.281  56.112 -56.605  1.00  0.00     0.056 C 
BRANCH  15  16
HETATM   16  C   UNL     1     -42.914  56.850 -57.880  1.00  0.00    -0.024 A 
HETATM   17  C   UNL     1     -43.247  56.257 -59.119  1.00  0.00     0.074 A 
HETATM   18  C   UNL     1     -42.945  56.913 -60.316  1.00  0.00     0.037 A 
HETATM   19  C   UNL     1     -42.299  58.149 -60.298  1.00  0.00     0.003 A 
HETATM   20  C   UNL     1     -41.947  58.732 -59.085  1.00  0.00     0.001 A 
HETATM   21  C   UNL     1     -42.248  58.086 -57.885  1.00  0.00     0.010 A 
BRANCH  17  22
HETATM   22  O   UNL     1     -43.875  55.038 -59.041  1.00  0.00    -0.355 OA
HETATM   23  C   UNL     1     -44.796  54.715 -60.078  1.00  0.00     0.210 C 
ENDBRANCH  17  22
ENDBRANCH  15  16
ENDBRANCH  14  15
ENDBRANCH  12  14
ENDBRANCH   3  12
BRANCH   1  24
HETATM   24  N   UNL     1     -39.556  51.735 -52.846  1.00  0.00    -0.273 NA
HETATM   25  H   UNL     1     -38.901  51.777 -52.069  1.00  0.00     0.129 HD
BRANCH  24  26
HETATM   26  C   UNL     1     -40.015  50.359 -53.084  1.00  0.00     0.053 C 
HETATM   27  C   UNL     1     -39.585  49.437 -51.943  1.00  0.00     0.026 C 
HETATM   28  C   UNL     1     -39.399  49.880 -54.399  1.00  0.00     0.026 C 
ENDBRANCH  24  26
ENDBRANCH   1  24
TORSDOF 7
ENDMDL
MODEL 7
REMARK VINA RESULT:      -7.0      3.838      6.358
REMARK  7 active torsions:
REMARK  status: ('A' for Active; 'I' for Inactive)
REMARK    1  A    between atoms: C_2  and  N_3 
REMARK    2  A    between atoms: N_3  and  C_4 
REMARK    3  A    between atoms: C_6  and  N_7 
REMARK    4  A    between atoms: N_7  and  C_8 
REMARK    5  A    between atoms: C_8  and  C_9 
REMARK    6  A    between atoms: C_9  and  C_10 
REMARK    7  A    between atoms: C_11  and  O_12 
ROOT
HETATM    1  C   UNL     1     -43.091  54.861 -52.856  1.00  0.00     0.119 A 
HETATM    2  N   UNL     1     -43.549  54.984 -54.117  1.00  0.00    -0.207 NA
HETATM    3  C   UNL     1     -42.945  54.272 -55.075  1.00  0.00     0.181 A 
HETATM    4  N   UNL     1     -41.913  53.468 -54.844  1.00  0.00    -0.330 N 
HETATM    5  H   UNL     1     -41.479  53.032 -55.647  1.00  0.00     0.168 HD
HETATM    6  C   UNL     1     -41.444  53.279 -53.608  1.00  0.00     0.048 A 
HETATM    7  C   UNL     1     -42.037  53.976 -52.536  1.00  0.00     0.031 A 
HETATM    8  C   UNL     1     -40.376  52.395 -53.388  1.00  0.00     0.030 A 
HETATM    9  C   UNL     1     -39.897  52.184 -52.096  1.00  0.00     0.002 A 
HETATM   10  C   UNL     1     -40.480  52.849 -51.021  1.00  0.00     0.001 A 
HETATM   11  C   UNL     1     -41.538  53.735 -51.235  1.00  0.00     0.017 A 
ENDROOT
BRANCH   3  12
HETATM   12  N   UNL     1     -43.373  54.462 -56.374  1.00  0.00    -0.262 NA
HETATM   13  H   UNL     1     -43.170  53.587 -56.869  1.00  0.00     0.130 HD
BRANCH  12  14
HETATM   14  C   UNL     1     -42.901  55.640 -57.107  1.00  0.00     0.100 C 
BRANCH  14  15
HETATM   15  C   UNL     1     -43.361  55.640 -58.572  1.00  0.00     0.056 C 
BRANCH  15  16
HETATM   16  C   UNL     1     -43.291  56.932 -59.365  1.00  0.00    -0.024 A 
HETATM   17  C   UNL     1     -44.493  57.634 -59.612  1.00  0.00     0.074 A 
HETATM   18  C   UNL     1     -44.470  58.839 -60.321  1.00  0.00     0.037 A 
HETATM   19  C   UNL     1     -43.265  59.349 -60.803  1.00  0.00     0.003 A 
HETATM   20  C   UNL     1     -42.080  58.656 -60.586  1.00  0.00     0.001 A 
HETATM   21  C   UNL     1     -42.092  57.455 -59.876  1.00  0.00     0.010 A 
BRANCH  17  22
HETATM   22  O   UNL     1     -45.631  57.055 -59.106  1.00  0.00    -0.355 OA
HETATM   23  C   UNL     1     -46.660  56.727 -60.034  1.00  0.00     0.210 C 
ENDBRANCH  17  22
ENDBRANCH  15  16
ENDBRANCH  14  15
ENDBRANCH  12  14
ENDBRANCH   3  12
BRANCH   1  24
HETATM   24  N   UNL     1     -43.715  55.586 -51.837  1.00  0.00    -0.273 NA
HETATM   25  H   UNL     1     -43.457  55.241 -50.915  1.00  0.00     0.129 HD
BRANCH  24  26
HETATM   26  C   UNL     1     -43.680  57.055 -51.887  1.00  0.00     0.053 C 
HETATM   27  C   UNL     1     -42.399  57.590 -51.247  1.00  0.00     0.026 C 
HETATM   28  C   UNL     1     -44.899  57.578 -51.125  1.00  0.00     0.026 C 
ENDBRANCH  24  26
ENDBRANCH   1  24
TORSDOF 7
ENDMDL
MODEL 8
REMARK VINA RESULT:      -6.9      1.748      4.067
REMARK  7 active torsions:
REMARK  status: ('A' for Active; 'I' for Inactive)
REMARK    1  A    between atoms: C_2  and  N_3 
REMARK    2  A    between atoms: N_3  and  C_4 
REMARK    3  A    between atoms: C_6  and  N_7 
REMARK    4  A    between atoms: N_7  and  C_8 
REMARK    5  A    between atoms: C_8  and  C_9 
REMARK    6  A    between atoms: C_9  and  C_10 
REMARK    7  A    between atoms: C_11  and  O_12 
ROOT
HETATM    1  C   UNL     1     -42.152  54.032 -51.688  1.00  0.00     0.119 A 
HETATM    2  N   UNL     1     -43.141  54.686 -52.326  1.00  0.00    -0.207 NA
HETATM    3  C   UNL     1     -43.228  54.548 -53.654  1.00  0.00     0.181 A 
HETATM    4  N   UNL     1     -42.381  53.815 -54.367  1.00  0.00    -0.330 N 
HETATM    5  H   UNL     1     -42.486  53.835 -55.372  1.00  0.00     0.168 HD
HETATM    6  C   UNL     1     -41.406  53.114 -53.781  1.00  0.00     0.048 A 
HETATM    7  C   UNL     1     -41.257  53.187 -52.382  1.00  0.00     0.031 A 
HETATM    8  C   UNL     1     -40.548  52.318 -54.555  1.00  0.00     0.030 A 
HETATM    9  C   UNL     1     -39.542  51.573 -53.943  1.00  0.00     0.002 A 
HETATM   10  C   UNL     1     -39.388  51.617 -52.561  1.00  0.00     0.001 A 
HETATM   11  C   UNL     1     -40.234  52.413 -51.785  1.00  0.00     0.017 A 
ENDROOT
BRANCH   3  12
HETATM   12  N   UNL     1     -44.198  55.282 -54.307  1.00  0.00    -0.262 NA
HETATM   13  H   UNL     1     -44.650  54.633 -54.960  1.00  0.00     0.130 HD
BRANCH  12  14
HETATM   14  C   UNL     1     -43.817  56.543 -54.948  1.00  0.00     0.100 C 
BRANCH  14  15
HETATM   15  C   UNL     1     -43.988  57.749 -54.013  1.00  0.00     0.056 C 
BRANCH  15  16
HETATM   16  C   UNL     1     -42.774  58.288 -53.277  1.00  0.00    -0.024 A 
HETATM   17  C   UNL     1     -42.984  59.098 -52.139  1.00  0.00     0.074 A 
HETATM   18  C   UNL     1     -41.893  59.597 -51.420  1.00  0.00     0.037 A 
HETATM   19  C   UNL     1     -40.591  59.313 -51.831  1.00  0.00     0.003 A 
HETATM   20  C   UNL     1     -40.372  58.536 -52.962  1.00  0.00     0.001 A 
HETATM   21  C   UNL     1     -41.455  58.030 -53.684  1.00  0.00     0.010 A 
BRANCH  17  22
HETATM   22  O   UNL     1     -44.298  59.330 -51.811  1.00  0.00    -0.355 OA
HETATM   23  C   UNL     1     -44.711  60.689 -51.710  1.00  0.00     0.210 C 
ENDBRANCH  17  22
ENDBRANCH  15  16
ENDBRANCH  14  15
ENDBRANCH  12  14
ENDBRANCH   3  12
BRANCH   1  24
HETATM   24  N   UNL     1     -42.050  54.152 -50.299  1.00  0.00    -0.273 NA
HETATM   25  H   UNL     1     -42.203  53.262 -49.830  1.00  0.00     0.129 HD
BRANCH  24  26
HETATM   26  C   UNL     1     -40.896  54.863 -49.730  1.00  0.00     0.053 C 
HETATM   27  C   UNL     1     -40.628  54.405 -48.296  1.00  0.00     0.026 C 
HETATM   28  C   UNL     1     -41.213  56.359 -49.746  1.00  0.00     0.026 C 
ENDBRANCH  24  26
ENDBRANCH   1  24
TORSDOF 7
ENDMDL
MODEL 9
REMARK VINA RESULT:      -6.8     14.431     16.860
REMARK  7 active torsions:
REMARK  status: ('A' for Active; 'I' for Inactive)
REMARK    1  A    between atoms: C_2  and  N_3 
REMARK    2  A    between atoms: N_3  and  C_4 
REMARK    3  A    between atoms: C_6  and  N_7 
REMARK    4  A    between atoms: N_7  and  C_8 
REMARK    5  A    between atoms: C_8  and  C_9 
REMARK    6  A    between atoms: C_9  and  C_10 
REMARK    7  A    between atoms: C_11  and  O_12 
ROOT
HETATM    1  C   UNL     1     -32.880  40.490 -53.732  1.00  0.00     0.119 A 
HETATM    2  N   UNL     1     -34.003  40.873 -54.368  1.00  0.00    -0.207 NA
HETATM    3  C   UNL     1     -35.115  41.027 -53.640  1.00  0.00     0.181 A 
HETATM    4  N   UNL     1     -35.165  40.805 -52.331  1.00  0.00    -0.330 N 
HETATM    5  H   UNL     1     -36.069  40.877 -51.885  1.00  0.00     0.168 HD
HETATM    6  C   UNL     1     -34.072  40.462 -51.644  1.00  0.00     0.048 A 
HETATM    7  C   UNL     1     -32.854  40.298 -52.332  1.00  0.00     0.031 A 
HETATM    8  C   UNL     1     -34.146  40.270 -50.255  1.00  0.00     0.030 A 
HETATM    9  C   UNL     1     -33.003  39.928 -49.534  1.00  0.00     0.002 A 
HETATM   10  C   UNL     1     -31.785  39.778 -50.192  1.00  0.00     0.001 A 
HETATM   11  C   UNL     1     -31.707  39.961 -51.575  1.00  0.00     0.017 A 
ENDROOT
BRANCH   3  12
HETATM   12  N   UNL     1     -36.277  41.347 -54.313  1.00  0.00    -0.262 NA
HETATM   13  H   UNL     1     -36.753  40.457 -54.493  1.00  0.00     0.130 HD
BRANCH  12  14
HETATM   14  C   UNL     1     -36.189  42.186 -55.512  1.00  0.00     0.100 C 
BRANCH  14  15
HETATM   15  C   UNL     1     -37.470  42.132 -56.358  1.00  0.00     0.056 C 
BRANCH  15  16
HETATM   16  C   UNL     1     -37.407  41.527 -57.749  1.00  0.00    -0.024 A 
HETATM   17  C   UNL     1     -37.480  40.121 -57.873  1.00  0.00     0.074 A 
HETATM   18  C   UNL     1     -37.446  39.524 -59.137  1.00  0.00     0.037 A 
HETATM   19  C   UNL     1     -37.324  40.309 -60.283  1.00  0.00     0.003 A 
HETATM   20  C   UNL     1     -37.229  41.692 -60.172  1.00  0.00     0.001 A 
HETATM   21  C   UNL     1     -37.266  42.297 -58.915  1.00  0.00     0.010 A 
BRANCH  17  22
HETATM   22  O   UNL     1     -37.593  39.427 -56.693  1.00  0.00    -0.355 OA
HETATM   23  C   UNL     1     -36.636  38.401 -56.449  1.00  0.00     0.210 C 
ENDBRANCH  17  22
ENDBRANCH  15  16
ENDBRANCH  14  15
ENDBRANCH  12  14
ENDBRANCH   3  12
BRANCH   1  24
HETATM   24  N   UNL     1     -31.704  40.335 -54.471  1.00  0.00    -0.273 NA
HETATM   25  H   UNL     1     -30.876  40.428 -53.887  1.00  0.00     0.129 HD
BRANCH  24  26
HETATM   26  C   UNL     1     -31.587  39.192 -55.388  1.00  0.00     0.053 C 
HETATM   27  C   UNL     1     -31.083  37.952 -54.649  1.00  0.00     0.026 C 
HETATM   28  C   UNL     1     -30.600  39.576 -56.491  1.00  0.00     0.026 C 
ENDBRANCH  24  26
ENDBRANCH   1  24
TORSDOF 7
ENDMDL
MODEL 10
REMARK VINA RESULT:      -6.7      3.834      6.126
REMARK  7 active torsions:
REMARK  status: ('A' for Active; 'I' for Inactive)
REMARK    1  A    between atoms: C_2  and  N_3 
REMARK    2  A    between atoms: N_3  and  C_4 
REMARK    3  A    between atoms: C_6  and  N_7 
REMARK    4  A    between atoms: N_7  and  C_8 
REMARK    5  A    between atoms: C_8  and  C_9 
REMARK    6  A    between atoms: C_9  and  C_10 
REMARK    7  A    between atoms: C_11  and  O_12 
ROOT
HETATM    1  C   UNL     1     -41.993  55.180 -52.657  1.00  0.00     0.119 A 
HETATM    2  N   UNL     1     -42.746  55.627 -53.680  1.00  0.00    -0.207 NA
HETATM    3  C   UNL     1     -42.733  54.926 -54.820  1.00  0.00     0.181 A 
HETATM    4  N   UNL     1     -42.005  53.829 -54.992  1.00  0.00    -0.330 N 
HETATM    5  H   UNL     1     -42.006  53.414 -55.914  1.00  0.00     0.168 HD
HETATM    6  C   UNL     1     -41.271  53.321 -53.998  1.00  0.00     0.048 A 
HETATM    7  C   UNL     1     -41.245  53.986 -52.757  1.00  0.00     0.031 A 
HETATM    8  C   UNL     1     -40.540  52.139 -54.197  1.00  0.00     0.030 A 
HETATM    9  C   UNL     1     -39.788  51.598 -53.156  1.00  0.00     0.002 A 
HETATM   10  C   UNL     1     -39.762  52.230 -51.916  1.00  0.00     0.001 A 
HETATM   11  C   UNL     1     -40.481  53.410 -51.714  1.00  0.00     0.017 A 
ENDROOT
BRANCH   3  12
HETATM   12  N   UNL     1     -43.449  55.433 -55.886  1.00  0.00    -0.262 NA
HETATM   13  H   UNL     1     -44.353  54.949 -55.874  1.00  0.00     0.130 HD
BRANCH  12  14
HETATM   14  C   UNL     1     -42.832  55.430 -57.215  1.00  0.00     0.100 C 
BRANCH  14  15
HETATM   15  C   UNL     1     -43.314  56.600 -58.086  1.00  0.00     0.056 C 
BRANCH  15  16
HETATM   16  C   UNL     1     -44.391  56.349 -59.125  1.00  0.00    -0.024 A 
HETATM   17  C   UNL     1     -45.607  57.061 -59.018  1.00  0.00     0.074 A 
HETATM   18  C   UNL     1     -46.618  56.874 -59.966  1.00  0.00     0.037 A 
HETATM   19  C   UNL     1     -46.440  55.973 -61.015  1.00  0.00     0.003 A 
HETATM   20  C   UNL     1     -45.258  55.250 -61.118  1.00  0.00     0.001 A 
HETATM   21  C   UNL     1     -44.241  55.433 -60.179  1.00  0.00     0.010 A 
BRANCH  17  22
HETATM   22  O   UNL     1     -45.696  57.922 -57.951  1.00  0.00    -0.355 OA
HETATM   23  C   UNL     1     -45.959  59.291 -58.242  1.00  0.00     0.210 C 
ENDBRANCH  17  22
ENDBRANCH  15  16
ENDBRANCH  14  15
ENDBRANCH  12  14
ENDBRANCH   3  12
BRANCH   1  24
HETATM   24  N   UNL     1     -42.001  55.890 -51.453  1.00  0.00    -0.273 NA
HETATM   25  H   UNL     1     -41.697  56.853 -51.579  1.00  0.00     0.129 HD
BRANCH  24  26
HETATM   26  C   UNL     1     -43.188  55.813 -50.590  1.00  0.00     0.053 C 
HETATM   27  C   UNL     1     -43.839  54.433 -50.682  1.00  0.00     0.026 C 
HETATM   28  C   UNL     1     -44.176  56.885 -51.055  1.00  0.00     0.026 C 
ENDBRANCH  24  26
ENDBRANCH   1  24
TORSDOF 7
ENDMDL
