MODEL 1
REMARK VINA RESULT:      -9.3      0.000      0.000
REMARK  6 active torsions:
REMARK  status: ('A' for Active; 'I' for Inactive)
REMARK    1  A    between atoms: C_6  and  N_7 
REMARK       I    between atoms: N_7  and  C_8 
REMARK    2  A    between atoms: C_8  and  C_9 
REMARK    3  A    between atoms: C_11  and  N_12 
REMARK    4  A    between atoms: N_12  and  N_13 
REMARK       I    between atoms: N_13  and  C_14 
REMARK    5  A    between atoms: C_14  and  C_15 
REMARK    6  A    between atoms: C_16  and  C_17 
ROOT
HETATM    1  C   UNL     1     -42.229  56.647 -55.162  1.00  0.00     0.151 A 
HETATM    2  N   UNL     1     -41.838  57.703 -54.378  1.00  0.00    -0.210 NA
HETATM    3  C   UNL     1     -41.792  58.907 -54.956  1.00  0.00     0.220 A 
HETATM    4  N   UNL     1     -42.130  59.129 -56.240  1.00  0.00    -0.228 NA
HETATM    5  C   UNL     1     -42.520  58.061 -56.970  1.00  0.00     0.146 A 
HETATM    6  C   UNL     1     -42.591  56.774 -56.488  1.00  0.00     0.086 A 
HETATM    7 CL   UNL     1     -43.105  55.533 -57.554  1.00  0.00    -0.080 Cl
ENDROOT
BRANCH   3   8
HETATM    8  N   UNL     1     -41.348  59.985 -54.179  1.00  0.00    -0.169 NA
HETATM    9  H   UNL     1     -40.377  59.835 -53.899  1.00  0.00     0.156 HD
BRANCH   8  10
HETATM   10  N   UNL     1     -42.205  60.284 -53.104  1.00  0.00    -0.281 N 
HETATM   11  C   UNL     1     -41.742  60.060 -51.829  1.00  0.00     0.255 C 
HETATM   12  O   UNL     1     -40.607  59.674 -51.573  1.00  0.00    -0.267 OA
HETATM   13  H   UNL     1     -43.165  60.509 -53.352  1.00  0.00     0.184 HD
BRANCH  11  14
HETATM   14  C   UNL     1     -42.770  60.324 -50.789  1.00  0.00     0.076 C 
HETATM   15  C   UNL     1     -43.048  61.588 -50.434  1.00  0.00     0.017 C 
BRANCH  15  16
HETATM   16  C   UNL     1     -44.025  61.997 -49.410  1.00  0.00    -0.036 A 
HETATM   17  C   UNL     1     -44.818  61.005 -48.814  1.00  0.00     0.013 A 
HETATM   18  C   UNL     1     -45.753  61.328 -47.824  1.00  0.00     0.024 A 
HETATM   19  C   UNL     1     -45.899  62.650 -47.418  1.00  0.00     0.034 A 
HETATM   20 CL   UNL     1     -47.050  63.053 -46.205  1.00  0.00    -0.084 Cl
HETATM   21  C   UNL     1     -45.114  63.649 -47.987  1.00  0.00     0.024 A 
HETATM   22  C   UNL     1     -44.176  63.322 -48.974  1.00  0.00     0.013 A 
ENDBRANCH  15  16
ENDBRANCH  11  14
ENDBRANCH   8  10
ENDBRANCH   3   8
BRANCH   1  23
HETATM   23  C   UNL     1     -42.213  55.323 -54.438  1.00  0.00     0.276 C 
HETATM   24  N   UNL     1     -40.931  54.858 -54.190  1.00  0.00    -0.322 N 
HETATM   25  H   UNL     1     -40.188  55.472 -54.514  1.00  0.00     0.169 HD
HETATM   26  O   UNL     1     -43.252  54.758 -54.126  1.00  0.00    -0.266 OA
BRANCH  24  27
HETATM   27  C   UNL     1     -40.543  53.660 -53.558  1.00  0.00     0.035 A 
HETATM   28  C   UNL     1     -40.281  52.469 -54.236  1.00  0.00     0.037 A 
HETATM   29  C   UNL     1     -39.888  51.306 -53.546  1.00  0.00    -0.054 A 
HETATM   30  C   UNL     1     -39.787  51.333 -52.143  1.00  0.00    -0.056 A 
HETATM   31  C   UNL     1     -39.627  50.049 -54.333  1.00  0.00     0.049 C 
HETATM   32  C   UNL     1     -39.384  50.116 -51.357  1.00  0.00     0.049 C 
HETATM   33  C   UNL     1     -40.039  52.535 -51.468  1.00  0.00     0.009 A 
HETATM   34  C   UNL     1     -40.412  53.685 -52.168  1.00  0.00     0.030 A 
ENDBRANCH  24  27
ENDBRANCH   1  23
TORSDOF 6
ENDMDL
MODEL 2
REMARK VINA RESULT:      -9.2      3.075      4.176
REMARK  6 active torsions:
REMARK  status: ('A' for Active; 'I' for Inactive)
REMARK    1  A    between atoms: C_6  and  N_7 
REMARK       I    between atoms: N_7  and  C_8 
REMARK    2  A    between atoms: C_8  and  C_9 
REMARK    3  A    between atoms: C_11  and  N_12 
REMARK    4  A    between atoms: N_12  and  N_13 
REMARK       I    between atoms: N_13  and  C_14 
REMARK    5  A    between atoms: C_14  and  C_15 
REMARK    6  A    between atoms: C_16  and  C_17 
ROOT
HETATM    1  C   UNL     1     -42.621  57.790 -52.210  1.00  0.00     0.151 A 
HETATM    2  N   UNL     1     -43.781  58.036 -51.521  1.00  0.00    -0.210 NA
HETATM    3  C   UNL     1     -43.935  59.258 -51.000  1.00  0.00     0.220 A 
HETATM    4  N   UNL     1     -43.030  60.244 -51.141  1.00  0.00    -0.228 NA
HETATM    5  C   UNL     1     -41.907  59.959 -51.836  1.00  0.00     0.146 A 
HETATM    6  C   UNL     1     -41.633  58.735 -52.402  1.00  0.00     0.086 A 
HETATM    7 CL   UNL     1     -40.156  58.544 -53.251  1.00  0.00    -0.080 Cl
ENDROOT
BRANCH   3   8
HETATM    8  N   UNL     1     -45.094  59.506 -50.254  1.00  0.00    -0.169 NA
HETATM    9  H   UNL     1     -45.825  59.881 -50.863  1.00  0.00     0.156 HD
BRANCH   8  10
HETATM   10  N   UNL     1     -44.859  60.288 -49.109  1.00  0.00    -0.281 N 
HETATM   11  C   UNL     1     -45.646  61.399 -48.913  1.00  0.00     0.255 C 
HETATM   12  O   UNL     1     -46.577  61.712 -49.646  1.00  0.00    -0.267 OA
HETATM   13  H   UNL     1     -44.023  60.056 -48.578  1.00  0.00     0.184 HD
BRANCH  11  14
HETATM   14  C   UNL     1     -45.239  62.189 -47.723  1.00  0.00     0.076 C 
HETATM   15  C   UNL     1     -45.260  61.622 -46.507  1.00  0.00     0.017 C 
BRANCH  15  16
HETATM   16  C   UNL     1     -44.902  62.288 -45.243  1.00  0.00    -0.036 A 
HETATM   17  C   UNL     1     -44.077  61.599 -44.340  1.00  0.00     0.013 A 
HETATM   18  C   UNL     1     -43.689  62.184 -43.129  1.00  0.00     0.024 A 
HETATM   19  C   UNL     1     -44.121  63.468 -42.814  1.00  0.00     0.034 A 
HETATM   20 CL   UNL     1     -43.650  64.189 -41.325  1.00  0.00    -0.084 Cl
HETATM   21  C   UNL     1     -44.929  64.173 -43.700  1.00  0.00     0.024 A 
HETATM   22  C   UNL     1     -45.313  63.588 -44.913  1.00  0.00     0.013 A 
ENDBRANCH  15  16
ENDBRANCH  11  14
ENDBRANCH   8  10
ENDBRANCH   3   8
BRANCH   1  23
HETATM   23  C   UNL     1     -42.517  56.376 -52.727  1.00  0.00     0.276 C 
HETATM   24  N   UNL     1     -41.301  55.780 -52.429  1.00  0.00    -0.322 N 
HETATM   25  H   UNL     1     -40.661  56.366 -51.900  1.00  0.00     0.169 HD
HETATM   26  O   UNL     1     -43.438  55.856 -53.341  1.00  0.00    -0.266 OA
BRANCH  24  27
HETATM   27  C   UNL     1     -40.856  54.488 -52.770  1.00  0.00     0.035 A 
HETATM   28  C   UNL     1     -40.534  53.501 -51.838  1.00  0.00     0.037 A 
HETATM   29  C   UNL     1     -40.103  52.223 -52.243  1.00  0.00    -0.054 A 
HETATM   30  C   UNL     1     -39.963  51.943 -53.615  1.00  0.00    -0.056 A 
HETATM   31  C   UNL     1     -39.762  51.204 -51.189  1.00  0.00     0.049 C 
HETATM   32  C   UNL     1     -39.495  50.599 -54.102  1.00  0.00     0.049 C 
HETATM   33  C   UNL     1     -40.299  52.932 -54.548  1.00  0.00     0.009 A 
HETATM   34  C   UNL     1     -40.742  54.190 -54.130  1.00  0.00     0.030 A 
ENDBRANCH  24  27
ENDBRANCH   1  23
TORSDOF 6
ENDMDL
MODEL 3
REMARK VINA RESULT:      -9.0      3.400      8.400
REMARK  6 active torsions:
REMARK  status: ('A' for Active; 'I' for Inactive)
REMARK    1  A    between atoms: C_6  and  N_7 
REMARK       I    between atoms: N_7  and  C_8 
REMARK    2  A    between atoms: C_8  and  C_9 
REMARK    3  A    between atoms: C_11  and  N_12 
REMARK    4  A    between atoms: N_12  and  N_13 
REMARK       I    between atoms: N_13  and  C_14 
REMARK    5  A    between atoms: C_14  and  C_15 
REMARK    6  A    between atoms: C_16  and  C_17 
ROOT
HETATM    1  C   UNL     1     -42.782  60.045 -53.783  1.00  0.00     0.151 A 
HETATM    2  N   UNL     1     -42.652  59.104 -52.793  1.00  0.00    -0.210 NA
HETATM    3  C   UNL     1     -42.746  59.530 -51.530  1.00  0.00     0.220 A 
HETATM    4  N   UNL     1     -42.982  60.812 -51.193  1.00  0.00    -0.228 NA
HETATM    5  C   UNL     1     -43.114  61.701 -52.201  1.00  0.00     0.146 A 
HETATM    6  C   UNL     1     -43.021  61.383 -53.537  1.00  0.00     0.086 A 
HETATM    7 CL   UNL     1     -43.211  62.639 -54.689  1.00  0.00    -0.080 Cl
ENDROOT
BRANCH   3   8
HETATM    8  N   UNL     1     -42.568  58.586 -50.510  1.00  0.00    -0.169 NA
HETATM    9  H   UNL     1     -41.897  58.938 -49.825  1.00  0.00     0.156 HD
BRANCH   8  10
HETATM   10  N   UNL     1     -42.260  57.301 -50.992  1.00  0.00    -0.281 N 
HETATM   11  C   UNL     1     -43.248  56.345 -50.955  1.00  0.00     0.255 C 
HETATM   12  O   UNL     1     -44.395  56.564 -50.584  1.00  0.00    -0.267 OA
HETATM   13  H   UNL     1     -41.280  57.129 -51.201  1.00  0.00     0.184 HD
BRANCH  11  14
HETATM   14  C   UNL     1     -42.773  55.010 -51.402  1.00  0.00     0.076 C 
HETATM   15  C   UNL     1     -41.572  54.893 -51.989  1.00  0.00     0.017 C 
BRANCH  15  16
HETATM   16  C   UNL     1     -40.983  53.642 -52.497  1.00  0.00    -0.036 A 
HETATM   17  C   UNL     1     -41.236  53.280 -53.829  1.00  0.00     0.013 A 
HETATM   18  C   UNL     1     -40.692  52.112 -54.374  1.00  0.00     0.024 A 
HETATM   19  C   UNL     1     -39.882  51.297 -53.590  1.00  0.00     0.034 A 
HETATM   20 CL   UNL     1     -39.214  49.858 -54.255  1.00  0.00    -0.084 Cl
HETATM   21  C   UNL     1     -39.608  51.643 -52.270  1.00  0.00     0.024 A 
HETATM   22  C   UNL     1     -40.150  52.814 -51.728  1.00  0.00     0.013 A 
ENDBRANCH  15  16
ENDBRANCH  11  14
ENDBRANCH   8  10
ENDBRANCH   3   8
BRANCH   1  23
HETATM   23  C   UNL     1     -42.623  59.481 -55.173  1.00  0.00     0.276 C 
HETATM   24  N   UNL     1     -43.529  58.470 -55.452  1.00  0.00    -0.322 N 
HETATM   25  H   UNL     1     -44.175  58.260 -54.696  1.00  0.00     0.169 HD
HETATM   26  O   UNL     1     -41.767  59.906 -55.936  1.00  0.00    -0.266 OA
BRANCH  24  27
HETATM   27  C   UNL     1     -43.655  57.713 -56.633  1.00  0.00     0.035 A 
HETATM   28  C   UNL     1     -44.321  58.155 -57.777  1.00  0.00     0.037 A 
HETATM   29  C   UNL     1     -44.404  57.353 -58.932  1.00  0.00    -0.054 A 
HETATM   30  C   UNL     1     -43.834  56.066 -58.924  1.00  0.00    -0.056 A 
HETATM   31  C   UNL     1     -45.143  57.883 -60.132  1.00  0.00     0.049 C 
HETATM   32  C   UNL     1     -43.905  55.164 -60.125  1.00  0.00     0.049 C 
HETATM   33  C   UNL     1     -43.157  55.632 -57.778  1.00  0.00     0.009 A 
HETATM   34  C   UNL     1     -43.068  56.446 -56.646  1.00  0.00     0.030 A 
ENDBRANCH  24  27
ENDBRANCH   1  23
TORSDOF 6
ENDMDL
MODEL 4
REMARK VINA RESULT:      -9.0      3.590      7.209
REMARK  6 active torsions:
REMARK  status: ('A' for Active; 'I' for Inactive)
REMARK    1  A    between atoms: C_6  and  N_7 
REMARK       I    between atoms: N_7  and  C_8 
REMARK    2  A    between atoms: C_8  and  C_9 
REMARK    3  A    between atoms: C_11  and  N_12 
REMARK    4  A    between atoms: N_12  and  N_13 
REMARK       I    between atoms: N_13  and  C_14 
REMARK    5  A    between atoms: C_14  and  C_15 
REMARK    6  A    between atoms: C_16  and  C_17 
ROOT
HETATM    1  C   UNL     1     -41.664  57.343 -52.917  1.00  0.00     0.151 A 
HETATM    2  N   UNL     1     -41.692  58.142 -54.031  1.00  0.00    -0.210 NA
HETATM    3  C   UNL     1     -41.625  59.463 -53.837  1.00  0.00     0.220 A 
HETATM    4  N   UNL     1     -41.510  60.031 -52.622  1.00  0.00    -0.228 NA
HETATM    5  C   UNL     1     -41.475  59.204 -51.555  1.00  0.00     0.146 A 
HETATM    6  C   UNL     1     -41.551  57.832 -51.630  1.00  0.00     0.086 A 
HETATM    7 CL   UNL     1     -41.495  56.932 -50.172  1.00  0.00    -0.080 Cl
ENDROOT
BRANCH   3   8
HETATM    8  N   UNL     1     -41.701  60.291 -54.965  1.00  0.00    -0.169 NA
HETATM    9  H   UNL     1     -42.028  61.220 -54.692  1.00  0.00     0.156 HD
BRANCH   8  10
HETATM   10  N   UNL     1     -42.437  59.723 -56.021  1.00  0.00    -0.281 N 
HETATM   11  C   UNL     1     -42.022  59.979 -57.307  1.00  0.00     0.255 C 
HETATM   12  O   UNL     1     -41.016  60.623 -57.583  1.00  0.00    -0.267 OA
HETATM   13  H   UNL     1     -43.314  59.278 -55.762  1.00  0.00     0.184 HD
BRANCH  11  14
HETATM   14  C   UNL     1     -42.931  59.403 -58.330  1.00  0.00     0.076 C 
HETATM   15  C   UNL     1     -44.073  58.810 -57.949  1.00  0.00     0.017 C 
BRANCH  15  16
HETATM   16  C   UNL     1     -45.057  58.182 -58.847  1.00  0.00    -0.036 A 
HETATM   17  C   UNL     1     -46.086  58.982 -59.368  1.00  0.00     0.013 A 
HETATM   18  C   UNL     1     -47.042  58.448 -60.240  1.00  0.00     0.024 A 
HETATM   19  C   UNL     1     -46.972  57.107 -60.602  1.00  0.00     0.034 A 
HETATM   20 CL   UNL     1     -48.148  56.445 -61.669  1.00  0.00    -0.084 Cl
HETATM   21  C   UNL     1     -45.953  56.299 -60.106  1.00  0.00     0.024 A 
HETATM   22  C   UNL     1     -44.996  56.836 -59.238  1.00  0.00     0.013 A 
ENDBRANCH  15  16
ENDBRANCH  11  14
ENDBRANCH   8  10
ENDBRANCH   3   8
BRANCH   1  23
HETATM   23  C   UNL     1     -41.782  55.872 -53.228  1.00  0.00     0.276 C 
HETATM   24  N   UNL     1     -40.619  55.167 -52.958  1.00  0.00    -0.322 N 
HETATM   25  H   UNL     1     -39.863  55.729 -52.579  1.00  0.00     0.169 HD
HETATM   26  O   UNL     1     -42.818  55.399 -53.674  1.00  0.00    -0.266 OA
BRANCH  24  27
HETATM   27  C   UNL     1     -40.368  53.794 -53.144  1.00  0.00     0.035 A 
HETATM   28  C   UNL     1     -40.143  52.892 -52.103  1.00  0.00     0.037 A 
HETATM   29  C   UNL     1     -39.907  51.527 -52.355  1.00  0.00    -0.054 A 
HETATM   30  C   UNL     1     -39.864  51.065 -53.684  1.00  0.00    -0.056 A 
HETATM   31  C   UNL     1     -39.662  50.605 -51.190  1.00  0.00     0.049 C 
HETATM   32  C   UNL     1     -39.602  49.620 -54.010  1.00  0.00     0.049 C 
HETATM   33  C   UNL     1     -40.102  51.971 -54.725  1.00  0.00     0.009 A 
HETATM   34  C   UNL     1     -40.353  53.320 -54.458  1.00  0.00     0.030 A 
ENDBRANCH  24  27
ENDBRANCH   1  23
TORSDOF 6
ENDMDL
MODEL 5
REMARK VINA RESULT:      -8.9      4.352      8.207
REMARK  6 active torsions:
REMARK  status: ('A' for Active; 'I' for Inactive)
REMARK    1  A    between atoms: C_6  and  N_7 
REMARK       I    between atoms: N_7  and  C_8 
REMARK    2  A    between atoms: C_8  and  C_9 
REMARK    3  A    between atoms: C_11  and  N_12 
REMARK    4  A    between atoms: N_12  and  N_13 
REMARK       I    between atoms: N_13  and  C_14 
REMARK    5  A    between atoms: C_14  and  C_15 
REMARK    6  A    between atoms: C_16  and  C_17 
ROOT
HETATM    1  C   UNL     1     -42.700  56.362 -54.522  1.00  0.00     0.151 A 
HETATM    2  N   UNL     1     -42.310  56.307 -55.837  1.00  0.00    -0.210 NA
HETATM    3  C   UNL     1     -42.457  57.419 -56.563  1.00  0.00     0.220 A 
HETATM    4  N   UNL     1     -42.936  58.574 -56.066  1.00  0.00    -0.228 NA
HETATM    5  C   UNL     1     -43.296  58.585 -54.764  1.00  0.00     0.146 A 
HETATM    6  C   UNL     1     -43.206  57.498 -53.924  1.00  0.00     0.086 A 
HETATM    7 CL   UNL     1     -43.711  57.684 -52.296  1.00  0.00    -0.080 Cl
ENDROOT
BRANCH   3   8
HETATM    8  N   UNL     1     -42.107  57.362 -57.919  1.00  0.00    -0.169 NA
HETATM    9  H   UNL     1     -41.370  58.041 -58.117  1.00  0.00     0.156 HD
BRANCH   8  10
HETATM   10  N   UNL     1     -43.214  57.465 -58.781  1.00  0.00    -0.281 N 
HETATM   11  C   UNL     1     -43.610  56.336 -59.460  1.00  0.00     0.255 C 
HETATM   12  O   UNL     1     -43.093  55.235 -59.311  1.00  0.00    -0.267 OA
HETATM   13  H   UNL     1     -43.556  58.407 -58.953  1.00  0.00     0.184 HD
BRANCH  11  14
HETATM   14  C   UNL     1     -44.726  56.596 -60.405  1.00  0.00     0.076 C 
HETATM   15  C   UNL     1     -45.836  57.213 -59.972  1.00  0.00     0.017 C 
BRANCH  15  16
HETATM   16  C   UNL     1     -47.023  57.518 -60.789  1.00  0.00    -0.036 A 
HETATM   17  C   UNL     1     -47.470  58.848 -60.842  1.00  0.00     0.013 A 
HETATM   18  C   UNL     1     -48.582  59.204 -61.613  1.00  0.00     0.024 A 
HETATM   19  C   UNL     1     -49.255  58.230 -62.344  1.00  0.00     0.034 A 
HETATM   20 CL   UNL     1     -50.626  58.662 -63.289  1.00  0.00    -0.084 Cl
HETATM   21  C   UNL     1     -48.822  56.907 -62.315  1.00  0.00     0.024 A 
HETATM   22  C   UNL     1     -47.707  56.554 -61.547  1.00  0.00     0.013 A 
ENDBRANCH  15  16
ENDBRANCH  11  14
ENDBRANCH   8  10
ENDBRANCH   3   8
BRANCH   1  23
HETATM   23  C   UNL     1     -42.535  55.052 -53.792  1.00  0.00     0.276 C 
HETATM   24  N   UNL     1     -41.227  54.592 -53.797  1.00  0.00    -0.322 N 
HETATM   25  H   UNL     1     -40.567  55.200 -54.274  1.00  0.00     0.169 HD
HETATM   26  O   UNL     1     -43.488  54.494 -53.267  1.00  0.00    -0.266 OA
BRANCH  24  27
HETATM   27  C   UNL     1     -40.717  53.407 -53.233  1.00  0.00     0.035 A 
HETATM   28  C   UNL     1     -40.351  52.283 -53.975  1.00  0.00     0.037 A 
HETATM   29  C   UNL     1     -39.837  51.129 -53.352  1.00  0.00    -0.054 A 
HETATM   30  C   UNL     1     -39.719  51.094 -51.949  1.00  0.00    -0.056 A 
HETATM   31  C   UNL     1     -39.468  49.946 -54.206  1.00  0.00     0.049 C 
HETATM   32  C   UNL     1     -39.190  49.883 -51.232  1.00  0.00     0.049 C 
HETATM   33  C   UNL     1     -40.076  52.228 -51.210  1.00  0.00     0.009 A 
HETATM   34  C   UNL     1     -40.569  53.372 -51.845  1.00  0.00     0.030 A 
ENDBRANCH  24  27
ENDBRANCH   1  23
TORSDOF 6
ENDMDL
MODEL 6
REMARK VINA RESULT:      -8.5      1.387      2.090
REMARK  6 active torsions:
REMARK  status: ('A' for Active; 'I' for Inactive)
REMARK    1  A    between atoms: C_6  and  N_7 
REMARK       I    between atoms: N_7  and  C_8 
REMARK    2  A    between atoms: C_8  and  C_9 
REMARK    3  A    between atoms: C_11  and  N_12 
REMARK    4  A    between atoms: N_12  and  N_13 
REMARK       I    between atoms: N_13  and  C_14 
REMARK    5  A    between atoms: C_14  and  C_15 
REMARK    6  A    between atoms: C_16  and  C_17 
ROOT
HETATM    1  C   UNL     1     -42.492  56.860 -56.759  1.00  0.00     0.151 A 
HETATM    2  N   UNL     1     -42.145  57.965 -56.024  1.00  0.00    -0.210 NA
HETATM    3  C   UNL     1     -42.169  59.146 -56.649  1.00  0.00     0.220 A 
HETATM    4  N   UNL     1     -42.535  59.299 -57.935  1.00  0.00    -0.228 NA
HETATM    5  C   UNL     1     -42.880  58.185 -58.617  1.00  0.00     0.146 A 
HETATM    6  C   UNL     1     -42.877  56.916 -58.084  1.00  0.00     0.086 A 
HETATM    7 CL   UNL     1     -43.341  55.609 -59.092  1.00  0.00    -0.080 Cl
ENDROOT
BRANCH   3   8
HETATM    8  N   UNL     1     -41.771  60.276 -55.922  1.00  0.00    -0.169 NA
HETATM    9  H   UNL     1     -40.753  60.289 -55.831  1.00  0.00     0.156 HD
BRANCH   8  10
HETATM   10  N   UNL     1     -42.448  60.414 -54.697  1.00  0.00    -0.281 N 
HETATM   11  C   UNL     1     -41.800  60.012 -53.553  1.00  0.00     0.255 C 
HETATM   12  O   UNL     1     -40.647  59.598 -53.532  1.00  0.00    -0.267 OA
HETATM   13  H   UNL     1     -43.431  60.668 -54.760  1.00  0.00     0.184 HD
BRANCH  11  14
HETATM   14  C   UNL     1     -42.653  60.120 -52.341  1.00  0.00     0.076 C 
HETATM   15  C   UNL     1     -43.339  61.250 -52.108  1.00  0.00     0.017 C 
BRANCH  15  16
HETATM   16  C   UNL     1     -44.205  61.504 -50.944  1.00  0.00    -0.036 A 
HETATM   17  C   UNL     1     -45.488  62.027 -51.172  1.00  0.00     0.013 A 
HETATM   18  C   UNL     1     -46.363  62.275 -50.109  1.00  0.00     0.024 A 
HETATM   19  C   UNL     1     -45.963  61.996 -48.806  1.00  0.00     0.034 A 
HETATM   20 CL   UNL     1     -47.035  62.304 -47.496  1.00  0.00    -0.084 Cl
HETATM   21  C   UNL     1     -44.701  61.466 -48.559  1.00  0.00     0.024 A 
HETATM   22  C   UNL     1     -43.828  61.214 -49.624  1.00  0.00     0.013 A 
ENDBRANCH  15  16
ENDBRANCH  11  14
ENDBRANCH   8  10
ENDBRANCH   3   8
BRANCH   1  23
HETATM   23  C   UNL     1     -42.399  55.569 -55.984  1.00  0.00     0.276 C 
HETATM   24  N   UNL     1     -41.275  55.505 -55.175  1.00  0.00    -0.322 N 
HETATM   25  H   UNL     1     -40.684  56.331 -55.206  1.00  0.00     0.169 HD
HETATM   26  O   UNL     1     -43.252  54.700 -56.094  1.00  0.00    -0.266 OA
BRANCH  24  27
HETATM   27  C   UNL     1     -40.862  54.452 -54.336  1.00  0.00     0.035 A 
HETATM   28  C   UNL     1     -40.905  54.500 -52.942  1.00  0.00     0.037 A 
HETATM   29  C   UNL     1     -40.487  53.407 -52.159  1.00  0.00    -0.054 A 
HETATM   30  C   UNL     1     -39.985  52.254 -52.790  1.00  0.00    -0.056 A 
HETATM   31  C   UNL     1     -40.550  53.524 -50.658  1.00  0.00     0.049 C 
HETATM   32  C   UNL     1     -39.512  51.064 -52.000  1.00  0.00     0.049 C 
HETATM   33  C   UNL     1     -39.955  52.206 -54.189  1.00  0.00     0.009 A 
HETATM   34  C   UNL     1     -40.389  53.292 -54.953  1.00  0.00     0.030 A 
ENDBRANCH  24  27
ENDBRANCH   1  23
TORSDOF 6
ENDMDL
MODEL 7
REMARK VINA RESULT:      -8.3      4.159      9.754
REMARK  6 active torsions:
REMARK  status: ('A' for Active; 'I' for Inactive)
REMARK    1  A    between atoms: C_6  and  N_7 
REMARK       I    between atoms: N_7  and  C_8 
REMARK    2  A    between atoms: C_8  and  C_9 
REMARK    3  A    between atoms: C_11  and  N_12 
REMARK    4  A    between atoms: N_12  and  N_13 
REMARK       I    between atoms: N_13  and  C_14 
REMARK    5  A    between atoms: C_14  and  C_15 
REMARK    6  A    between atoms: C_16  and  C_17 
ROOT
HETATM    1  C   UNL     1     -42.513  60.402 -55.716  1.00  0.00     0.151 A 
HETATM    2  N   UNL     1     -41.640  60.001 -54.737  1.00  0.00    -0.210 NA
HETATM    3  C   UNL     1     -42.087  60.013 -53.478  1.00  0.00     0.220 A 
HETATM    4  N   UNL     1     -43.340  60.370 -53.138  1.00  0.00    -0.228 NA
HETATM    5  C   UNL     1     -44.168  60.746 -54.136  1.00  0.00     0.146 A 
HETATM    6  C   UNL     1     -43.814  60.789 -55.465  1.00  0.00     0.086 A 
HETATM    7 CL   UNL     1     -44.990  61.295 -56.605  1.00  0.00    -0.080 Cl
ENDROOT
BRANCH   3   8
HETATM    8  N   UNL     1     -41.190  59.651 -52.464  1.00  0.00    -0.169 NA
HETATM    9  H   UNL     1     -40.425  60.327 -52.420  1.00  0.00     0.156 HD
BRANCH   8  10
HETATM   10  N   UNL     1     -40.757  58.316 -52.558  1.00  0.00    -0.281 N 
HETATM   11  C   UNL     1     -41.449  57.362 -51.847  1.00  0.00     0.255 C 
HETATM   12  O   UNL     1     -42.454  57.600 -51.187  1.00  0.00    -0.267 OA
HETATM   13  H   UNL     1     -39.870  58.169 -53.033  1.00  0.00     0.184 HD
BRANCH  11  14
HETATM   14  C   UNL     1     -40.840  56.012 -51.954  1.00  0.00     0.076 C 
HETATM   15  C   UNL     1     -41.312  55.137 -52.855  1.00  0.00     0.017 C 
BRANCH  15  16
HETATM   16  C   UNL     1     -40.821  53.763 -53.059  1.00  0.00    -0.036 A 
HETATM   17  C   UNL     1     -40.240  53.096 -51.969  1.00  0.00     0.013 A 
HETATM   18  C   UNL     1     -39.769  51.785 -52.095  1.00  0.00     0.024 A 
HETATM   19  C   UNL     1     -39.880  51.127 -53.315  1.00  0.00     0.034 A 
HETATM   20 CL   UNL     1     -39.298  49.516 -53.476  1.00  0.00    -0.084 Cl
HETATM   21  C   UNL     1     -40.463  51.765 -54.405  1.00  0.00     0.024 A 
HETATM   22  C   UNL     1     -40.938  53.075 -54.276  1.00  0.00     0.013 A 
ENDBRANCH  15  16
ENDBRANCH  11  14
ENDBRANCH   8  10
ENDBRANCH   3   8
BRANCH   1  23
HETATM   23  C   UNL     1     -41.910  60.394 -57.099  1.00  0.00     0.276 C 
HETATM   24  N   UNL     1     -41.656  61.667 -57.585  1.00  0.00    -0.322 N 
HETATM   25  H   UNL     1     -41.895  62.419 -56.945  1.00  0.00     0.169 HD
HETATM   26  O   UNL     1     -41.689  59.346 -57.689  1.00  0.00    -0.266 OA
BRANCH  24  27
HETATM   27  C   UNL     1     -41.119  62.033 -58.835  1.00  0.00     0.035 A 
HETATM   28  C   UNL     1     -41.717  61.735 -60.060  1.00  0.00     0.037 A 
HETATM   29  C   UNL     1     -41.135  62.138 -61.276  1.00  0.00    -0.054 A 
HETATM   30  C   UNL     1     -39.908  62.828 -61.262  1.00  0.00    -0.056 A 
HETATM   31  C   UNL     1     -41.824  61.779 -62.566  1.00  0.00     0.049 C 
HETATM   32  C   UNL     1     -39.236  63.270 -62.533  1.00  0.00     0.049 C 
HETATM   33  C   UNL     1     -39.317  63.136 -60.030  1.00  0.00     0.009 A 
HETATM   34  C   UNL     1     -39.917  62.744 -58.830  1.00  0.00     0.030 A 
ENDBRANCH  24  27
ENDBRANCH   1  23
TORSDOF 6
ENDMDL
MODEL 8
REMARK VINA RESULT:      -8.3      3.987      7.293
REMARK  6 active torsions:
REMARK  status: ('A' for Active; 'I' for Inactive)
REMARK    1  A    between atoms: C_6  and  N_7 
REMARK       I    between atoms: N_7  and  C_8 
REMARK    2  A    between atoms: C_8  and  C_9 
REMARK    3  A    between atoms: C_11  and  N_12 
REMARK    4  A    between atoms: N_12  and  N_13 
REMARK       I    between atoms: N_13  and  C_14 
REMARK    5  A    between atoms: C_14  and  C_15 
REMARK    6  A    between atoms: C_16  and  C_17 
ROOT
HETATM    1  C   UNL     1     -43.219  56.337 -52.949  1.00  0.00     0.151 A 
HETATM    2  N   UNL     1     -44.009  56.382 -54.069  1.00  0.00    -0.210 NA
HETATM    3  C   UNL     1     -44.365  57.590 -54.517  1.00  0.00     0.220 A 
HETATM    4  N   UNL     1     -43.970  58.741 -53.943  1.00  0.00    -0.228 NA
HETATM    5  C   UNL     1     -43.184  58.649 -52.849  1.00  0.00     0.146 A 
HETATM    6  C   UNL     1     -42.767  57.463 -52.289  1.00  0.00     0.086 A 
HETATM    7 CL   UNL     1     -41.771  57.526 -50.895  1.00  0.00    -0.080 Cl
ENDROOT
BRANCH   3   8
HETATM    8  N   UNL     1     -45.212  57.647 -55.633  1.00  0.00    -0.169 NA
HETATM    9  H   UNL     1     -45.362  56.707 -56.003  1.00  0.00     0.156 HD
BRANCH   8  10
HETATM   10  N   UNL     1     -44.788  58.573 -56.602  1.00  0.00    -0.281 N 
HETATM   11  C   UNL     1     -44.055  58.104 -57.667  1.00  0.00     0.255 C 
HETATM   12  O   UNL     1     -43.802  56.919 -57.850  1.00  0.00    -0.267 OA
HETATM   13  H   UNL     1     -44.932  59.554 -56.372  1.00  0.00     0.184 HD
BRANCH  11  14
HETATM   14  C   UNL     1     -43.590  59.189 -58.568  1.00  0.00     0.076 C 
HETATM   15  C   UNL     1     -42.309  59.589 -58.523  1.00  0.00     0.017 C 
BRANCH  15  16
HETATM   16  C   UNL     1     -41.715  60.660 -59.341  1.00  0.00    -0.036 A 
HETATM   17  C   UNL     1     -40.911  61.617 -58.701  1.00  0.00     0.013 A 
HETATM   18  C   UNL     1     -40.306  62.650 -59.425  1.00  0.00     0.024 A 
HETATM   19  C   UNL     1     -40.495  62.730 -60.801  1.00  0.00     0.034 A 
HETATM   20 CL   UNL     1     -39.756  64.001 -61.695  1.00  0.00    -0.084 Cl
HETATM   21  C   UNL     1     -41.277  61.785 -61.457  1.00  0.00     0.024 A 
HETATM   22  C   UNL     1     -41.879  60.750 -60.731  1.00  0.00     0.013 A 
ENDBRANCH  15  16
ENDBRANCH  11  14
ENDBRANCH   8  10
ENDBRANCH   3   8
BRANCH   1  23
HETATM   23  C   UNL     1     -42.899  54.935 -52.494  1.00  0.00     0.276 C 
HETATM   24  N   UNL     1     -41.571  54.592 -52.694  1.00  0.00    -0.322 N 
HETATM   25  H   UNL     1     -41.001  55.328 -53.101  1.00  0.00     0.169 HD
HETATM   26  O   UNL     1     -43.759  54.214 -52.007  1.00  0.00    -0.266 OA
BRANCH  24  27
HETATM   27  C   UNL     1     -40.933  53.369 -52.407  1.00  0.00     0.035 A 
HETATM   28  C   UNL     1     -40.517  52.458 -53.379  1.00  0.00     0.037 A 
HETATM   29  C   UNL     1     -39.875  51.255 -53.028  1.00  0.00    -0.054 A 
HETATM   30  C   UNL     1     -39.675  50.947 -51.669  1.00  0.00    -0.056 A 
HETATM   31  C   UNL     1     -39.457  50.309 -54.123  1.00  0.00     0.049 C 
HETATM   32  C   UNL     1     -39.007  49.671 -51.239  1.00  0.00     0.049 C 
HETATM   33  C   UNL     1     -40.083  51.870 -50.698  1.00  0.00     0.009 A 
HETATM   34  C   UNL     1     -40.704  53.068 -51.063  1.00  0.00     0.030 A 
ENDBRANCH  24  27
ENDBRANCH   1  23
TORSDOF 6
ENDMDL
MODEL 9
REMARK VINA RESULT:      -8.2      3.622      8.807
REMARK  6 active torsions:
REMARK  status: ('A' for Active; 'I' for Inactive)
REMARK    1  A    between atoms: C_6  and  N_7 
REMARK       I    between atoms: N_7  and  C_8 
REMARK    2  A    between atoms: C_8  and  C_9 
REMARK    3  A    between atoms: C_11  and  N_12 
REMARK    4  A    between atoms: N_12  and  N_13 
REMARK       I    between atoms: N_13  and  C_14 
REMARK    5  A    between atoms: C_14  and  C_15 
REMARK    6  A    between atoms: C_16  and  C_17 
ROOT
HETATM    1  C   UNL     1     -44.803  60.372 -53.804  1.00  0.00     0.151 A 
HETATM    2  N   UNL     1     -44.153  59.456 -53.015  1.00  0.00    -0.210 NA
HETATM    3  C   UNL     1     -44.123  59.696 -51.701  1.00  0.00     0.220 A 
HETATM    4  N   UNL     1     -44.712  60.761 -51.126  1.00  0.00    -0.228 NA
HETATM    5  C   UNL     1     -45.350  61.629 -51.940  1.00  0.00     0.146 A 
HETATM    6  C   UNL     1     -45.432  61.496 -53.307  1.00  0.00     0.086 A 
HETATM    7 CL   UNL     1     -46.280  62.694 -54.193  1.00  0.00    -0.080 Cl
ENDROOT
BRANCH   3   8
HETATM    8  N   UNL     1     -43.421  58.793 -50.891  1.00  0.00    -0.169 NA
HETATM    9  H   UNL     1     -42.649  59.273 -50.424  1.00  0.00     0.156 HD
BRANCH   8  10
HETATM   10  N   UNL     1     -43.031  57.626 -51.571  1.00  0.00    -0.281 N 
HETATM   11  C   UNL     1     -43.696  56.457 -51.283  1.00  0.00     0.255 C 
HETATM   12  O   UNL     1     -44.647  56.387 -50.513  1.00  0.00    -0.267 OA
HETATM   13  H   UNL     1     -42.182  57.700 -52.127  1.00  0.00     0.184 HD
BRANCH  11  14
HETATM   14  C   UNL     1     -43.130  55.283 -51.994  1.00  0.00     0.076 C 
HETATM   15  C   UNL     1     -41.954  54.768 -51.602  1.00  0.00     0.017 C 
BRANCH  15  16
HETATM   16  C   UNL     1     -41.267  53.623 -52.222  1.00  0.00    -0.036 A 
HETATM   17  C   UNL     1     -41.565  53.314 -53.559  1.00  0.00     0.013 A 
HETATM   18  C   UNL     1     -40.934  52.247 -54.209  1.00  0.00     0.024 A 
HETATM   19  C   UNL     1     -39.993  51.482 -53.526  1.00  0.00     0.034 A 
HETATM   20 CL   UNL     1     -39.218  50.168 -54.320  1.00  0.00    -0.084 Cl
HETATM   21  C   UNL     1     -39.674  51.779 -52.205  1.00  0.00     0.024 A 
HETATM   22  C   UNL     1     -40.304  52.849 -51.557  1.00  0.00     0.013 A 
ENDBRANCH  15  16
ENDBRANCH  11  14
ENDBRANCH   8  10
ENDBRANCH   3   8
BRANCH   1  23
HETATM   23  C   UNL     1     -44.752  60.041 -55.275  1.00  0.00     0.276 C 
HETATM   24  N   UNL     1     -45.328  58.815 -55.573  1.00  0.00    -0.322 N 
HETATM   25  H   UNL     1     -45.712  58.322 -54.772  1.00  0.00     0.169 HD
HETATM   26  O   UNL     1     -44.243  60.807 -56.081  1.00  0.00    -0.266 OA
BRANCH  24  27
HETATM   27  C   UNL     1     -45.440  58.186 -56.828  1.00  0.00     0.035 A 
HETATM   28  C   UNL     1     -44.380  57.559 -57.485  1.00  0.00     0.037 A 
HETATM   29  C   UNL     1     -44.559  56.938 -58.736  1.00  0.00    -0.054 A 
HETATM   30  C   UNL     1     -45.823  56.976 -59.354  1.00  0.00    -0.056 A 
HETATM   31  C   UNL     1     -43.374  56.285 -59.398  1.00  0.00     0.049 C 
HETATM   32  C   UNL     1     -46.065  56.340 -60.695  1.00  0.00     0.049 C 
HETATM   33  C   UNL     1     -46.886  57.595 -58.686  1.00  0.00     0.009 A 
HETATM   34  C   UNL     1     -46.697  58.192 -57.437  1.00  0.00     0.030 A 
ENDBRANCH  24  27
ENDBRANCH   1  23
TORSDOF 6
ENDMDL
MODEL 10
REMARK VINA RESULT:      -8.1      3.307      7.438
REMARK  6 active torsions:
REMARK  status: ('A' for Active; 'I' for Inactive)
REMARK    1  A    between atoms: C_6  and  N_7 
REMARK       I    between atoms: N_7  and  C_8 
REMARK    2  A    between atoms: C_8  and  C_9 
REMARK    3  A    between atoms: C_11  and  N_12 
REMARK    4  A    between atoms: N_12  and  N_13 
REMARK       I    between atoms: N_13  and  C_14 
REMARK    5  A    between atoms: C_14  and  C_15 
REMARK    6  A    between atoms: C_16  and  C_17 
ROOT
HETATM    1  C   UNL     1     -42.634  58.340 -51.827  1.00  0.00     0.151 A 
HETATM    2  N   UNL     1     -43.578  58.868 -52.671  1.00  0.00    -0.210 NA
HETATM    3  C   UNL     1     -43.759  60.191 -52.633  1.00  0.00     0.220 A 
HETATM    4  N   UNL     1     -43.053  61.015 -51.837  1.00  0.00    -0.228 NA
HETATM    5  C   UNL     1     -42.126  60.453 -51.031  1.00  0.00     0.146 A 
HETATM    6  C   UNL     1     -41.864  59.103 -50.972  1.00  0.00     0.086 A 
HETATM    7 CL   UNL     1     -40.653  58.556 -49.889  1.00  0.00    -0.080 Cl
ENDROOT
BRANCH   3   8
HETATM    8  N   UNL     1     -44.754  60.736 -53.456  1.00  0.00    -0.169 NA
HETATM    9  H   UNL     1     -45.640  60.776 -52.949  1.00  0.00     0.156 HD
BRANCH   8  10
HETATM   10  N   UNL     1     -44.848  60.100 -54.707  1.00  0.00    -0.281 N 
HETATM   11  C   UNL     1     -45.631  60.688 -55.672  1.00  0.00     0.255 C 
HETATM   12  O   UNL     1     -46.202  61.762 -55.526  1.00  0.00    -0.267 OA
HETATM   13  H   UNL     1     -44.443  59.168 -54.762  1.00  0.00     0.184 HD
BRANCH  11  14
HETATM   14  C   UNL     1     -45.724  59.874 -56.912  1.00  0.00     0.076 C 
HETATM   15  C   UNL     1     -45.181  58.647 -56.945  1.00  0.00     0.017 C 
BRANCH  15  16
HETATM   16  C   UNL     1     -45.181  57.739 -58.105  1.00  0.00    -0.036 A 
HETATM   17  C   UNL     1     -44.013  57.010 -58.379  1.00  0.00     0.013 A 
HETATM   18  C   UNL     1     -43.955  56.120 -59.456  1.00  0.00     0.024 A 
HETATM   19  C   UNL     1     -45.072  55.948 -60.269  1.00  0.00     0.034 A 
HETATM   20 CL   UNL     1     -45.004  54.857 -61.598  1.00  0.00    -0.084 Cl
HETATM   21  C   UNL     1     -46.244  56.651 -60.009  1.00  0.00     0.024 A 
HETATM   22  C   UNL     1     -46.300  57.538 -58.927  1.00  0.00     0.013 A 
ENDBRANCH  15  16
ENDBRANCH  11  14
ENDBRANCH   8  10
ENDBRANCH   3   8
BRANCH   1  23
HETATM   23  C   UNL     1     -42.526  56.837 -51.910  1.00  0.00     0.276 C 
HETATM   24  N   UNL     1     -41.451  56.415 -52.677  1.00  0.00    -0.322 N 
HETATM   25  H   UNL     1     -40.884  57.166 -53.061  1.00  0.00     0.169 HD
HETATM   26  O   UNL     1     -43.329  56.111 -51.343  1.00  0.00    -0.266 OA
BRANCH  24  27
HETATM   27  C   UNL     1     -41.062  55.096 -52.983  1.00  0.00     0.035 A 
HETATM   28  C   UNL     1     -40.693  54.149 -52.027  1.00  0.00     0.037 A 
HETATM   29  C   UNL     1     -40.322  52.842 -52.397  1.00  0.00    -0.054 A 
HETATM   30  C   UNL     1     -40.291  52.490 -53.759  1.00  0.00    -0.056 A 
HETATM   31  C   UNL     1     -39.926  51.867 -51.319  1.00  0.00     0.049 C 
HETATM   32  C   UNL     1     -39.891  51.112 -54.210  1.00  0.00     0.049 C 
HETATM   33  C   UNL     1     -40.674  53.440 -54.714  1.00  0.00     0.009 A 
HETATM   34  C   UNL     1     -41.056  54.728 -54.330  1.00  0.00     0.030 A 
ENDBRANCH  24  27
ENDBRANCH   1  23
TORSDOF 6
ENDMDL
