MODEL 1
REMARK VINA RESULT:      -9.0      0.000      0.000
REMARK  6 active torsions:
REMARK  status: ('A' for Active; 'I' for Inactive)
REMARK    1  A    between atoms: C_2  and  C_3 
REMARK    2  A    between atoms: C_3  and  C_4 
REMARK    3  A    between atoms: C_4  and  C_5 
REMARK    4  A    between atoms: C_4  and  C_21 
REMARK       I    between atoms: C_5  and  N_6 
REMARK    5  A    between atoms: N_6  and  C_7 
REMARK    6  A    between atoms: C_14  and  C_15 
REMARK       I    between atoms: C_15  and  N_16 
ROOT
HETATM    1  C   UNL     1     -42.704  55.414 -56.355  1.00  0.00     0.035 A 
HETATM    2  C   UNL     1     -43.367  55.031 -57.529  1.00  0.00     0.046 A 
HETATM    3  C   UNL     1     -43.552  55.975 -58.564  1.00  0.00     0.030 A 
HETATM    4  C   UNL     1     -43.085  57.270 -58.383  1.00  0.00     0.063 A 
HETATM    5  N   UNL     1     -43.409  57.937 -59.530  1.00  0.00    -0.277 N 
HETATM    6  H   UNL     1     -43.223  58.909 -59.747  1.00  0.00     0.189 HD
HETATM    7  N   UNL     1     -44.034  57.188 -60.453  1.00  0.00    -0.168 NA
HETATM    8  C   UNL     1     -44.128  55.970 -59.871  1.00  0.00     0.156 A 
HETATM    9  C   UNL     1     -42.428  57.688 -57.224  1.00  0.00     0.034 A 
HETATM   10  C   UNL     1     -42.242  56.729 -56.220  1.00  0.00     0.032 A 
ENDROOT
BRANCH   1  11
HETATM   11  N   UNL     1     -42.436  54.536 -55.284  1.00  0.00    -0.327 N 
HETATM   12  C   UNL     1     -41.218  53.961 -54.933  1.00  0.00     0.231 C 
HETATM   13  O   UNL     1     -40.185  54.044 -55.587  1.00  0.00    -0.272 OA
HETATM   14  H   UNL     1     -43.217  54.334 -54.669  1.00  0.00     0.169 HD
BRANCH  12  15
HETATM   15  C   UNL     1     -41.308  53.163 -53.613  1.00  0.00     0.115 C 
BRANCH  15  16
HETATM   16  C   UNL     1     -40.067  52.281 -53.277  1.00  0.00    -0.001 C 
HETATM   17  C   UNL     1     -40.013  50.955 -54.052  1.00  0.00     0.011 C 
BRANCH  16  18
HETATM   18  C   UNL     1     -39.889  51.997 -51.767  1.00  0.00     0.001 C 
HETATM   19  C   UNL     1     -39.532  50.552 -51.445  1.00  0.00     0.005 C 
ENDBRANCH  16  18
ENDBRANCH  15  16
BRANCH  15  20
HETATM   20  C   UNL     1     -41.711  54.036 -52.420  1.00  0.00    -0.045 A 
HETATM   21  C   UNL     1     -40.890  55.111 -52.044  1.00  0.00     0.008 A 
HETATM   22  C   UNL     1     -41.235  55.926 -50.963  1.00  0.00     0.001 A 
HETATM   23  C   UNL     1     -42.404  55.679 -50.248  1.00  0.00     0.000 A 
HETATM   24  C   UNL     1     -43.233  54.622 -50.616  1.00  0.00     0.001 A 
HETATM   25  C   UNL     1     -42.894  53.808 -51.698  1.00  0.00     0.008 A 
ENDBRANCH  15  20
ENDBRANCH  12  15
ENDBRANCH   1  11
BRANCH   8  26
HETATM   26  C   UNL     1     -44.748  54.839 -60.574  1.00  0.00     0.270 C 
HETATM   27  N   UNL     1     -45.168  53.830 -59.749  1.00  0.00    -0.365 N 
HETATM   28  H   UNL     1     -45.037  53.936 -58.750  1.00  0.00     0.159 HD
HETATM   29  H   UNL     1     -45.623  53.022 -60.141  1.00  0.00     0.159 HD
HETATM   30  O   UNL     1     -44.903  54.768 -61.789  1.00  0.00    -0.266 OA
ENDBRANCH   8  26
TORSDOF 6
ENDMDL
MODEL 2
REMARK VINA RESULT:      -8.7      1.846      3.639
REMARK  6 active torsions:
REMARK  status: ('A' for Active; 'I' for Inactive)
REMARK    1  A    between atoms: C_2  and  C_3 
REMARK    2  A    between atoms: C_3  and  C_4 
REMARK    3  A    between atoms: C_4  and  C_5 
REMARK    4  A    between atoms: C_4  and  C_21 
REMARK       I    between atoms: C_5  and  N_6 
REMARK    5  A    between atoms: N_6  and  C_7 
REMARK    6  A    between atoms: C_14  and  C_15 
REMARK       I    between atoms: C_15  and  N_16 
ROOT
HETATM    1  C   UNL     1     -41.563  56.623 -54.488  1.00  0.00     0.035 A 
HETATM    2  C   UNL     1     -41.979  56.219 -55.764  1.00  0.00     0.046 A 
HETATM    3  C   UNL     1     -42.473  57.182 -56.673  1.00  0.00     0.030 A 
HETATM    4  C   UNL     1     -42.549  58.509 -56.269  1.00  0.00     0.063 A 
HETATM    5  N   UNL     1     -43.060  59.185 -57.340  1.00  0.00    -0.277 N 
HETATM    6  H   UNL     1     -43.255  60.178 -57.402  1.00  0.00     0.189 HD
HETATM    7  N   UNL     1     -43.310  58.421 -58.415  1.00  0.00    -0.168 NA
HETATM    8  C   UNL     1     -42.950  57.178 -58.019  1.00  0.00     0.156 A 
HETATM    9  C   UNL     1     -42.151  58.945 -55.004  1.00  0.00     0.034 A 
HETATM   10  C   UNL     1     -41.650  57.974 -54.127  1.00  0.00     0.032 A 
ENDROOT
BRANCH   1  11
HETATM   11  N   UNL     1     -41.020  55.745 -53.526  1.00  0.00    -0.327 N 
HETATM   12  C   UNL     1     -41.545  54.536 -53.080  1.00  0.00     0.231 C 
HETATM   13  O   UNL     1     -42.647  54.091 -53.381  1.00  0.00    -0.272 OA
HETATM   14  H   UNL     1     -40.117  56.005 -53.146  1.00  0.00     0.169 HD
BRANCH  12  15
HETATM   15  C   UNL     1     -40.584  53.803 -52.116  1.00  0.00     0.115 C 
BRANCH  15  16
HETATM   16  C   UNL     1     -41.006  53.808 -50.615  1.00  0.00    -0.001 C 
HETATM   17  C   UNL     1     -42.338  54.525 -50.343  1.00  0.00     0.011 C 
BRANCH  16  18
HETATM   18  C   UNL     1     -39.923  54.362 -49.660  1.00  0.00     0.001 C 
HETATM   19  C   UNL     1     -40.180  54.062 -48.189  1.00  0.00     0.005 C 
ENDBRANCH  16  18
ENDBRANCH  15  16
BRANCH  15  20
HETATM   20  C   UNL     1     -40.235  52.389 -52.593  1.00  0.00    -0.045 A 
HETATM   21  C   UNL     1     -39.847  51.420 -51.654  1.00  0.00     0.008 A 
HETATM   22  C   UNL     1     -39.527  50.123 -52.059  1.00  0.00     0.001 A 
HETATM   23  C   UNL     1     -39.594  49.777 -53.407  1.00  0.00     0.000 A 
HETATM   24  C   UNL     1     -39.987  50.724 -54.349  1.00  0.00     0.001 A 
HETATM   25  C   UNL     1     -40.311  52.021 -53.946  1.00  0.00     0.008 A 
ENDBRANCH  15  20
ENDBRANCH  12  15
ENDBRANCH   1  11
BRANCH   8  26
HETATM   26  C   UNL     1     -43.056  56.030 -58.930  1.00  0.00     0.270 C 
HETATM   27  N   UNL     1     -43.963  55.085 -58.533  1.00  0.00    -0.365 N 
HETATM   28  H   UNL     1     -44.485  55.243 -57.679  1.00  0.00     0.159 HD
HETATM   29  H   UNL     1     -44.118  54.271 -59.106  1.00  0.00     0.159 HD
HETATM   30  O   UNL     1     -42.414  55.895 -59.966  1.00  0.00    -0.266 OA
ENDBRANCH   8  26
TORSDOF 6
ENDMDL
MODEL 3
REMARK VINA RESULT:      -8.4      1.377      3.304
REMARK  6 active torsions:
REMARK  status: ('A' for Active; 'I' for Inactive)
REMARK    1  A    between atoms: C_2  and  C_3 
REMARK    2  A    between atoms: C_3  and  C_4 
REMARK    3  A    between atoms: C_4  and  C_5 
REMARK    4  A    between atoms: C_4  and  C_21 
REMARK       I    between atoms: C_5  and  N_6 
REMARK    5  A    between atoms: N_6  and  C_7 
REMARK    6  A    between atoms: C_14  and  C_15 
REMARK       I    between atoms: C_15  and  N_16 
ROOT
HETATM    1  C   UNL     1     -42.373  56.593 -56.152  1.00  0.00     0.035 A 
HETATM    2  C   UNL     1     -43.003  55.790 -57.113  1.00  0.00     0.046 A 
HETATM    3  C   UNL     1     -43.423  56.364 -58.334  1.00  0.00     0.030 A 
HETATM    4  C   UNL     1     -43.212  57.721 -58.545  1.00  0.00     0.063 A 
HETATM    5  N   UNL     1     -43.718  57.978 -59.788  1.00  0.00    -0.277 N 
HETATM    6  H   UNL     1     -43.740  58.870 -60.269  1.00  0.00     0.189 HD
HETATM    7  N   UNL     1     -44.227  56.905 -60.416  1.00  0.00    -0.168 NA
HETATM    8  C   UNL     1     -44.049  55.898 -59.530  1.00  0.00     0.156 A 
HETATM    9  C   UNL     1     -42.596  58.552 -57.608  1.00  0.00     0.034 A 
HETATM   10  C   UNL     1     -42.175  57.956 -56.413  1.00  0.00     0.032 A 
ENDROOT
BRANCH   1  11
HETATM   11  N   UNL     1     -41.885  56.107 -54.922  1.00  0.00    -0.327 N 
HETATM   12  C   UNL     1     -42.496  55.205 -54.056  1.00  0.00     0.231 C 
HETATM   13  O   UNL     1     -43.635  54.769 -54.181  1.00  0.00    -0.272 OA
HETATM   14  H   UNL     1     -40.957  56.418 -54.657  1.00  0.00     0.169 HD
BRANCH  12  15
HETATM   15  C   UNL     1     -41.579  54.818 -52.873  1.00  0.00     0.115 C 
BRANCH  15  16
HETATM   16  C   UNL     1     -42.222  54.942 -51.458  1.00  0.00    -0.001 C 
HETATM   17  C   UNL     1     -43.432  54.020 -51.238  1.00  0.00     0.011 C 
BRANCH  16  18
HETATM   18  C   UNL     1     -42.604  56.389 -51.068  1.00  0.00     0.001 C 
HETATM   19  C   UNL     1     -44.105  56.643 -51.019  1.00  0.00     0.005 C 
ENDBRANCH  16  18
ENDBRANCH  15  16
BRANCH  15  20
HETATM   20  C   UNL     1     -40.913  53.452 -53.065  1.00  0.00    -0.045 A 
HETATM   21  C   UNL     1     -40.143  52.907 -52.025  1.00  0.00     0.008 A 
HETATM   22  C   UNL     1     -39.528  51.662 -52.171  1.00  0.00     0.001 A 
HETATM   23  C   UNL     1     -39.676  50.945 -53.356  1.00  0.00     0.000 A 
HETATM   24  C   UNL     1     -40.444  51.468 -54.393  1.00  0.00     0.001 A 
HETATM   25  C   UNL     1     -41.064  52.711 -54.248  1.00  0.00     0.008 A 
ENDBRANCH  15  20
ENDBRANCH  12  15
ENDBRANCH   1  11
BRANCH   8  26
HETATM   26  C   UNL     1     -44.466  54.525 -59.847  1.00  0.00     0.270 C 
HETATM   27  N   UNL     1     -44.882  54.352 -61.140  1.00  0.00    -0.365 N 
HETATM   28  H   UNL     1     -44.862  55.149 -61.765  1.00  0.00     0.159 HD
HETATM   29  H   UNL     1     -45.168  53.439 -61.453  1.00  0.00     0.159 HD
HETATM   30  O   UNL     1     -44.451  53.587 -59.057  1.00  0.00    -0.266 OA
ENDBRANCH   8  26
TORSDOF 6
ENDMDL
MODEL 4
REMARK VINA RESULT:      -8.2      2.035      2.439
REMARK  6 active torsions:
REMARK  status: ('A' for Active; 'I' for Inactive)
REMARK    1  A    between atoms: C_2  and  C_3 
REMARK    2  A    between atoms: C_3  and  C_4 
REMARK    3  A    between atoms: C_4  and  C_5 
REMARK    4  A    between atoms: C_4  and  C_21 
REMARK       I    between atoms: C_5  and  N_6 
REMARK    5  A    between atoms: N_6  and  C_7 
REMARK    6  A    between atoms: C_14  and  C_15 
REMARK       I    between atoms: C_15  and  N_16 
ROOT
HETATM    1  C   UNL     1     -42.129  56.754 -55.255  1.00  0.00     0.035 A 
HETATM    2  C   UNL     1     -42.220  56.673 -56.652  1.00  0.00     0.046 A 
HETATM    3  C   UNL     1     -42.507  57.837 -57.400  1.00  0.00     0.030 A 
HETATM    4  C   UNL     1     -42.710  59.035 -56.727  1.00  0.00     0.063 A 
HETATM    5  N   UNL     1     -42.967  59.959 -57.700  1.00  0.00    -0.277 N 
HETATM    6  H   UNL     1     -43.167  60.944 -57.571  1.00  0.00     0.189 HD
HETATM    7  N   UNL     1     -42.935  59.474 -58.951  1.00  0.00    -0.168 NA
HETATM    8  C   UNL     1     -42.649  58.163 -58.784  1.00  0.00     0.156 A 
HETATM    9  C   UNL     1     -42.635  59.151 -55.338  1.00  0.00     0.034 A 
HETATM   10  C   UNL     1     -42.334  57.986 -54.620  1.00  0.00     0.032 A 
ENDROOT
BRANCH   1  11
HETATM   11  N   UNL     1     -41.810  55.659 -54.425  1.00  0.00    -0.327 N 
HETATM   12  C   UNL     1     -42.574  54.523 -54.178  1.00  0.00     0.231 C 
HETATM   13  O   UNL     1     -43.724  54.347 -54.566  1.00  0.00    -0.272 OA
HETATM   14  H   UNL     1     -40.894  55.683 -53.992  1.00  0.00     0.169 HD
BRANCH  12  15
HETATM   15  C   UNL     1     -41.817  53.487 -53.316  1.00  0.00     0.115 C 
BRANCH  15  16
HETATM   16  C   UNL     1     -40.526  52.894 -53.960  1.00  0.00    -0.001 C 
HETATM   17  C   UNL     1     -40.039  53.659 -55.201  1.00  0.00     0.011 C 
BRANCH  16  18
HETATM   18  C   UNL     1     -40.628  51.388 -54.297  1.00  0.00     0.001 C 
HETATM   19  C   UNL     1     -39.587  50.524 -53.599  1.00  0.00     0.005 C 
ENDBRANCH  16  18
ENDBRANCH  15  16
BRANCH  15  20
HETATM   20  C   UNL     1     -41.551  53.985 -51.892  1.00  0.00    -0.045 A 
HETATM   21  C   UNL     1     -40.298  53.753 -51.302  1.00  0.00     0.008 A 
HETATM   22  C   UNL     1     -40.026  54.199 -50.007  1.00  0.00     0.001 A 
HETATM   23  C   UNL     1     -41.001  54.884 -49.287  1.00  0.00     0.000 A 
HETATM   24  C   UNL     1     -42.246  55.130 -49.861  1.00  0.00     0.001 A 
HETATM   25  C   UNL     1     -42.519  54.689 -51.158  1.00  0.00     0.008 A 
ENDBRANCH  15  20
ENDBRANCH  12  15
ENDBRANCH   1  11
BRANCH   8  26
HETATM   26  C   UNL     1     -42.508  57.263 -59.936  1.00  0.00     0.270 C 
HETATM   27  N   UNL     1     -41.214  56.916 -60.219  1.00  0.00    -0.365 N 
HETATM   28  H   UNL     1     -40.475  57.281 -59.629  1.00  0.00     0.159 HD
HETATM   29  H   UNL     1     -41.021  56.286 -60.981  1.00  0.00     0.159 HD
HETATM   30  O   UNL     1     -43.439  56.831 -60.607  1.00  0.00    -0.266 OA
ENDBRANCH   8  26
TORSDOF 6
ENDMDL
MODEL 5
REMARK VINA RESULT:      -8.1      2.572      4.278
REMARK  6 active torsions:
REMARK  status: ('A' for Active; 'I' for Inactive)
REMARK    1  A    between atoms: C_2  and  C_3 
REMARK    2  A    between atoms: C_3  and  C_4 
REMARK    3  A    between atoms: C_4  and  C_5 
REMARK    4  A    between atoms: C_4  and  C_21 
REMARK       I    between atoms: C_5  and  N_6 
REMARK    5  A    between atoms: N_6  and  C_7 
REMARK    6  A    between atoms: C_14  and  C_15 
REMARK       I    between atoms: C_15  and  N_16 
ROOT
HETATM    1  C   UNL     1     -43.100  56.554 -57.515  1.00  0.00     0.035 A 
HETATM    2  C   UNL     1     -44.176  57.448 -57.603  1.00  0.00     0.046 A 
HETATM    3  C   UNL     1     -44.989  57.448 -58.759  1.00  0.00     0.030 A 
HETATM    4  C   UNL     1     -44.688  56.568 -59.791  1.00  0.00     0.063 A 
HETATM    5  N   UNL     1     -45.629  56.802 -60.754  1.00  0.00    -0.277 N 
HETATM    6  H   UNL     1     -45.714  56.342 -61.653  1.00  0.00     0.189 HD
HETATM    7  N   UNL     1     -46.528  57.747 -60.436  1.00  0.00    -0.168 NA
HETATM    8  C   UNL     1     -46.148  58.155 -59.204  1.00  0.00     0.156 A 
HETATM    9  C   UNL     1     -43.620  55.671 -59.741  1.00  0.00     0.034 A 
HETATM   10  C   UNL     1     -42.839  55.679 -58.578  1.00  0.00     0.032 A 
ENDROOT
BRANCH   1  11
HETATM   11  N   UNL     1     -42.256  56.451 -56.389  1.00  0.00    -0.327 N 
HETATM   12  C   UNL     1     -42.350  55.553 -55.331  1.00  0.00     0.231 C 
HETATM   13  O   UNL     1     -43.271  54.763 -55.154  1.00  0.00    -0.272 OA
HETATM   14  H   UNL     1     -41.461  57.079 -56.371  1.00  0.00     0.169 HD
BRANCH  12  15
HETATM   15  C   UNL     1     -41.154  55.671 -54.357  1.00  0.00     0.115 C 
BRANCH  15  16
HETATM   16  C   UNL     1     -41.335  56.698 -53.197  1.00  0.00    -0.001 C 
HETATM   17  C   UNL     1     -42.801  57.000 -52.852  1.00  0.00     0.011 C 
BRANCH  16  18
HETATM   18  C   UNL     1     -40.576  58.027 -53.412  1.00  0.00     0.001 C 
HETATM   19  C   UNL     1     -41.425  59.136 -54.021  1.00  0.00     0.005 C 
ENDBRANCH  16  18
ENDBRANCH  15  16
BRANCH  15  20
HETATM   20  C   UNL     1     -40.684  54.312 -53.831  1.00  0.00    -0.045 A 
HETATM   21  C   UNL     1     -40.673  54.073 -52.448  1.00  0.00     0.008 A 
HETATM   22  C   UNL     1     -40.252  52.841 -51.941  1.00  0.00     0.001 A 
HETATM   23  C   UNL     1     -39.841  51.834 -52.809  1.00  0.00     0.000 A 
HETATM   24  C   UNL     1     -39.855  52.052 -54.184  1.00  0.00     0.001 A 
HETATM   25  C   UNL     1     -40.279  53.281 -54.695  1.00  0.00     0.008 A 
ENDBRANCH  15  20
ENDBRANCH  12  15
ENDBRANCH   1  11
BRANCH   8  26
HETATM   26  C   UNL     1     -46.898  59.191 -58.481  1.00  0.00     0.270 C 
HETATM   27  N   UNL     1     -47.636  58.716 -57.430  1.00  0.00    -0.365 N 
HETATM   28  H   UNL     1     -47.604  57.723 -57.226  1.00  0.00     0.159 HD
HETATM   29  H   UNL     1     -48.168  59.356 -56.864  1.00  0.00     0.159 HD
HETATM   30  O   UNL     1     -46.887  60.386 -58.756  1.00  0.00    -0.266 OA
ENDBRANCH   8  26
TORSDOF 6
ENDMDL
MODEL 6
REMARK VINA RESULT:      -8.1      1.882      2.981
REMARK  6 active torsions:
REMARK  status: ('A' for Active; 'I' for Inactive)
REMARK    1  A    between atoms: C_2  and  C_3 
REMARK    2  A    between atoms: C_3  and  C_4 
REMARK    3  A    between atoms: C_4  and  C_5 
REMARK    4  A    between atoms: C_4  and  C_21 
REMARK       I    between atoms: C_5  and  N_6 
REMARK    5  A    between atoms: N_6  and  C_7 
REMARK    6  A    between atoms: C_14  and  C_15 
REMARK       I    between atoms: C_15  and  N_16 
ROOT
HETATM    1  C   UNL     1     -42.667  55.550 -56.575  1.00  0.00     0.035 A 
HETATM    2  C   UNL     1     -42.328  56.910 -56.555  1.00  0.00     0.046 A 
HETATM    3  C   UNL     1     -42.623  57.718 -57.675  1.00  0.00     0.030 A 
HETATM    4  C   UNL     1     -43.230  57.136 -58.782  1.00  0.00     0.063 A 
HETATM    5  N   UNL     1     -43.380  58.149 -59.687  1.00  0.00    -0.277 N 
HETATM    6  H   UNL     1     -43.785  58.086 -60.614  1.00  0.00     0.189 HD
HETATM    7  N   UNL     1     -42.940  59.345 -59.265  1.00  0.00    -0.168 NA
HETATM    8  C   UNL     1     -42.470  59.096 -58.020  1.00  0.00     0.156 A 
HETATM    9  C   UNL     1     -43.574  55.785 -58.840  1.00  0.00     0.034 A 
HETATM   10  C   UNL     1     -43.286  55.009 -57.710  1.00  0.00     0.032 A 
ENDROOT
BRANCH   1  11
HETATM   11  N   UNL     1     -42.450  54.671 -55.493  1.00  0.00    -0.327 N 
HETATM   12  C   UNL     1     -41.248  54.104 -55.081  1.00  0.00     0.231 C 
HETATM   13  O   UNL     1     -40.182  54.196 -55.680  1.00  0.00    -0.272 OA
HETATM   14  H   UNL     1     -43.260  54.463 -54.920  1.00  0.00     0.169 HD
BRANCH  12  15
HETATM   15  C   UNL     1     -41.401  53.302 -53.768  1.00  0.00     0.115 C 
BRANCH  15  16
HETATM   16  C   UNL     1     -40.195  52.384 -53.399  1.00  0.00    -0.001 C 
HETATM   17  C   UNL     1     -40.181  51.040 -54.144  1.00  0.00     0.011 C 
BRANCH  16  18
HETATM   18  C   UNL     1     -40.043  52.129 -51.881  1.00  0.00     0.001 C 
HETATM   19  C   UNL     1     -39.532  50.737 -51.534  1.00  0.00     0.005 C 
ENDBRANCH  16  18
ENDBRANCH  15  16
BRANCH  15  20
HETATM   20  C   UNL     1     -41.816  54.180 -52.584  1.00  0.00    -0.045 A 
HETATM   21  C   UNL     1     -41.046  55.307 -52.256  1.00  0.00     0.008 A 
HETATM   22  C   UNL     1     -41.403  56.128 -51.184  1.00  0.00     0.001 A 
HETATM   23  C   UNL     1     -42.536  55.834 -50.429  1.00  0.00     0.000 A 
HETATM   24  C   UNL     1     -43.316  54.725 -50.747  1.00  0.00     0.001 A 
HETATM   25  C   UNL     1     -42.963  53.905 -51.821  1.00  0.00     0.008 A 
ENDBRANCH  15  20
ENDBRANCH  12  15
ENDBRANCH   1  11
BRANCH   8  26
HETATM   26  C   UNL     1     -41.904  60.170 -57.194  1.00  0.00     0.270 C 
HETATM   27  N   UNL     1     -42.559  60.367 -56.008  1.00  0.00    -0.365 N 
HETATM   28  H   UNL     1     -43.350  59.773 -55.787  1.00  0.00     0.159 HD
HETATM   29  H   UNL     1     -42.229  61.070 -55.366  1.00  0.00     0.159 HD
HETATM   30  O   UNL     1     -40.928  60.849 -57.498  1.00  0.00    -0.266 OA
ENDBRANCH   8  26
TORSDOF 6
ENDMDL
MODEL 7
REMARK VINA RESULT:      -7.9      2.328      4.389
REMARK  6 active torsions:
REMARK  status: ('A' for Active; 'I' for Inactive)
REMARK    1  A    between atoms: C_2  and  C_3 
REMARK    2  A    between atoms: C_3  and  C_4 
REMARK    3  A    between atoms: C_4  and  C_5 
REMARK    4  A    between atoms: C_4  and  C_21 
REMARK       I    between atoms: C_5  and  N_6 
REMARK    5  A    between atoms: N_6  and  C_7 
REMARK    6  A    between atoms: C_14  and  C_15 
REMARK       I    between atoms: C_15  and  N_16 
ROOT
HETATM    1  C   UNL     1     -42.427  56.370 -56.413  1.00  0.00     0.035 A 
HETATM    2  C   UNL     1     -42.060  57.713 -56.578  1.00  0.00     0.046 A 
HETATM    3  C   UNL     1     -42.304  58.356 -57.812  1.00  0.00     0.030 A 
HETATM    4  C   UNL     1     -42.891  57.631 -58.842  1.00  0.00     0.063 A 
HETATM    5  N   UNL     1     -42.993  58.504 -59.888  1.00  0.00    -0.277 N 
HETATM    6  H   UNL     1     -43.373  58.315 -60.809  1.00  0.00     0.189 HD
HETATM    7  N   UNL     1     -42.540  59.740 -59.628  1.00  0.00    -0.168 NA
HETATM    8  C   UNL     1     -42.112  59.666 -58.347  1.00  0.00     0.156 A 
HETATM    9  C   UNL     1     -43.263  56.291 -58.716  1.00  0.00     0.034 A 
HETATM   10  C   UNL     1     -43.024  55.681 -57.477  1.00  0.00     0.032 A 
ENDROOT
BRANCH   1  11
HETATM   11  N   UNL     1     -42.260  55.654 -55.209  1.00  0.00    -0.327 N 
HETATM   12  C   UNL     1     -41.078  55.407 -54.519  1.00  0.00     0.231 C 
HETATM   13  O   UNL     1     -39.954  55.686 -54.921  1.00  0.00    -0.272 OA
HETATM   14  H   UNL     1     -43.110  55.316 -54.772  1.00  0.00     0.169 HD
BRANCH  12  15
HETATM   15  C   UNL     1     -41.329  54.699 -53.167  1.00  0.00     0.115 C 
BRANCH  15  16
HETATM   16  C   UNL     1     -42.802  54.733 -52.656  1.00  0.00    -0.001 C 
HETATM   17  C   UNL     1     -43.330  56.146 -52.365  1.00  0.00     0.011 C 
BRANCH  16  18
HETATM   18  C   UNL     1     -43.061  53.828 -51.429  1.00  0.00     0.001 C 
HETATM   19  C   UNL     1     -44.067  54.399 -50.438  1.00  0.00     0.005 C 
ENDBRANCH  16  18
ENDBRANCH  15  16
BRANCH  15  20
HETATM   20  C   UNL     1     -40.758  53.278 -53.129  1.00  0.00    -0.045 A 
HETATM   21  C   UNL     1     -40.956  52.425 -54.227  1.00  0.00     0.008 A 
HETATM   22  C   UNL     1     -40.444  51.126 -54.221  1.00  0.00     0.001 A 
HETATM   23  C   UNL     1     -39.725  50.665 -53.121  1.00  0.00     0.000 A 
HETATM   24  C   UNL     1     -39.512  51.502 -52.029  1.00  0.00     0.001 A 
HETATM   25  C   UNL     1     -40.019  52.803 -52.033  1.00  0.00     0.008 A 
ENDBRANCH  15  20
ENDBRANCH  12  15
ENDBRANCH   1  11
BRANCH   8  26
HETATM   26  C   UNL     1     -41.547  60.839 -57.666  1.00  0.00     0.270 C 
HETATM   27  N   UNL     1     -42.244  61.229 -56.555  1.00  0.00    -0.365 N 
HETATM   28  H   UNL     1     -43.062  60.696 -56.284  1.00  0.00     0.159 HD
HETATM   29  H   UNL     1     -41.919  62.013 -56.012  1.00  0.00     0.159 HD
HETATM   30  O   UNL     1     -40.538  61.438 -58.023  1.00  0.00    -0.266 OA
ENDBRANCH   8  26
TORSDOF 6
ENDMDL
MODEL 8
REMARK VINA RESULT:      -7.8      2.671      7.806
REMARK  6 active torsions:
REMARK  status: ('A' for Active; 'I' for Inactive)
REMARK    1  A    between atoms: C_2  and  C_3 
REMARK    2  A    between atoms: C_3  and  C_4 
REMARK    3  A    between atoms: C_4  and  C_5 
REMARK    4  A    between atoms: C_4  and  C_21 
REMARK       I    between atoms: C_5  and  N_6 
REMARK    5  A    between atoms: N_6  and  C_7 
REMARK    6  A    between atoms: C_14  and  C_15 
REMARK       I    between atoms: C_15  and  N_16 
ROOT
HETATM    1  C   UNL     1     -41.016  54.510 -54.611  1.00  0.00     0.035 A 
HETATM    2  C   UNL     1     -40.585  53.180 -54.500  1.00  0.00     0.046 A 
HETATM    3  C   UNL     1     -40.265  52.656 -53.227  1.00  0.00     0.030 A 
HETATM    4  C   UNL     1     -40.372  53.482 -52.115  1.00  0.00     0.063 A 
HETATM    5  N   UNL     1     -39.999  52.708 -51.052  1.00  0.00    -0.277 N 
HETATM    6  H   UNL     1     -39.953  52.986 -50.078  1.00  0.00     0.189 HD
HETATM    7  N   UNL     1     -39.673  51.445 -51.369  1.00  0.00    -0.168 NA
HETATM    8  C   UNL     1     -39.835  51.395 -52.711  1.00  0.00     0.156 A 
HETATM    9  C   UNL     1     -40.790  54.811 -52.189  1.00  0.00     0.034 A 
HETATM   10  C   UNL     1     -41.116  55.303 -53.460  1.00  0.00     0.032 A 
ENDROOT
BRANCH   1  11
HETATM   11  N   UNL     1     -41.394  55.112 -55.829  1.00  0.00    -0.327 N 
HETATM   12  C   UNL     1     -42.674  55.466 -56.246  1.00  0.00     0.231 C 
HETATM   13  O   UNL     1     -43.710  55.198 -55.649  1.00  0.00    -0.272 OA
HETATM   14  H   UNL     1     -40.638  55.356 -56.458  1.00  0.00     0.169 HD
BRANCH  12  15
HETATM   15  C   UNL     1     -42.659  56.228 -57.592  1.00  0.00     0.115 C 
BRANCH  15  16
HETATM   16  C   UNL     1     -43.882  55.967 -58.523  1.00  0.00    -0.001 C 
HETATM   17  C   UNL     1     -43.504  55.500 -59.937  1.00  0.00     0.011 C 
BRANCH  16  18
HETATM   18  C   UNL     1     -44.859  57.162 -58.624  1.00  0.00     0.001 C 
HETATM   19  C   UNL     1     -46.055  56.911 -59.532  1.00  0.00     0.005 C 
ENDBRANCH  16  18
ENDBRANCH  15  16
BRANCH  15  20
HETATM   20  C   UNL     1     -42.399  57.727 -57.418  1.00  0.00    -0.045 A 
HETATM   21  C   UNL     1     -42.707  58.345 -56.195  1.00  0.00     0.008 A 
HETATM   22  C   UNL     1     -42.478  59.709 -56.008  1.00  0.00     0.001 A 
HETATM   23  C   UNL     1     -41.934  60.473 -57.038  1.00  0.00     0.000 A 
HETATM   24  C   UNL     1     -41.614  59.873 -58.253  1.00  0.00     0.001 A 
HETATM   25  C   UNL     1     -41.839  58.508 -58.442  1.00  0.00     0.008 A 
ENDBRANCH  15  20
ENDBRANCH  12  15
ENDBRANCH   1  11
BRANCH   8  26
HETATM   26  C   UNL     1     -39.590  50.156 -53.461  1.00  0.00     0.270 C 
HETATM   27  N   UNL     1     -39.415  49.051 -52.672  1.00  0.00    -0.365 N 
HETATM   28  H   UNL     1     -39.477  49.160 -51.666  1.00  0.00     0.159 HD
HETATM   29  H   UNL     1     -39.261  48.152 -53.099  1.00  0.00     0.159 HD
HETATM   30  O   UNL     1     -39.546  50.073 -54.684  1.00  0.00    -0.266 OA
ENDBRANCH   8  26
TORSDOF 6
ENDMDL
MODEL 9
REMARK VINA RESULT:      -7.7      2.654      7.951
REMARK  6 active torsions:
REMARK  status: ('A' for Active; 'I' for Inactive)
REMARK    1  A    between atoms: C_2  and  C_3 
REMARK    2  A    between atoms: C_3  and  C_4 
REMARK    3  A    between atoms: C_4  and  C_5 
REMARK    4  A    between atoms: C_4  and  C_21 
REMARK       I    between atoms: C_5  and  N_6 
REMARK    5  A    between atoms: N_6  and  C_7 
REMARK    6  A    between atoms: C_14  and  C_15 
REMARK       I    between atoms: C_15  and  N_16 
ROOT
HETATM    1  C   UNL     1     -41.478  55.377 -55.068  1.00  0.00     0.035 A 
HETATM    2  C   UNL     1     -41.183  54.007 -55.042  1.00  0.00     0.046 A 
HETATM    3  C   UNL     1     -40.719  53.416 -53.845  1.00  0.00     0.030 A 
HETATM    4  C   UNL     1     -40.550  54.218 -52.723  1.00  0.00     0.063 A 
HETATM    5  N   UNL     1     -40.096  53.380 -51.744  1.00  0.00    -0.277 N 
HETATM    6  H   UNL     1     -39.860  53.624 -50.789  1.00  0.00     0.189 HD
HETATM    7  N   UNL     1     -39.967  52.098 -52.122  1.00  0.00    -0.168 NA
HETATM    8  C   UNL     1     -40.352  52.103 -53.420  1.00  0.00     0.156 A 
HETATM    9  C   UNL     1     -40.826  55.586 -52.715  1.00  0.00     0.034 A 
HETATM   10  C   UNL     1     -41.300  56.144 -53.909  1.00  0.00     0.032 A 
ENDROOT
BRANCH   1  11
HETATM   11  N   UNL     1     -41.982  56.049 -56.200  1.00  0.00    -0.327 N 
HETATM   12  C   UNL     1     -43.208  56.695 -56.336  1.00  0.00     0.231 C 
HETATM   13  O   UNL     1     -44.108  56.682 -55.504  1.00  0.00    -0.272 OA
HETATM   14  H   UNL     1     -41.359  56.107 -56.997  1.00  0.00     0.169 HD
BRANCH  12  15
HETATM   15  C   UNL     1     -43.334  57.430 -57.690  1.00  0.00     0.115 C 
BRANCH  15  16
HETATM   16  C   UNL     1     -42.001  57.991 -58.274  1.00  0.00    -0.001 C 
HETATM   17  C   UNL     1     -41.757  59.476 -57.961  1.00  0.00     0.011 C 
BRANCH  16  18
HETATM   18  C   UNL     1     -41.834  57.756 -59.794  1.00  0.00     0.001 C 
HETATM   19  C   UNL     1     -42.061  59.000 -60.643  1.00  0.00     0.005 C 
ENDBRANCH  16  18
ENDBRANCH  15  16
BRANCH  15  20
HETATM   20  C   UNL     1     -44.100  56.614 -58.736  1.00  0.00    -0.045 A 
HETATM   21  C   UNL     1     -45.188  57.197 -59.405  1.00  0.00     0.008 A 
HETATM   22  C   UNL     1     -45.903  56.478 -60.365  1.00  0.00     0.001 A 
HETATM   23  C   UNL     1     -45.538  55.169 -60.670  1.00  0.00     0.000 A 
HETATM   24  C   UNL     1     -44.455  54.580 -60.022  1.00  0.00     0.001 A 
HETATM   25  C   UNL     1     -43.736  55.298 -59.064  1.00  0.00     0.008 A 
ENDBRANCH  15  20
ENDBRANCH  12  15
ENDBRANCH   1  11
BRANCH   8  26
HETATM   26  C   UNL     1     -40.371  50.865 -54.211  1.00  0.00     0.270 C 
HETATM   27  N   UNL     1     -39.140  50.292 -54.380  1.00  0.00    -0.365 N 
HETATM   28  H   UNL     1     -38.335  50.737 -53.954  1.00  0.00     0.159 HD
HETATM   29  H   UNL     1     -39.058  49.429 -54.894  1.00  0.00     0.159 HD
HETATM   30  O   UNL     1     -41.378  50.354 -54.689  1.00  0.00    -0.266 OA
ENDBRANCH   8  26
TORSDOF 6
ENDMDL
MODEL 10
REMARK VINA RESULT:      -7.5      2.507      4.361
REMARK  6 active torsions:
REMARK  status: ('A' for Active; 'I' for Inactive)
REMARK    1  A    between atoms: C_2  and  C_3 
REMARK    2  A    between atoms: C_3  and  C_4 
REMARK    3  A    between atoms: C_4  and  C_5 
REMARK    4  A    between atoms: C_4  and  C_21 
REMARK       I    between atoms: C_5  and  N_6 
REMARK    5  A    between atoms: N_6  and  C_7 
REMARK    6  A    between atoms: C_14  and  C_15 
REMARK       I    between atoms: C_15  and  N_16 
ROOT
HETATM    1  C   UNL     1     -42.620  56.332 -55.489  1.00  0.00     0.035 A 
HETATM    2  C   UNL     1     -43.266  57.575 -55.547  1.00  0.00     0.046 A 
HETATM    3  C   UNL     1     -43.889  57.981 -56.749  1.00  0.00     0.030 A 
HETATM    4  C   UNL     1     -43.831  57.139 -57.852  1.00  0.00     0.063 A 
HETATM    5  N   UNL     1     -44.506  57.794 -58.844  1.00  0.00    -0.277 N 
HETATM    6  H   UNL     1     -44.661  57.476 -59.793  1.00  0.00     0.189 HD
HETATM    7  N   UNL     1     -45.014  58.983 -58.481  1.00  0.00    -0.168 NA
HETATM    8  C   UNL     1     -44.643  59.112 -57.186  1.00  0.00     0.156 A 
HETATM    9  C   UNL     1     -43.191  55.899 -57.833  1.00  0.00     0.034 A 
HETATM   10  C   UNL     1     -42.594  55.513 -56.626  1.00  0.00     0.032 A 
ENDROOT
BRANCH   1  11
HETATM   11  N   UNL     1     -42.004  55.822 -54.327  1.00  0.00    -0.327 N 
HETATM   12  C   UNL     1     -42.493  54.855 -53.455  1.00  0.00     0.231 C 
HETATM   13  O   UNL     1     -43.616  54.365 -53.502  1.00  0.00    -0.272 OA
HETATM   14  H   UNL     1     -41.073  56.171 -54.129  1.00  0.00     0.169 HD
BRANCH  12  15
HETATM   15  C   UNL     1     -41.459  54.469 -52.372  1.00  0.00     0.115 C 
BRANCH  15  16
HETATM   16  C   UNL     1     -41.972  54.534 -50.901  1.00  0.00    -0.001 C 
HETATM   17  C   UNL     1     -43.492  54.723 -50.777  1.00  0.00     0.011 C 
BRANCH  16  18
HETATM   18  C   UNL     1     -41.253  55.592 -50.032  1.00  0.00     0.001 C 
HETATM   19  C   UNL     1     -41.077  56.941 -50.716  1.00  0.00     0.005 C 
ENDBRANCH  16  18
ENDBRANCH  15  16
BRANCH  15  20
HETATM   20  C   UNL     1     -40.769  53.133 -52.664  1.00  0.00    -0.045 A 
HETATM   21  C   UNL     1     -40.848  52.582 -53.953  1.00  0.00     0.008 A 
HETATM   22  C   UNL     1     -40.227  51.366 -54.248  1.00  0.00     0.001 A 
HETATM   23  C   UNL     1     -39.516  50.689 -53.260  1.00  0.00     0.000 A 
HETATM   24  C   UNL     1     -39.420  51.228 -51.979  1.00  0.00     0.001 A 
HETATM   25  C   UNL     1     -40.037  52.444 -51.683  1.00  0.00     0.008 A 
ENDBRANCH  15  20
ENDBRANCH  12  15
ENDBRANCH   1  11
BRANCH   8  26
HETATM   26  C   UNL     1     -45.024  60.295 -56.402  1.00  0.00     0.270 C 
HETATM   27  N   UNL     1     -45.900  60.032 -55.384  1.00  0.00    -0.365 N 
HETATM   28  H   UNL     1     -46.203  59.075 -55.241  1.00  0.00     0.159 HD
HETATM   29  H   UNL     1     -46.201  60.779 -54.780  1.00  0.00     0.159 HD
HETATM   30  O   UNL     1     -44.610  61.432 -56.603  1.00  0.00    -0.266 OA
ENDBRANCH   8  26
TORSDOF 6
ENDMDL
