MODEL 1
REMARK VINA RESULT:      -8.4      0.000      0.000
REMARK  4 active torsions:
REMARK  status: ('A' for Active; 'I' for Inactive)
REMARK    1  A    between atoms: C_4  and  C_5 
REMARK    2  A    between atoms: C_8  and  C_9 
REMARK    3  A    between atoms: C_9  and  N_10 
REMARK       I    between atoms: N_10  and  C_11 
REMARK       I    between atoms: C_11  and  N_12 
REMARK    4  A    between atoms: N_12  and  C_13 
ROOT
HETATM    1  C   UNL     1     -44.065  56.698 -54.544  1.00  0.00     0.213 C 
ENDROOT
BRANCH   1   2
HETATM    2  C   UNL     1     -42.851  55.945 -54.154  1.00  0.00     0.190 A 
HETATM    3  O   UNL     1     -41.653  56.548 -54.390  1.00  0.00    -0.194 OA
HETATM    4  N   UNL     1     -40.670  55.632 -54.022  1.00  0.00    -0.106 NA
HETATM    5  C   UNL     1     -41.366  54.560 -53.604  1.00  0.00     0.189 A 
HETATM    6  N   UNL     1     -42.735  54.737 -53.647  1.00  0.00    -0.202 NA
BRANCH   5   7
HETATM    7  C   UNL     1     -40.753  53.305 -53.178  1.00  0.00     0.015 A 
HETATM    8  C   UNL     1     -40.571  52.257 -54.096  1.00  0.00     0.022 A 
HETATM    9  C   UNL     1     -39.965  51.053 -53.710  1.00  0.00    -0.061 A 
HETATM   10  C   UNL     1     -39.752  49.945 -54.700  1.00  0.00     0.048 C 
HETATM   11  C   UNL     1     -39.521  50.906 -52.391  1.00  0.00     0.007 A 
HETATM   12  C   UNL     1     -39.695  51.937 -51.469  1.00  0.00     0.002 A 
HETATM   13  C   UNL     1     -40.309  53.129 -51.860  1.00  0.00     0.015 A 
ENDBRANCH   5   7
ENDBRANCH   1   2
BRANCH   1  14
HETATM   14  N   UNL     1     -44.210  56.738 -55.985  1.00  0.00    -0.335 N 
HETATM   15  C   UNL     1     -43.989  57.921 -56.620  1.00  0.00     0.321 C 
HETATM   16  N   UNL     1     -44.036  57.937 -57.977  1.00  0.00    -0.309 N 
HETATM   17  O   UNL     1     -43.702  58.951 -56.014  1.00  0.00    -0.247 OA
HETATM   18  H   UNL     1     -43.668  58.810 -58.337  1.00  0.00     0.170 HD
HETATM   19  H   UNL     1     -43.869  55.934 -56.495  1.00  0.00     0.164 HD
BRANCH  16  20
HETATM   20  C   UNL     1     -44.560  57.048 -58.932  1.00  0.00     0.036 A 
HETATM   21  C   UNL     1     -43.828  56.045 -59.569  1.00  0.00     0.029 A 
HETATM   22  C   UNL     1     -44.448  55.189 -60.487  1.00  0.00     0.002 A 
HETATM   23  C   UNL     1     -45.807  55.322 -60.765  1.00  0.00     0.000 A 
HETATM   24  C   UNL     1     -46.551  56.303 -60.119  1.00  0.00     0.002 A 
HETATM   25  C   UNL     1     -45.932  57.157 -59.203  1.00  0.00     0.029 A 
ENDBRANCH  16  20
ENDBRANCH   1  14
TORSDOF 4
ENDMDL
MODEL 2
REMARK VINA RESULT:      -8.0      1.753      2.460
REMARK  4 active torsions:
REMARK  status: ('A' for Active; 'I' for Inactive)
REMARK    1  A    between atoms: C_4  and  C_5 
REMARK    2  A    between atoms: C_8  and  C_9 
REMARK    3  A    between atoms: C_9  and  N_10 
REMARK       I    between atoms: N_10  and  C_11 
REMARK       I    between atoms: C_11  and  N_12 
REMARK    4  A    between atoms: N_12  and  C_13 
ROOT
HETATM    1  C   UNL     1     -42.864  57.342 -53.387  1.00  0.00     0.213 C 
ENDROOT
BRANCH   1   2
HETATM    2  C   UNL     1     -42.123  56.146 -52.924  1.00  0.00     0.190 A 
HETATM    3  O   UNL     1     -41.402  56.277 -51.776  1.00  0.00    -0.194 OA
HETATM    4  N   UNL     1     -40.738  55.068 -51.586  1.00  0.00    -0.106 NA
HETATM    5  C   UNL     1     -41.114  54.322 -52.639  1.00  0.00     0.189 A 
HETATM    6  N   UNL     1     -42.005  54.960 -53.479  1.00  0.00    -0.202 NA
BRANCH   5   7
HETATM    7  C   UNL     1     -40.611  52.978 -52.908  1.00  0.00     0.015 A 
HETATM    8  C   UNL     1     -40.196  52.151 -51.852  1.00  0.00     0.022 A 
HETATM    9  C   UNL     1     -39.730  50.850 -52.090  1.00  0.00    -0.061 A 
HETATM   10  C   UNL     1     -39.310  49.962 -50.955  1.00  0.00     0.048 C 
HETATM   11  C   UNL     1     -39.694  50.369 -53.403  1.00  0.00     0.007 A 
HETATM   12  C   UNL     1     -40.102  51.178 -54.462  1.00  0.00     0.002 A 
HETATM   13  C   UNL     1     -40.555  52.476 -54.217  1.00  0.00     0.015 A 
ENDBRANCH   5   7
ENDBRANCH   1   2
BRANCH   1  14
HETATM   14  N   UNL     1     -43.042  57.317 -54.825  1.00  0.00    -0.335 N 
HETATM   15  C   UNL     1     -44.310  57.248 -55.314  1.00  0.00     0.321 C 
HETATM   16  N   UNL     1     -44.481  57.317 -56.659  1.00  0.00    -0.309 N 
HETATM   17  O   UNL     1     -45.296  57.178 -54.583  1.00  0.00    -0.247 OA
HETATM   18  H   UNL     1     -45.459  57.452 -56.888  1.00  0.00     0.170 HD
HETATM   19  H   UNL     1     -42.431  57.915 -55.365  1.00  0.00     0.164 HD
BRANCH  16  20
HETATM   20  C   UNL     1     -43.609  57.150 -57.750  1.00  0.00     0.036 A 
HETATM   21  C   UNL     1     -43.466  55.968 -58.478  1.00  0.00     0.029 A 
HETATM   22  C   UNL     1     -42.590  55.909 -59.568  1.00  0.00     0.002 A 
HETATM   23  C   UNL     1     -41.862  57.035 -59.946  1.00  0.00     0.000 A 
HETATM   24  C   UNL     1     -42.014  58.224 -59.243  1.00  0.00     0.002 A 
HETATM   25  C   UNL     1     -42.889  58.283 -58.155  1.00  0.00     0.029 A 
ENDBRANCH  16  20
ENDBRANCH   1  14
TORSDOF 4
ENDMDL
MODEL 3
REMARK VINA RESULT:      -7.9      1.175      1.329
REMARK  4 active torsions:
REMARK  status: ('A' for Active; 'I' for Inactive)
REMARK    1  A    between atoms: C_4  and  C_5 
REMARK    2  A    between atoms: C_8  and  C_9 
REMARK    3  A    between atoms: C_9  and  N_10 
REMARK       I    between atoms: N_10  and  C_11 
REMARK       I    between atoms: C_11  and  N_12 
REMARK    4  A    between atoms: N_12  and  C_13 
ROOT
HETATM    1  C   UNL     1     -44.166  57.344 -54.421  1.00  0.00     0.213 C 
ENDROOT
BRANCH   1   2
HETATM    2  C   UNL     1     -43.533  56.312 -53.568  1.00  0.00     0.190 A 
HETATM    3  O   UNL     1     -43.832  56.346 -52.240  1.00  0.00    -0.194 OA
HETATM    4  N   UNL     1     -43.070  55.348 -51.636  1.00  0.00    -0.106 NA
HETATM    5  C   UNL     1     -42.378  54.809 -52.656  1.00  0.00     0.189 A 
HETATM    6  N   UNL     1     -42.669  55.372 -53.882  1.00  0.00    -0.202 NA
BRANCH   5   7
HETATM    7  C   UNL     1     -41.381  53.754 -52.496  1.00  0.00     0.015 A 
HETATM    8  C   UNL     1     -41.170  52.816 -53.520  1.00  0.00     0.022 A 
HETATM    9  C   UNL     1     -40.201  51.809 -53.393  1.00  0.00    -0.061 A 
HETATM   10  C   UNL     1     -39.965  50.824 -54.499  1.00  0.00     0.048 C 
HETATM   11  C   UNL     1     -39.425  51.754 -52.231  1.00  0.00     0.007 A 
HETATM   12  C   UNL     1     -39.623  52.678 -51.206  1.00  0.00     0.002 A 
HETATM   13  C   UNL     1     -40.597  53.671 -51.336  1.00  0.00     0.015 A 
ENDBRANCH   5   7
ENDBRANCH   1   2
BRANCH   1  14
HETATM   14  N   UNL     1     -44.064  56.991 -55.823  1.00  0.00    -0.335 N 
HETATM   15  C   UNL     1     -43.156  57.657 -56.587  1.00  0.00     0.321 C 
HETATM   16  N   UNL     1     -42.996  57.265 -57.878  1.00  0.00    -0.309 N 
HETATM   17  O   UNL     1     -42.449  58.556 -56.139  1.00  0.00    -0.247 OA
HETATM   18  H   UNL     1     -42.171  57.693 -58.281  1.00  0.00     0.170 HD
HETATM   19  H   UNL     1     -44.140  56.008 -56.047  1.00  0.00     0.164 HD
BRANCH  16  20
HETATM   20  C   UNL     1     -43.776  56.484 -58.750  1.00  0.00     0.036 A 
HETATM   21  C   UNL     1     -43.657  55.102 -58.897  1.00  0.00     0.029 A 
HETATM   22  C   UNL     1     -44.502  54.408 -59.773  1.00  0.00     0.002 A 
HETATM   23  C   UNL     1     -45.478  55.089 -60.496  1.00  0.00     0.000 A 
HETATM   24  C   UNL     1     -45.620  56.464 -60.339  1.00  0.00     0.002 A 
HETATM   25  C   UNL     1     -44.778  57.156 -59.465  1.00  0.00     0.029 A 
ENDBRANCH  16  20
ENDBRANCH   1  14
TORSDOF 4
ENDMDL
MODEL 4
REMARK VINA RESULT:      -7.6      1.969      7.585
REMARK  4 active torsions:
REMARK  status: ('A' for Active; 'I' for Inactive)
REMARK    1  A    between atoms: C_4  and  C_5 
REMARK    2  A    between atoms: C_8  and  C_9 
REMARK    3  A    between atoms: C_9  and  N_10 
REMARK       I    between atoms: N_10  and  C_11 
REMARK       I    between atoms: C_11  and  N_12 
REMARK    4  A    between atoms: N_12  and  C_13 
ROOT
HETATM    1  C   UNL     1     -41.593  57.816 -53.044  1.00  0.00     0.213 C 
ENDROOT
BRANCH   1   2
HETATM    2  C   UNL     1     -41.760  58.126 -54.482  1.00  0.00     0.190 A 
HETATM    3  O   UNL     1     -41.552  59.419 -54.859  1.00  0.00    -0.194 OA
HETATM    4  N   UNL     1     -41.839  59.486 -56.220  1.00  0.00    -0.106 NA
HETATM    5  C   UNL     1     -42.200  58.230 -56.537  1.00  0.00     0.189 A 
HETATM    6  N   UNL     1     -42.131  57.349 -55.475  1.00  0.00    -0.202 NA
BRANCH   5   7
HETATM    7  C   UNL     1     -42.660  57.823 -57.861  1.00  0.00     0.015 A 
HETATM    8  C   UNL     1     -43.168  56.531 -58.070  1.00  0.00     0.022 A 
HETATM    9  C   UNL     1     -43.635  56.130 -59.331  1.00  0.00    -0.061 A 
HETATM   10  C   UNL     1     -44.197  54.756 -59.543  1.00  0.00     0.048 C 
HETATM   11  C   UNL     1     -43.605  57.044 -60.390  1.00  0.00     0.007 A 
HETATM   12  C   UNL     1     -43.103  58.330 -60.198  1.00  0.00     0.002 A 
HETATM   13  C   UNL     1     -42.631  58.717 -58.942  1.00  0.00     0.015 A 
ENDBRANCH   5   7
ENDBRANCH   1   2
BRANCH   1  14
HETATM   14  N   UNL     1     -41.422  56.391 -52.838  1.00  0.00    -0.335 N 
HETATM   15  C   UNL     1     -41.718  55.880 -51.612  1.00  0.00     0.321 C 
HETATM   16  N   UNL     1     -41.646  54.534 -51.446  1.00  0.00    -0.309 N 
HETATM   17  O   UNL     1     -42.094  56.584 -50.677  1.00  0.00    -0.247 OA
HETATM   18  H   UNL     1     -42.070  54.259 -50.568  1.00  0.00     0.170 HD
HETATM   19  H   UNL     1     -41.692  55.789 -53.604  1.00  0.00     0.164 HD
BRANCH  16  20
HETATM   20  C   UNL     1     -41.036  53.505 -52.186  1.00  0.00     0.036 A 
HETATM   21  C   UNL     1     -41.321  53.213 -53.520  1.00  0.00     0.029 A 
HETATM   22  C   UNL     1     -40.639  52.184 -54.181  1.00  0.00     0.002 A 
HETATM   23  C   UNL     1     -39.660  51.449 -53.516  1.00  0.00     0.000 A 
HETATM   24  C   UNL     1     -39.352  51.747 -52.193  1.00  0.00     0.002 A 
HETATM   25  C   UNL     1     -40.032  52.774 -51.534  1.00  0.00     0.029 A 
ENDBRANCH  16  20
ENDBRANCH   1  14
TORSDOF 4
ENDMDL
MODEL 5
REMARK VINA RESULT:      -7.3      2.580      3.113
REMARK  4 active torsions:
REMARK  status: ('A' for Active; 'I' for Inactive)
REMARK    1  A    between atoms: C_4  and  C_5 
REMARK    2  A    between atoms: C_8  and  C_9 
REMARK    3  A    between atoms: C_9  and  N_10 
REMARK       I    between atoms: N_10  and  C_11 
REMARK       I    between atoms: C_11  and  N_12 
REMARK    4  A    between atoms: N_12  and  C_13 
ROOT
HETATM    1  C   UNL     1     -42.345  57.925 -53.141  1.00  0.00     0.213 C 
ENDROOT
BRANCH   1   2
HETATM    2  C   UNL     1     -42.169  56.467 -53.333  1.00  0.00     0.190 A 
HETATM    3  O   UNL     1     -43.178  55.805 -53.965  1.00  0.00    -0.194 OA
HETATM    4  N   UNL     1     -42.832  54.456 -53.959  1.00  0.00    -0.106 NA
HETATM    5  C   UNL     1     -41.650  54.428 -53.319  1.00  0.00     0.189 A 
HETATM    6  N   UNL     1     -41.194  55.676 -52.941  1.00  0.00    -0.202 NA
BRANCH   5   7
HETATM    7  C   UNL     1     -40.919  53.203 -53.009  1.00  0.00     0.015 A 
HETATM    8  C   UNL     1     -40.742  52.214 -53.991  1.00  0.00     0.022 A 
HETATM    9  C   UNL     1     -40.025  51.040 -53.717  1.00  0.00    -0.061 A 
HETATM   10  C   UNL     1     -39.820  49.998 -54.777  1.00  0.00     0.048 C 
HETATM   11  C   UNL     1     -39.466  50.865 -52.447  1.00  0.00     0.007 A 
HETATM   12  C   UNL     1     -39.633  51.836 -51.462  1.00  0.00     0.002 A 
HETATM   13  C   UNL     1     -40.358  52.998 -51.740  1.00  0.00     0.015 A 
ENDBRANCH   5   7
ENDBRANCH   1   2
BRANCH   1  14
HETATM   14  N   UNL     1     -42.412  58.611 -54.416  1.00  0.00    -0.335 N 
HETATM   15  C   UNL     1     -42.132  59.942 -54.444  1.00  0.00     0.321 C 
HETATM   16  N   UNL     1     -42.106  60.565 -55.651  1.00  0.00    -0.309 N 
HETATM   17  O   UNL     1     -41.856  60.580 -53.430  1.00  0.00    -0.247 OA
HETATM   18  H   UNL     1     -41.701  61.490 -55.566  1.00  0.00     0.170 HD
HETATM   19  H   UNL     1     -42.061  58.105 -55.219  1.00  0.00     0.164 HD
BRANCH  16  20
HETATM   20  C   UNL     1     -42.598  60.220 -56.922  1.00  0.00     0.036 A 
HETATM   21  C   UNL     1     -43.945  60.251 -57.286  1.00  0.00     0.029 A 
HETATM   22  C   UNL     1     -44.334  59.915 -58.589  1.00  0.00     0.002 A 
HETATM   23  C   UNL     1     -43.379  59.560 -59.539  1.00  0.00     0.000 A 
HETATM   24  C   UNL     1     -42.032  59.549 -59.193  1.00  0.00     0.002 A 
HETATM   25  C   UNL     1     -41.644  59.884 -57.893  1.00  0.00     0.029 A 
ENDBRANCH  16  20
ENDBRANCH   1  14
TORSDOF 4
ENDMDL
MODEL 6
REMARK VINA RESULT:      -7.1     14.382     18.117
REMARK  4 active torsions:
REMARK  status: ('A' for Active; 'I' for Inactive)
REMARK    1  A    between atoms: C_4  and  C_5 
REMARK    2  A    between atoms: C_8  and  C_9 
REMARK    3  A    between atoms: C_9  and  N_10 
REMARK       I    between atoms: N_10  and  C_11 
REMARK       I    between atoms: C_11  and  N_12 
REMARK    4  A    between atoms: N_12  and  C_13 
ROOT
HETATM    1  C   UNL     1     -37.151  41.281 -52.343  1.00  0.00     0.213 C 
ENDROOT
BRANCH   1   2
HETATM    2  C   UNL     1     -36.856  41.483 -53.780  1.00  0.00     0.190 A 
HETATM    3  O   UNL     1     -36.049  42.532 -54.100  1.00  0.00    -0.194 OA
HETATM    4  N   UNL     1     -35.981  42.571 -55.490  1.00  0.00    -0.106 NA
HETATM    5  C   UNL     1     -36.758  41.544 -55.881  1.00  0.00     0.189 A 
HETATM    6  N   UNL     1     -37.296  40.826 -54.831  1.00  0.00    -0.202 NA
BRANCH   5   7
HETATM    7  C   UNL     1     -37.048  41.227 -57.276  1.00  0.00     0.015 A 
HETATM    8  C   UNL     1     -37.088  42.246 -58.242  1.00  0.00     0.022 A 
HETATM    9  C   UNL     1     -37.344  41.956 -59.591  1.00  0.00    -0.061 A 
HETATM   10  C   UNL     1     -37.363  43.045 -60.622  1.00  0.00     0.048 C 
HETATM   11  C   UNL     1     -37.548  40.627 -59.975  1.00  0.00     0.007 A 
HETATM   12  C   UNL     1     -37.512  39.605 -59.027  1.00  0.00     0.002 A 
HETATM   13  C   UNL     1     -37.266  39.903 -57.685  1.00  0.00     0.015 A 
ENDBRANCH   5   7
ENDBRANCH   1   2
BRANCH   1  14
HETATM   14  N   UNL     1     -36.085  40.544 -51.694  1.00  0.00    -0.335 N 
HETATM   15  C   UNL     1     -36.226  39.198 -51.559  1.00  0.00     0.321 C 
HETATM   16  N   UNL     1     -35.189  38.495 -51.034  1.00  0.00    -0.309 N 
HETATM   17  O   UNL     1     -37.229  38.597 -51.940  1.00  0.00    -0.247 OA
HETATM   18  H   UNL     1     -35.329  37.500 -51.163  1.00  0.00     0.170 HD
HETATM   19  H   UNL     1     -35.140  40.833 -51.910  1.00  0.00     0.164 HD
BRANCH  16  20
HETATM   20  C   UNL     1     -34.051  38.867 -50.295  1.00  0.00     0.036 A 
HETATM   21  C   UNL     1     -33.859  38.587 -48.942  1.00  0.00     0.029 A 
HETATM   22  C   UNL     1     -32.677  38.975 -48.299  1.00  0.00     0.002 A 
HETATM   23  C   UNL     1     -31.675  39.633 -49.008  1.00  0.00     0.000 A 
HETATM   24  C   UNL     1     -31.847  39.897 -50.363  1.00  0.00     0.002 A 
HETATM   25  C   UNL     1     -33.026  39.509 -51.004  1.00  0.00     0.029 A 
ENDBRANCH  16  20
ENDBRANCH   1  14
TORSDOF 4
ENDMDL
MODEL 7
REMARK VINA RESULT:      -7.0      2.653      3.439
REMARK  4 active torsions:
REMARK  status: ('A' for Active; 'I' for Inactive)
REMARK    1  A    between atoms: C_4  and  C_5 
REMARK    2  A    between atoms: C_8  and  C_9 
REMARK    3  A    between atoms: C_9  and  N_10 
REMARK       I    between atoms: N_10  and  C_11 
REMARK       I    between atoms: C_11  and  N_12 
REMARK    4  A    between atoms: N_12  and  C_13 
ROOT
HETATM    1  C   UNL     1     -42.524  57.188 -51.245  1.00  0.00     0.213 C 
ENDROOT
BRANCH   1   2
HETATM    2  C   UNL     1     -41.771  55.957 -50.909  1.00  0.00     0.190 A 
HETATM    3  O   UNL     1     -40.850  56.055 -49.910  1.00  0.00    -0.194 OA
HETATM    4  N   UNL     1     -40.222  54.815 -49.828  1.00  0.00    -0.106 NA
HETATM    5  C   UNL     1     -40.818  54.086 -50.788  1.00  0.00     0.189 A 
HETATM    6  N   UNL     1     -41.814  54.765 -51.462  1.00  0.00    -0.202 NA
BRANCH   5   7
HETATM    7  C   UNL     1     -40.437  52.718 -51.127  1.00  0.00     0.015 A 
HETATM    8  C   UNL     1     -40.129  52.376 -52.454  1.00  0.00     0.022 A 
HETATM    9  C   UNL     1     -39.741  51.071 -52.795  1.00  0.00    -0.061 A 
HETATM   10  C   UNL     1     -39.391  50.717 -54.210  1.00  0.00     0.048 C 
HETATM   11  C   UNL     1     -39.646  50.105 -51.788  1.00  0.00     0.007 A 
HETATM   12  C   UNL     1     -39.948  50.429 -50.467  1.00  0.00     0.002 A 
HETATM   13  C   UNL     1     -40.344  51.728 -50.138  1.00  0.00     0.015 A 
ENDBRANCH   5   7
ENDBRANCH   1   2
BRANCH   1  14
HETATM   14  N   UNL     1     -42.517  57.425 -52.675  1.00  0.00    -0.335 N 
HETATM   15  C   UNL     1     -41.635  58.335 -53.169  1.00  0.00     0.321 C 
HETATM   16  N   UNL     1     -41.565  58.492 -54.517  1.00  0.00    -0.309 N 
HETATM   17  O   UNL     1     -40.873  58.976 -52.448  1.00  0.00    -0.247 OA
HETATM   18  H   UNL     1     -40.752  59.040 -54.771  1.00  0.00     0.170 HD
HETATM   19  H   UNL     1     -42.639  56.615 -53.267  1.00  0.00     0.164 HD
BRANCH  16  20
HETATM   20  C   UNL     1     -42.421  58.130 -55.573  1.00  0.00     0.036 A 
HETATM   21  C   UNL     1     -42.334  56.937 -56.291  1.00  0.00     0.029 A 
HETATM   22  C   UNL     1     -43.253  56.655 -57.309  1.00  0.00     0.002 A 
HETATM   23  C   UNL     1     -44.272  57.557 -57.607  1.00  0.00     0.000 A 
HETATM   24  C   UNL     1     -44.382  58.738 -56.881  1.00  0.00     0.002 A 
HETATM   25  C   UNL     1     -43.465  59.019 -55.865  1.00  0.00     0.029 A 
ENDBRANCH  16  20
ENDBRANCH   1  14
TORSDOF 4
ENDMDL
MODEL 8
REMARK VINA RESULT:      -7.0      1.498      1.768
REMARK  4 active torsions:
REMARK  status: ('A' for Active; 'I' for Inactive)
REMARK    1  A    between atoms: C_4  and  C_5 
REMARK    2  A    between atoms: C_8  and  C_9 
REMARK    3  A    between atoms: C_9  and  N_10 
REMARK       I    between atoms: N_10  and  C_11 
REMARK       I    between atoms: C_11  and  N_12 
REMARK    4  A    between atoms: N_12  and  C_13 
ROOT
HETATM    1  C   UNL     1     -44.824  57.482 -53.218  1.00  0.00     0.213 C 
ENDROOT
BRANCH   1   2
HETATM    2  C   UNL     1     -43.540  56.821 -52.888  1.00  0.00     0.190 A 
HETATM    3  O   UNL     1     -42.422  57.597 -52.932  1.00  0.00    -0.194 OA
HETATM    4  N   UNL     1     -41.344  56.755 -52.668  1.00  0.00    -0.106 NA
HETATM    5  C   UNL     1     -41.912  55.548 -52.495  1.00  0.00     0.189 A 
HETATM    6  N   UNL     1     -43.289  55.564 -52.597  1.00  0.00    -0.202 NA
BRANCH   5   7
HETATM    7  C   UNL     1     -41.160  54.319 -52.259  1.00  0.00     0.015 A 
HETATM    8  C   UNL     1     -40.945  53.407 -53.305  1.00  0.00     0.022 A 
HETATM    9  C   UNL     1     -40.206  52.232 -53.102  1.00  0.00    -0.061 A 
HETATM   10  C   UNL     1     -39.961  51.272 -54.229  1.00  0.00     0.048 C 
HETATM   11  C   UNL     1     -39.664  51.978 -51.838  1.00  0.00     0.007 A 
HETATM   12  C   UNL     1     -39.868  52.874 -50.790  1.00  0.00     0.002 A 
HETATM   13  C   UNL     1     -40.614  54.037 -50.998  1.00  0.00     0.015 A 
ENDBRANCH   5   7
ENDBRANCH   1   2
BRANCH   1  14
HETATM   14  N   UNL     1     -44.932  57.722 -54.643  1.00  0.00    -0.335 N 
HETATM   15  C   UNL     1     -44.953  59.011 -55.076  1.00  0.00     0.321 C 
HETATM   16  N   UNL     1     -44.962  59.236 -56.416  1.00  0.00    -0.309 N 
HETATM   17  O   UNL     1     -44.913  59.968 -54.305  1.00  0.00    -0.247 OA
HETATM   18  H   UNL     1     -44.781  60.212 -56.615  1.00  0.00     0.170 HD
HETATM   19  H   UNL     1     -44.410  57.100 -55.246  1.00  0.00     0.164 HD
BRANCH  16  20
HETATM   20  C   UNL     1     -45.255  58.423 -57.526  1.00  0.00     0.036 A 
HETATM   21  C   UNL     1     -44.299  57.764 -58.300  1.00  0.00     0.029 A 
HETATM   22  C   UNL     1     -44.692  56.952 -59.370  1.00  0.00     0.002 A 
HETATM   23  C   UNL     1     -46.042  56.783 -59.666  1.00  0.00     0.000 A 
HETATM   24  C   UNL     1     -47.004  57.416 -58.886  1.00  0.00     0.002 A 
HETATM   25  C   UNL     1     -46.612  58.225 -57.817  1.00  0.00     0.029 A 
ENDBRANCH  16  20
ENDBRANCH   1  14
TORSDOF 4
ENDMDL
MODEL 9
REMARK VINA RESULT:      -7.0     15.262     18.011
REMARK  4 active torsions:
REMARK  status: ('A' for Active; 'I' for Inactive)
REMARK    1  A    between atoms: C_4  and  C_5 
REMARK    2  A    between atoms: C_8  and  C_9 
REMARK    3  A    between atoms: C_9  and  N_10 
REMARK       I    between atoms: N_10  and  C_11 
REMARK       I    between atoms: C_11  and  N_12 
REMARK    4  A    between atoms: N_12  and  C_13 
ROOT
HETATM    1  C   UNL     1     -35.033  42.538 -56.294  1.00  0.00     0.213 C 
ENDROOT
BRANCH   1   2
HETATM    2  C   UNL     1     -36.122  41.818 -56.994  1.00  0.00     0.190 A 
HETATM    3  O   UNL     1     -37.281  41.635 -56.302  1.00  0.00    -0.194 OA
HETATM    4  N   UNL     1     -38.115  40.877 -57.119  1.00  0.00    -0.106 NA
HETATM    5  C   UNL     1     -37.381  40.668 -58.226  1.00  0.00     0.189 A 
HETATM    6  N   UNL     1     -36.139  41.271 -58.189  1.00  0.00    -0.202 NA
BRANCH   5   7
HETATM    7  C   UNL     1     -37.821  39.853 -59.354  1.00  0.00     0.015 A 
HETATM    8  C   UNL     1     -38.884  38.947 -59.203  1.00  0.00     0.022 A 
HETATM    9  C   UNL     1     -39.334  38.171 -60.282  1.00  0.00    -0.061 A 
HETATM   10  C   UNL     1     -40.485  37.222 -60.121  1.00  0.00     0.048 C 
HETATM   11  C   UNL     1     -38.719  38.318 -61.530  1.00  0.00     0.007 A 
HETATM   12  C   UNL     1     -37.663  39.212 -61.695  1.00  0.00     0.002 A 
HETATM   13  C   UNL     1     -37.214  39.973 -60.613  1.00  0.00     0.015 A 
ENDBRANCH   5   7
ENDBRANCH   1   2
BRANCH   1  14
HETATM   14  N   UNL     1     -34.610  41.814 -55.111  1.00  0.00    -0.335 N 
HETATM   15  C   UNL     1     -33.545  40.976 -55.219  1.00  0.00     0.321 C 
HETATM   16  N   UNL     1     -33.092  40.368 -54.092  1.00  0.00    -0.309 N 
HETATM   17  O   UNL     1     -32.954  40.792 -56.282  1.00  0.00    -0.247 OA
HETATM   18  H   UNL     1     -32.192  39.932 -54.258  1.00  0.00     0.170 HD
HETATM   19  H   UNL     1     -34.640  42.322 -54.238  1.00  0.00     0.164 HD
BRANCH  16  20
HETATM   20  C   UNL     1     -33.654  40.159 -52.820  1.00  0.00     0.036 A 
HETATM   21  C   UNL     1     -34.744  39.327 -52.562  1.00  0.00     0.029 A 
HETATM   22  C   UNL     1     -35.214  39.162 -51.253  1.00  0.00     0.002 A 
HETATM   23  C   UNL     1     -34.590  39.817 -50.194  1.00  0.00     0.000 A 
HETATM   24  C   UNL     1     -33.489  40.630 -50.437  1.00  0.00     0.002 A 
HETATM   25  C   UNL     1     -33.019  40.794 -51.743  1.00  0.00     0.029 A 
ENDBRANCH  16  20
ENDBRANCH   1  14
TORSDOF 4
ENDMDL
MODEL 10
REMARK VINA RESULT:      -6.9      2.494      4.248
REMARK  4 active torsions:
REMARK  status: ('A' for Active; 'I' for Inactive)
REMARK    1  A    between atoms: C_4  and  C_5 
REMARK    2  A    between atoms: C_8  and  C_9 
REMARK    3  A    between atoms: C_9  and  N_10 
REMARK       I    between atoms: N_10  and  C_11 
REMARK       I    between atoms: C_11  and  N_12 
REMARK    4  A    between atoms: N_12  and  C_13 
ROOT
HETATM    1  C   UNL     1     -42.696  56.593 -56.724  1.00  0.00     0.213 C 
ENDROOT
BRANCH   1   2
HETATM    2  C   UNL     1     -42.517  55.617 -55.625  1.00  0.00     0.190 A 
HETATM    3  O   UNL     1     -43.405  55.683 -54.595  1.00  0.00    -0.194 OA
HETATM    4  N   UNL     1     -42.997  54.737 -53.658  1.00  0.00    -0.106 NA
HETATM    5  C   UNL     1     -41.896  54.192 -54.207  1.00  0.00     0.189 A 
HETATM    6  N   UNL     1     -41.588  54.702 -55.453  1.00  0.00    -0.202 NA
BRANCH   5   7
HETATM    7  C   UNL     1     -41.070  53.185 -53.548  1.00  0.00     0.015 A 
HETATM    8  C   UNL     1     -40.678  52.026 -54.239  1.00  0.00     0.022 A 
HETATM    9  C   UNL     1     -39.867  51.058 -53.629  1.00  0.00    -0.061 A 
HETATM   10  C   UNL     1     -39.432  49.834 -54.379  1.00  0.00     0.048 C 
HETATM   11  C   UNL     1     -39.432  51.263 -52.316  1.00  0.00     0.007 A 
HETATM   12  C   UNL     1     -39.813  52.408 -51.617  1.00  0.00     0.002 A 
HETATM   13  C   UNL     1     -40.629  53.362 -52.229  1.00  0.00     0.015 A 
ENDBRANCH   5   7
ENDBRANCH   1   2
BRANCH   1  14
HETATM   14  N   UNL     1     -43.213  57.850 -56.222  1.00  0.00    -0.335 N 
HETATM   15  C   UNL     1     -43.691  58.752 -57.121  1.00  0.00     0.321 C 
HETATM   16  N   UNL     1     -44.259  59.890 -56.645  1.00  0.00    -0.309 N 
HETATM   17  O   UNL     1     -43.672  58.549 -58.333  1.00  0.00    -0.247 OA
HETATM   18  H   UNL     1     -44.746  60.383 -57.385  1.00  0.00     0.170 HD
HETATM   19  H   UNL     1     -43.750  57.806 -55.366  1.00  0.00     0.164 HD
BRANCH  16  20
HETATM   20  C   UNL     1     -44.222  60.534 -55.395  1.00  0.00     0.036 A 
HETATM   21  C   UNL     1     -43.087  61.126 -54.841  1.00  0.00     0.029 A 
HETATM   22  C   UNL     1     -43.157  61.769 -53.600  1.00  0.00     0.002 A 
HETATM   23  C   UNL     1     -44.365  61.835 -52.910  1.00  0.00     0.000 A 
HETATM   24  C   UNL     1     -45.508  61.268 -53.463  1.00  0.00     0.002 A 
HETATM   25  C   UNL     1     -45.438  60.627 -54.702  1.00  0.00     0.029 A 
ENDBRANCH  16  20
ENDBRANCH   1  14
TORSDOF 4
ENDMDL
