MODEL 1
REMARK VINA RESULT:      -9.4      0.000      0.000
REMARK  4 active torsions:
REMARK  status: ('A' for Active; 'I' for Inactive)
REMARK    1  A    between atoms: O_2  and  C_3 
REMARK    2  A    between atoms: C_9  and  C_13 
REMARK    3  A    between atoms: C_19  and  C_24 
REMARK    4  A    between atoms: C_28  and  N_29 
ROOT
HETATM    1  C   UNL     1     -42.586  57.458 -56.172  1.00  0.00     0.112 A 
HETATM    2  N   UNL     1     -43.224  57.331 -55.026  1.00  0.00    -0.230 NA
HETATM    3  C   UNL     1     -42.722  56.190 -54.437  1.00  0.00     0.124 A 
HETATM    4  C   UNL     1     -43.027  55.564 -53.220  1.00  0.00     0.148 A 
HETATM    5  F   UNL     1     -43.953  56.070 -52.392  1.00  0.00    -0.203 F 
HETATM    6  C   UNL     1     -42.358  54.390 -52.854  1.00  0.00     0.058 A 
HETATM    7  C   UNL     1     -41.377  53.808 -53.680  1.00  0.00    -0.002 A 
HETATM    8  C   UNL     1     -41.065  54.443 -54.903  1.00  0.00     0.046 A 
HETATM    9  C   UNL     1     -41.751  55.613 -55.245  1.00  0.00     0.066 A 
HETATM   10  N   UNL     1     -41.684  56.434 -56.340  1.00  0.00    -0.342 N 
HETATM   11  H   UNL     1     -41.080  56.309 -57.143  1.00  0.00     0.167 HD
ENDROOT
BRANCH   1  12
HETATM   12  C   UNL     1     -42.817  58.544 -57.189  1.00  0.00     0.084 C 
HETATM   13  C   UNL     1     -41.945  58.399 -58.436  1.00  0.00     0.188 C 
HETATM   14  O   UNL     1     -42.254  57.238 -59.220  1.00  0.00    -0.350 OA
HETATM   15  C   UNL     1     -43.588  57.036 -59.454  1.00  0.00     0.075 A 
HETATM   16  C   UNL     1     -43.899  56.116 -60.452  1.00  0.00     0.040 A 
HETATM   17  C   UNL     1     -44.604  57.639 -58.709  1.00  0.00    -0.021 A 
HETATM   18  C   UNL     1     -45.234  55.817 -60.732  1.00  0.00     0.039 A 
HETATM   19  C   UNL     1     -46.264  56.433 -60.017  1.00  0.00     0.068 A 
HETATM   20  C   UNL     1     -45.946  57.342 -59.007  1.00  0.00     0.046 A 
HETATM   21  C   UNL     1     -44.285  58.616 -57.610  1.00  0.00     0.056 C 
BRANCH  19  22
HETATM   22  O   UNL     1     -47.523  56.056 -60.394  1.00  0.00    -0.356 OA
HETATM   23  C   UNL     1     -48.010  56.575 -61.626  1.00  0.00     0.210 C 
ENDBRANCH  19  22
ENDBRANCH   1  12
BRANCH   7  24
HETATM   24  C   UNL     1     -40.670  52.569 -53.292  1.00  0.00     0.072 A 
HETATM   25  C   UNL     1     -40.097  52.387 -52.049  1.00  0.00     0.052 A 
HETATM   26  C   UNL     1     -39.478  51.180 -51.839  1.00  0.00     0.122 A 
HETATM   27  N   UNL     1     -39.414  50.208 -52.765  1.00  0.00    -0.231 NA
HETATM   28  C   UNL     1     -40.014  50.461 -53.929  1.00  0.00     0.199 A 
HETATM   29  N   UNL     1     -40.629  51.604 -54.239  1.00  0.00    -0.218 NA
BRANCH  28  30
HETATM   30  N   UNL     1     -39.949  49.487 -54.904  1.00  0.00    -0.271 NA
HETATM   31  H   UNL     1     -39.935  48.577 -54.467  1.00  0.00     0.127 HD
HETATM   32  H   UNL     1     -39.199  49.704 -55.545  1.00  0.00     0.127 HD
ENDBRANCH  28  30
ENDBRANCH   7  24
TORSDOF 4
ENDMDL
MODEL 2
REMARK VINA RESULT:      -9.2      1.724      2.428
REMARK  4 active torsions:
REMARK  status: ('A' for Active; 'I' for Inactive)
REMARK    1  A    between atoms: O_2  and  C_3 
REMARK    2  A    between atoms: C_9  and  C_13 
REMARK    3  A    between atoms: C_19  and  C_24 
REMARK    4  A    between atoms: C_28  and  N_29 
ROOT
HETATM    1  C   UNL     1     -42.900  57.058 -54.515  1.00  0.00     0.112 A 
HETATM    2  N   UNL     1     -42.367  57.099 -53.310  1.00  0.00    -0.230 NA
HETATM    3  C   UNL     1     -41.801  55.858 -53.104  1.00  0.00     0.124 A 
HETATM    4  C   UNL     1     -41.106  55.328 -52.009  1.00  0.00     0.148 A 
HETATM    5  F   UNL     1     -40.885  56.058 -50.906  1.00  0.00    -0.203 F 
HETATM    6  C   UNL     1     -40.630  54.011 -52.057  1.00  0.00     0.058 A 
HETATM    7  C   UNL     1     -40.831  53.193 -53.184  1.00  0.00    -0.002 A 
HETATM    8  C   UNL     1     -41.526  53.730 -54.292  1.00  0.00     0.046 A 
HETATM    9  C   UNL     1     -41.994  55.046 -54.214  1.00  0.00     0.066 A 
HETATM   10  N   UNL     1     -42.694  55.828 -55.094  1.00  0.00    -0.342 N 
HETATM   11  H   UNL     1     -43.014  55.552 -56.014  1.00  0.00     0.167 HD
ENDROOT
BRANCH   1  12
HETATM   12  C   UNL     1     -43.664  58.176 -55.174  1.00  0.00     0.084 C 
HETATM   13  C   UNL     1     -42.767  59.306 -55.678  1.00  0.00     0.188 C 
HETATM   14  O   UNL     1     -41.900  58.914 -56.752  1.00  0.00    -0.350 OA
HETATM   15  C   UNL     1     -42.504  58.202 -57.754  1.00  0.00     0.075 A 
HETATM   16  C   UNL     1     -41.781  58.078 -58.936  1.00  0.00     0.040 A 
HETATM   17  C   UNL     1     -43.738  57.561 -57.612  1.00  0.00    -0.021 A 
HETATM   18  C   UNL     1     -42.302  57.336 -59.997  1.00  0.00     0.039 A 
HETATM   19  C   UNL     1     -43.546  56.713 -59.884  1.00  0.00     0.068 A 
HETATM   20  C   UNL     1     -44.261  56.827 -58.691  1.00  0.00     0.046 A 
HETATM   21  C   UNL     1     -44.522  57.663 -56.331  1.00  0.00     0.056 C 
BRANCH  19  22
HETATM   22  O   UNL     1     -43.942  56.023 -60.997  1.00  0.00    -0.356 OA
HETATM   23  C   UNL     1     -45.010  55.097 -60.835  1.00  0.00     0.210 C 
ENDBRANCH  19  22
ENDBRANCH   1  12
BRANCH   7  24
HETATM   24  C   UNL     1     -40.327  51.803 -53.236  1.00  0.00     0.072 A 
HETATM   25  C   UNL     1     -40.229  51.082 -54.409  1.00  0.00     0.052 A 
HETATM   26  C   UNL     1     -39.739  49.804 -54.295  1.00  0.00     0.122 A 
HETATM   27  N   UNL     1     -39.367  49.255 -53.126  1.00  0.00    -0.231 NA
HETATM   28  C   UNL     1     -39.474  50.032 -52.047  1.00  0.00     0.199 A 
HETATM   29  N   UNL     1     -39.950  51.279 -52.048  1.00  0.00    -0.218 NA
BRANCH  28  30
HETATM   30  N   UNL     1     -39.115  49.487 -50.832  1.00  0.00    -0.271 NA
HETATM   31  H   UNL     1     -39.928  49.436 -50.236  1.00  0.00     0.127 HD
HETATM   32  H   UNL     1     -38.307  49.974 -50.471  1.00  0.00     0.127 HD
ENDBRANCH  28  30
ENDBRANCH   7  24
TORSDOF 4
ENDMDL
MODEL 3
REMARK VINA RESULT:      -8.7      2.032      3.017
REMARK  4 active torsions:
REMARK  status: ('A' for Active; 'I' for Inactive)
REMARK    1  A    between atoms: O_2  and  C_3 
REMARK    2  A    between atoms: C_9  and  C_13 
REMARK    3  A    between atoms: C_19  and  C_24 
REMARK    4  A    between atoms: C_28  and  N_29 
ROOT
HETATM    1  C   UNL     1     -42.379  57.648 -53.182  1.00  0.00     0.112 A 
HETATM    2  N   UNL     1     -41.984  57.382 -51.953  1.00  0.00    -0.230 NA
HETATM    3  C   UNL     1     -41.520  56.083 -51.977  1.00  0.00     0.124 A 
HETATM    4  C   UNL     1     -40.986  55.272 -50.967  1.00  0.00     0.148 A 
HETATM    5  F   UNL     1     -40.847  55.725 -49.712  1.00  0.00    -0.203 F 
HETATM    6  C   UNL     1     -40.587  53.962 -51.263  1.00  0.00     0.058 A 
HETATM    7  C   UNL     1     -40.707  53.427 -52.560  1.00  0.00    -0.002 A 
HETATM    8  C   UNL     1     -41.240  54.248 -53.580  1.00  0.00     0.046 A 
HETATM    9  C   UNL     1     -41.634  55.550 -53.255  1.00  0.00     0.066 A 
HETATM   10  N   UNL     1     -42.182  56.560 -54.001  1.00  0.00    -0.342 N 
HETATM   11  H   UNL     1     -42.412  56.517 -54.985  1.00  0.00     0.167 HD
ENDROOT
BRANCH   1  12
HETATM   12  C   UNL     1     -42.995  58.941 -53.645  1.00  0.00     0.084 C 
HETATM   13  C   UNL     1     -42.003  59.865 -54.350  1.00  0.00     0.188 C 
HETATM   14  O   UNL     1     -41.523  59.345 -55.598  1.00  0.00    -0.350 OA
HETATM   15  C   UNL     1     -42.490  58.841 -56.426  1.00  0.00     0.075 A 
HETATM   16  C   UNL     1     -42.109  58.619 -57.746  1.00  0.00     0.040 A 
HETATM   17  C   UNL     1     -43.771  58.487 -55.993  1.00  0.00    -0.021 A 
HETATM   18  C   UNL     1     -43.019  58.069 -58.651  1.00  0.00     0.039 A 
HETATM   19  C   UNL     1     -44.312  57.737 -58.244  1.00  0.00     0.068 A 
HETATM   20  C   UNL     1     -44.685  57.947 -56.915  1.00  0.00     0.046 A 
HETATM   21  C   UNL     1     -44.192  58.696 -54.564  1.00  0.00     0.056 C 
BRANCH  19  22
HETATM   22  O   UNL     1     -45.103  57.213 -59.229  1.00  0.00    -0.356 OA
HETATM   23  C   UNL     1     -44.444  56.538 -60.293  1.00  0.00     0.210 C 
ENDBRANCH  19  22
ENDBRANCH   1  12
BRANCH   7  24
HETATM   24  C   UNL     1     -40.284  52.045 -52.873  1.00  0.00     0.072 A 
HETATM   25  C   UNL     1     -40.275  51.534 -54.155  1.00  0.00     0.052 A 
HETATM   26  C   UNL     1     -39.854  50.233 -54.285  1.00  0.00     0.122 A 
HETATM   27  N   UNL     1     -39.465  49.473 -53.248  1.00  0.00    -0.231 NA
HETATM   28  C   UNL     1     -39.485  50.056 -52.048  1.00  0.00     0.199 A 
HETATM   29  N   UNL     1     -39.889  51.305 -51.812  1.00  0.00    -0.218 NA
BRANCH  28  30
HETATM   30  N   UNL     1     -39.108  49.292 -50.963  1.00  0.00    -0.271 NA
HETATM   31  H   UNL     1     -38.912  48.350 -51.269  1.00  0.00     0.127 HD
HETATM   32  H   UNL     1     -39.784  49.406 -50.221  1.00  0.00     0.127 HD
ENDBRANCH  28  30
ENDBRANCH   7  24
TORSDOF 4
ENDMDL
MODEL 4
REMARK VINA RESULT:      -8.7      4.308      6.436
REMARK  4 active torsions:
REMARK  status: ('A' for Active; 'I' for Inactive)
REMARK    1  A    between atoms: O_2  and  C_3 
REMARK    2  A    between atoms: C_9  and  C_13 
REMARK    3  A    between atoms: C_19  and  C_24 
REMARK    4  A    between atoms: C_28  and  N_29 
ROOT
HETATM    1  C   UNL     1     -41.862  57.749 -53.291  1.00  0.00     0.112 A 
HETATM    2  N   UNL     1     -41.663  57.422 -52.030  1.00  0.00    -0.230 NA
HETATM    3  C   UNL     1     -41.293  56.094 -52.037  1.00  0.00     0.124 A 
HETATM    4  C   UNL     1     -40.964  55.218 -50.993  1.00  0.00     0.148 A 
HETATM    5  F   UNL     1     -40.971  55.627 -49.715  1.00  0.00    -0.203 F 
HETATM    6  C   UNL     1     -40.620  53.891 -51.278  1.00  0.00     0.058 A 
HETATM    7  C   UNL     1     -40.595  53.401 -52.597  1.00  0.00    -0.002 A 
HETATM    8  C   UNL     1     -40.920  54.285 -53.651  1.00  0.00     0.046 A 
HETATM    9  C   UNL     1     -41.263  55.604 -53.336  1.00  0.00     0.066 A 
HETATM   10  N   UNL     1     -41.629  56.671 -54.113  1.00  0.00    -0.342 N 
HETATM   11  H   UNL     1     -41.721  56.671 -55.121  1.00  0.00     0.167 HD
ENDROOT
BRANCH   1  12
HETATM   12  C   UNL     1     -42.315  59.096 -53.787  1.00  0.00     0.084 C 
HETATM   13  C   UNL     1     -43.752  59.097 -54.307  1.00  0.00     0.188 C 
HETATM   14  O   UNL     1     -44.731  58.853 -53.286  1.00  0.00    -0.350 OA
HETATM   15  C   UNL     1     -44.561  59.576 -52.136  1.00  0.00     0.075 A 
HETATM   16  C   UNL     1     -45.645  59.599 -51.264  1.00  0.00     0.040 A 
HETATM   17  C   UNL     1     -43.362  60.205 -51.788  1.00  0.00    -0.021 A 
HETATM   18  C   UNL     1     -45.547  60.278 -50.048  1.00  0.00     0.039 A 
HETATM   19  C   UNL     1     -44.367  60.937 -49.697  1.00  0.00     0.068 A 
HETATM   20  C   UNL     1     -43.278  60.899 -50.568  1.00  0.00     0.046 A 
HETATM   21  C   UNL     1     -42.172  60.169 -52.708  1.00  0.00     0.056 C 
BRANCH  19  22
HETATM   22  O   UNL     1     -44.406  61.567 -48.484  1.00  0.00    -0.356 OA
HETATM   23  C   UNL     1     -45.313  61.050 -47.517  1.00  0.00     0.210 C 
ENDBRANCH  19  22
ENDBRANCH   1  12
BRANCH   7  24
HETATM   24  C   UNL     1     -40.230  51.999 -52.899  1.00  0.00     0.072 A 
HETATM   25  C   UNL     1     -40.268  51.470 -54.174  1.00  0.00     0.052 A 
HETATM   26  C   UNL     1     -39.898  50.153 -54.293  1.00  0.00     0.122 A 
HETATM   27  N   UNL     1     -39.516  49.393 -53.253  1.00  0.00    -0.231 NA
HETATM   28  C   UNL     1     -39.487  49.993 -52.063  1.00  0.00     0.199 A 
HETATM   29  N   UNL     1     -39.840  51.260 -51.836  1.00  0.00    -0.218 NA
BRANCH  28  30
HETATM   30  N   UNL     1     -39.114  49.231 -50.975  1.00  0.00    -0.271 NA
HETATM   31  H   UNL     1     -38.960  48.278 -51.271  1.00  0.00     0.127 HD
HETATM   32  H   UNL     1     -39.769  49.380 -50.220  1.00  0.00     0.127 HD
ENDBRANCH  28  30
ENDBRANCH   7  24
TORSDOF 4
ENDMDL
MODEL 5
REMARK VINA RESULT:      -8.5      4.046      5.857
REMARK  4 active torsions:
REMARK  status: ('A' for Active; 'I' for Inactive)
REMARK    1  A    between atoms: O_2  and  C_3 
REMARK    2  A    between atoms: C_9  and  C_13 
REMARK    3  A    between atoms: C_19  and  C_24 
REMARK    4  A    between atoms: C_28  and  N_29 
ROOT
HETATM    1  C   UNL     1     -41.673  58.410 -53.997  1.00  0.00     0.112 A 
HETATM    2  N   UNL     1     -42.085  57.737 -55.054  1.00  0.00    -0.230 NA
HETATM    3  C   UNL     1     -41.750  56.421 -54.818  1.00  0.00     0.124 A 
HETATM    4  C   UNL     1     -41.936  55.266 -55.590  1.00  0.00     0.148 A 
HETATM    5  F   UNL     1     -42.536  55.320 -56.789  1.00  0.00    -0.203 F 
HETATM    6  C   UNL     1     -41.492  54.027 -55.110  1.00  0.00     0.058 A 
HETATM    7  C   UNL     1     -40.854  53.904 -53.861  1.00  0.00    -0.002 A 
HETATM    8  C   UNL     1     -40.673  55.067 -53.079  1.00  0.00     0.046 A 
HETATM    9  C   UNL     1     -41.123  56.291 -53.586  1.00  0.00     0.066 A 
HETATM   10  N   UNL     1     -41.085  57.565 -53.085  1.00  0.00    -0.342 N 
HETATM   11  H   UNL     1     -40.686  57.846 -52.198  1.00  0.00     0.167 HD
ENDROOT
BRANCH   1  12
HETATM   12  C   UNL     1     -41.787  59.899 -53.806  1.00  0.00     0.084 C 
HETATM   13  C   UNL     1     -42.837  60.545 -54.709  1.00  0.00     0.188 C 
HETATM   14  O   UNL     1     -44.180  60.140 -54.407  1.00  0.00    -0.350 OA
HETATM   15  C   UNL     1     -44.507  60.164 -53.077  1.00  0.00     0.075 A 
HETATM   16  C   UNL     1     -45.865  60.081 -52.781  1.00  0.00     0.040 A 
HETATM   17  C   UNL     1     -43.562  60.193 -52.048  1.00  0.00    -0.021 A 
HETATM   18  C   UNL     1     -46.287  60.058 -51.451  1.00  0.00     0.039 A 
HETATM   19  C   UNL     1     -45.359  60.116 -50.410  1.00  0.00     0.068 A 
HETATM   20  C   UNL     1     -43.998  60.183 -50.712  1.00  0.00     0.046 A 
HETATM   21  C   UNL     1     -42.089  60.257 -52.350  1.00  0.00     0.056 C 
BRANCH  19  22
HETATM   22  O   UNL     1     -45.905  60.091 -49.157  1.00  0.00    -0.356 OA
HETATM   23  C   UNL     1     -45.345  60.974 -48.192  1.00  0.00     0.210 C 
ENDBRANCH  19  22
ENDBRANCH   1  12
BRANCH   7  24
HETATM   24  C   UNL     1     -40.386  52.596 -53.354  1.00  0.00     0.072 A 
HETATM   25  C   UNL     1     -40.032  52.384 -52.036  1.00  0.00     0.052 A 
HETATM   26  C   UNL     1     -39.619  51.113 -51.718  1.00  0.00     0.122 A 
HETATM   27  N   UNL     1     -39.551  50.110 -52.609  1.00  0.00    -0.231 NA
HETATM   28  C   UNL     1     -39.934  50.399 -53.854  1.00  0.00     0.199 A 
HETATM   29  N   UNL     1     -40.337  51.602 -54.269  1.00  0.00    -0.218 NA
BRANCH  28  30
HETATM   30  N   UNL     1     -39.858  49.393 -54.794  1.00  0.00    -0.271 NA
HETATM   31  H   UNL     1     -40.668  48.795 -54.710  1.00  0.00     0.127 HD
HETATM   32  H   UNL     1     -38.951  48.952 -54.741  1.00  0.00     0.127 HD
ENDBRANCH  28  30
ENDBRANCH   7  24
TORSDOF 4
ENDMDL
MODEL 6
REMARK VINA RESULT:      -8.3      2.810      4.231
REMARK  4 active torsions:
REMARK  status: ('A' for Active; 'I' for Inactive)
REMARK    1  A    between atoms: O_2  and  C_3 
REMARK    2  A    between atoms: C_9  and  C_13 
REMARK    3  A    between atoms: C_19  and  C_24 
REMARK    4  A    between atoms: C_28  and  N_29 
ROOT
HETATM    1  C   UNL     1     -41.739  57.338 -51.395  1.00  0.00     0.112 A 
HETATM    2  N   UNL     1     -41.493  56.874 -50.186  1.00  0.00    -0.230 NA
HETATM    3  C   UNL     1     -41.120  55.557 -50.354  1.00  0.00     0.124 A 
HETATM    4  C   UNL     1     -40.751  54.573 -49.427  1.00  0.00     0.148 A 
HETATM    5  F   UNL     1     -40.711  54.836 -48.113  1.00  0.00    -0.203 F 
HETATM    6  C   UNL     1     -40.414  53.288 -49.872  1.00  0.00     0.058 A 
HETATM    7  C   UNL     1     -40.437  52.948 -51.237  1.00  0.00    -0.002 A 
HETATM    8  C   UNL     1     -40.803  53.942 -52.173  1.00  0.00     0.046 A 
HETATM    9  C   UNL     1     -41.137  55.216 -51.701  1.00  0.00     0.066 A 
HETATM   10  N   UNL     1     -41.534  56.360 -52.340  1.00  0.00    -0.342 N 
HETATM   11  H   UNL     1     -41.663  56.473 -53.337  1.00  0.00     0.167 HD
ENDROOT
BRANCH   1  12
HETATM   12  C   UNL     1     -42.213  58.729 -51.720  1.00  0.00     0.084 C 
HETATM   13  C   UNL     1     -41.184  59.553 -52.493  1.00  0.00     0.188 C 
HETATM   14  O   UNL     1     -40.922  59.052 -53.812  1.00  0.00    -0.350 OA
HETATM   15  C   UNL     1     -42.037  58.737 -54.543  1.00  0.00     0.075 A 
HETATM   16  C   UNL     1     -41.838  58.549 -55.908  1.00  0.00     0.040 A 
HETATM   17  C   UNL     1     -43.299  58.533 -53.979  1.00  0.00    -0.021 A 
HETATM   18  C   UNL     1     -42.911  58.186 -56.724  1.00  0.00     0.039 A 
HETATM   19  C   UNL     1     -44.185  58.007 -56.183  1.00  0.00     0.068 A 
HETATM   20  C   UNL     1     -44.376  58.181 -54.812  1.00  0.00     0.046 A 
HETATM   21  C   UNL     1     -43.526  58.707 -52.502  1.00  0.00     0.056 C 
BRANCH  19  22
HETATM   22  O   UNL     1     -45.146  57.658 -57.092  1.00  0.00    -0.356 OA
HETATM   23  C   UNL     1     -44.702  57.310 -58.398  1.00  0.00     0.210 C 
ENDBRANCH  19  22
ENDBRANCH   1  12
BRANCH   7  24
HETATM   24  C   UNL     1     -40.081  51.591 -51.707  1.00  0.00     0.072 A 
HETATM   25  C   UNL     1     -39.852  50.535 -50.848  1.00  0.00     0.052 A 
HETATM   26  C   UNL     1     -39.533  49.336 -51.436  1.00  0.00     0.122 A 
HETATM   27  N   UNL     1     -39.440  49.163 -52.766  1.00  0.00    -0.231 NA
HETATM   28  C   UNL     1     -39.700  50.232 -53.520  1.00  0.00     0.199 A 
HETATM   29  N   UNL     1     -40.004  51.443 -53.049  1.00  0.00    -0.218 NA
BRANCH  28  30
HETATM   30  N   UNL     1     -39.595  50.088 -54.887  1.00  0.00    -0.271 NA
HETATM   31  H   UNL     1     -39.815  50.967 -55.334  1.00  0.00     0.127 HD
HETATM   32  H   UNL     1     -40.119  49.276 -55.181  1.00  0.00     0.127 HD
ENDBRANCH  28  30
ENDBRANCH   7  24
TORSDOF 4
ENDMDL
MODEL 7
REMARK VINA RESULT:      -8.2      2.356      2.924
REMARK  4 active torsions:
REMARK  status: ('A' for Active; 'I' for Inactive)
REMARK    1  A    between atoms: O_2  and  C_3 
REMARK    2  A    between atoms: C_9  and  C_13 
REMARK    3  A    between atoms: C_19  and  C_24 
REMARK    4  A    between atoms: C_28  and  N_29 
ROOT
HETATM    1  C   UNL     1     -43.051  58.686 -55.523  1.00  0.00     0.112 A 
HETATM    2  N   UNL     1     -43.957  58.701 -54.565  1.00  0.00    -0.230 NA
HETATM    3  C   UNL     1     -43.519  57.801 -53.617  1.00  0.00     0.124 A 
HETATM    4  C   UNL     1     -44.075  57.401 -52.394  1.00  0.00     0.148 A 
HETATM    5  F   UNL     1     -45.234  57.915 -51.956  1.00  0.00    -0.203 F 
HETATM    6  C   UNL     1     -43.416  56.448 -51.607  1.00  0.00     0.058 A 
HETATM    7  C   UNL     1     -42.197  55.870 -52.010  1.00  0.00    -0.002 A 
HETATM    8  C   UNL     1     -41.633  56.278 -53.240  1.00  0.00     0.046 A 
HETATM    9  C   UNL     1     -42.316  57.229 -54.008  1.00  0.00     0.066 A 
HETATM   10  N   UNL     1     -42.040  57.804 -55.219  1.00  0.00    -0.342 N 
HETATM   11  H   UNL     1     -41.234  57.613 -55.801  1.00  0.00     0.167 HD
ENDROOT
BRANCH   1  12
HETATM   12  C   UNL     1     -43.108  59.486 -56.797  1.00  0.00     0.084 C 
HETATM   13  C   UNL     1     -41.901  59.261 -57.707  1.00  0.00     0.188 C 
HETATM   14  O   UNL     1     -41.825  57.930 -58.238  1.00  0.00    -0.350 OA
HETATM   15  C   UNL     1     -42.998  57.443 -58.749  1.00  0.00     0.075 A 
HETATM   16  C   UNL     1     -42.892  56.302 -59.540  1.00  0.00     0.040 A 
HETATM   17  C   UNL     1     -44.253  57.984 -58.456  1.00  0.00    -0.021 A 
HETATM   18  C   UNL     1     -44.042  55.713 -60.070  1.00  0.00     0.039 A 
HETATM   19  C   UNL     1     -45.301  56.257 -59.812  1.00  0.00     0.068 A 
HETATM   20  C   UNL     1     -45.404  57.391 -59.006  1.00  0.00     0.046 A 
HETATM   21  C   UNL     1     -44.388  59.202 -57.582  1.00  0.00     0.056 C 
BRANCH  19  22
HETATM   22  O   UNL     1     -46.341  55.587 -60.395  1.00  0.00    -0.356 OA
HETATM   23  C   UNL     1     -47.366  56.377 -60.986  1.00  0.00     0.210 C 
ENDBRANCH  19  22
ENDBRANCH   1  12
BRANCH   7  24
HETATM   24  C   UNL     1     -41.501  54.866 -51.179  1.00  0.00     0.072 A 
HETATM   25  C   UNL     1     -40.931  53.721 -51.701  1.00  0.00     0.052 A 
HETATM   26  C   UNL     1     -40.317  52.886 -50.801  1.00  0.00     0.122 A 
HETATM   27  N   UNL     1     -40.254  53.135 -49.482  1.00  0.00    -0.231 NA
HETATM   28  C   UNL     1     -40.810  54.274 -49.069  1.00  0.00     0.199 A 
HETATM   29  N   UNL     1     -41.443  55.146 -49.857  1.00  0.00    -0.218 NA
BRANCH  28  30
HETATM   30  N   UNL     1     -40.775  54.546 -47.717  1.00  0.00    -0.271 NA
HETATM   31  H   UNL     1     -39.925  54.170 -47.322  1.00  0.00     0.127 HD
HETATM   32  H   UNL     1     -41.647  54.262 -47.294  1.00  0.00     0.127 HD
ENDBRANCH  28  30
ENDBRANCH   7  24
TORSDOF 4
ENDMDL
MODEL 8
REMARK VINA RESULT:      -8.2      3.954      5.034
REMARK  4 active torsions:
REMARK  status: ('A' for Active; 'I' for Inactive)
REMARK    1  A    between atoms: O_2  and  C_3 
REMARK    2  A    between atoms: C_9  and  C_13 
REMARK    3  A    between atoms: C_19  and  C_24 
REMARK    4  A    between atoms: C_28  and  N_29 
ROOT
HETATM    1  C   UNL     1     -41.948  57.234 -51.890  1.00  0.00     0.112 A 
HETATM    2  N   UNL     1     -41.889  57.108 -53.201  1.00  0.00    -0.230 NA
HETATM    3  C   UNL     1     -41.476  55.815 -53.440  1.00  0.00     0.124 A 
HETATM    4  C   UNL     1     -41.235  55.125 -54.636  1.00  0.00     0.148 A 
HETATM    5  F   UNL     1     -41.404  55.720 -55.827  1.00  0.00    -0.203 F 
HETATM    6  C   UNL     1     -40.811  53.791 -54.599  1.00  0.00     0.058 A 
HETATM    7  C   UNL     1     -40.614  53.112 -53.382  1.00  0.00    -0.002 A 
HETATM    8  C   UNL     1     -40.863  53.804 -52.175  1.00  0.00     0.046 A 
HETATM    9  C   UNL     1     -41.283  55.138 -52.243  1.00  0.00     0.066 A 
HETATM   10  N   UNL     1     -41.587  56.058 -51.275  1.00  0.00    -0.342 N 
HETATM   11  H   UNL     1     -41.547  55.907 -50.275  1.00  0.00     0.167 HD
ENDROOT
BRANCH   1  12
HETATM   12  C   UNL     1     -42.321  58.487 -51.145  1.00  0.00     0.084 C 
HETATM   13  C   UNL     1     -41.350  59.643 -51.381  1.00  0.00     0.188 C 
HETATM   14  O   UNL     1     -41.357  60.131 -52.730  1.00  0.00    -0.350 OA
HETATM   15  C   UNL     1     -42.601  60.339 -53.264  1.00  0.00     0.075 A 
HETATM   16  C   UNL     1     -42.645  61.092 -54.433  1.00  0.00     0.040 A 
HETATM   17  C   UNL     1     -43.771  59.783 -52.739  1.00  0.00    -0.021 A 
HETATM   18  C   UNL     1     -43.866  61.321 -55.069  1.00  0.00     0.039 A 
HETATM   19  C   UNL     1     -45.049  60.798 -54.543  1.00  0.00     0.068 A 
HETATM   20  C   UNL     1     -44.998  60.030 -53.379  1.00  0.00     0.046 A 
HETATM   21  C   UNL     1     -43.739  58.945 -51.490  1.00  0.00     0.056 C 
BRANCH  19  22
HETATM   22  O   UNL     1     -46.174  61.101 -55.259  1.00  0.00    -0.356 OA
HETATM   23  C   UNL     1     -46.048  61.128 -56.676  1.00  0.00     0.210 C 
ENDBRANCH  19  22
ENDBRANCH   1  12
BRANCH   7  24
HETATM   24  C   UNL     1     -40.167  51.702 -53.342  1.00  0.00     0.072 A 
HETATM   25  C   UNL     1     -40.073  50.911 -54.470  1.00  0.00     0.052 A 
HETATM   26  C   UNL     1     -39.640  49.623 -54.271  1.00  0.00     0.122 A 
HETATM   27  N   UNL     1     -39.317  49.128 -53.064  1.00  0.00    -0.231 NA
HETATM   28  C   UNL     1     -39.415  49.969 -52.034  1.00  0.00     0.199 A 
HETATM   29  N   UNL     1     -39.839  51.232 -52.117  1.00  0.00    -0.218 NA
BRANCH  28  30
HETATM   30  N   UNL     1     -39.107  49.482 -50.781  1.00  0.00    -0.271 NA
HETATM   31  H   UNL     1     -38.587  48.621 -50.876  1.00  0.00     0.127 HD
HETATM   32  H   UNL     1     -39.943  49.457 -50.215  1.00  0.00     0.127 HD
ENDBRANCH  28  30
ENDBRANCH   7  24
TORSDOF 4
ENDMDL
MODEL 9
REMARK VINA RESULT:      -7.8     15.242     17.196
REMARK  4 active torsions:
REMARK  status: ('A' for Active; 'I' for Inactive)
REMARK    1  A    between atoms: O_2  and  C_3 
REMARK    2  A    between atoms: C_9  and  C_13 
REMARK    3  A    between atoms: C_19  and  C_24 
REMARK    4  A    between atoms: C_28  and  N_29 
ROOT
HETATM    1  C   UNL     1     -36.104  41.756 -54.609  1.00  0.00     0.112 A 
HETATM    2  N   UNL     1     -37.118  41.288 -53.908  1.00  0.00    -0.230 NA
HETATM    3  C   UNL     1     -36.567  40.735 -52.771  1.00  0.00     0.124 A 
HETATM    4  C   UNL     1     -37.158  40.091 -51.675  1.00  0.00     0.148 A 
HETATM    5  F   UNL     1     -38.487  39.924 -51.601  1.00  0.00    -0.203 F 
HETATM    6  C   UNL     1     -36.355  39.611 -50.633  1.00  0.00     0.058 A 
HETATM    7  C   UNL     1     -34.955  39.754 -50.652  1.00  0.00    -0.002 A 
HETATM    8  C   UNL     1     -34.359  40.409 -51.753  1.00  0.00     0.046 A 
HETATM    9  C   UNL     1     -35.186  40.876 -52.782  1.00  0.00     0.066 A 
HETATM   10  N   UNL     1     -34.916  41.524 -53.957  1.00  0.00    -0.342 N 
HETATM   11  H   UNL     1     -33.999  41.786 -54.298  1.00  0.00     0.167 HD
ENDROOT
BRANCH   1  12
HETATM   12  C   UNL     1     -36.204  42.425 -55.954  1.00  0.00     0.084 C 
HETATM   13  C   UNL     1     -34.967  42.214 -56.827  1.00  0.00     0.188 C 
HETATM   14  O   UNL     1     -34.775  40.849 -57.228  1.00  0.00    -0.350 OA
HETATM   15  C   UNL     1     -35.896  40.221 -57.701  1.00  0.00     0.075 A 
HETATM   16  C   UNL     1     -35.685  39.023 -58.377  1.00  0.00     0.040 A 
HETATM   17  C   UNL     1     -37.195  40.683 -57.473  1.00  0.00    -0.021 A 
HETATM   18  C   UNL     1     -36.774  38.294 -58.859  1.00  0.00     0.039 A 
HETATM   19  C   UNL     1     -38.077  38.755 -58.667  1.00  0.00     0.068 A 
HETATM   20  C   UNL     1     -38.285  39.949 -57.974  1.00  0.00     0.046 A 
HETATM   21  C   UNL     1     -37.443  41.963 -56.721  1.00  0.00     0.056 C 
BRANCH  19  22
HETATM   22  O   UNL     1     -39.050  37.950 -59.193  1.00  0.00    -0.356 OA
HETATM   23  C   UNL     1     -39.377  38.146 -60.563  1.00  0.00     0.210 C 
ENDBRANCH  19  22
ENDBRANCH   1  12
BRANCH   7  24
HETATM   24  C   UNL     1     -34.107  39.248 -49.551  1.00  0.00     0.072 A 
HETATM   25  C   UNL     1     -34.549  38.324 -48.625  1.00  0.00     0.052 A 
HETATM   26  C   UNL     1     -33.643  37.950 -47.663  1.00  0.00     0.122 A 
HETATM   27  N   UNL     1     -32.391  38.433 -47.596  1.00  0.00    -0.231 NA
HETATM   28  C   UNL     1     -32.042  39.303 -48.545  1.00  0.00     0.199 A 
HETATM   29  N   UNL     1     -32.849  39.742 -49.513  1.00  0.00    -0.218 NA
BRANCH  28  30
HETATM   30  N   UNL     1     -30.768  39.828 -48.490  1.00  0.00    -0.271 NA
HETATM   31  H   UNL     1     -30.152  39.165 -48.042  1.00  0.00     0.127 HD
HETATM   32  H   UNL     1     -30.805  40.760 -48.102  1.00  0.00     0.127 HD
ENDBRANCH  28  30
ENDBRANCH   7  24
TORSDOF 4
ENDMDL
MODEL 10
REMARK VINA RESULT:      -7.7      4.191      8.313
REMARK  4 active torsions:
REMARK  status: ('A' for Active; 'I' for Inactive)
REMARK    1  A    between atoms: O_2  and  C_3 
REMARK    2  A    between atoms: C_9  and  C_13 
REMARK    3  A    between atoms: C_19  and  C_24 
REMARK    4  A    between atoms: C_28  and  N_29 
ROOT
HETATM    1  C   UNL     1     -42.177  58.838 -53.975  1.00  0.00     0.112 A 
HETATM    2  N   UNL     1     -41.647  59.471 -55.003  1.00  0.00    -0.230 NA
HETATM    3  C   UNL     1     -42.193  58.891 -56.128  1.00  0.00     0.124 A 
HETATM    4  C   UNL     1     -41.997  59.151 -57.492  1.00  0.00     0.148 A 
HETATM    5  F   UNL     1     -41.156  60.111 -57.902  1.00  0.00    -0.203 F 
HETATM    6  C   UNL     1     -42.687  58.398 -58.450  1.00  0.00     0.058 A 
HETATM    7  C   UNL     1     -43.582  57.376 -58.084  1.00  0.00    -0.002 A 
HETATM    8  C   UNL     1     -43.786  57.118 -56.709  1.00  0.00     0.046 A 
HETATM    9  C   UNL     1     -43.080  57.883 -55.774  1.00  0.00     0.066 A 
HETATM   10  N   UNL     1     -43.052  57.867 -54.405  1.00  0.00    -0.342 N 
HETATM   11  H   UNL     1     -43.578  57.245 -53.804  1.00  0.00     0.167 HD
ENDROOT
BRANCH   1  12
HETATM   12  C   UNL     1     -41.861  59.098 -52.527  1.00  0.00     0.084 C 
HETATM   13  C   UNL     1     -43.107  59.224 -51.650  1.00  0.00     0.188 C 
HETATM   14  O   UNL     1     -43.855  58.005 -51.539  1.00  0.00    -0.350 OA
HETATM   15  C   UNL     1     -43.107  56.888 -51.275  1.00  0.00     0.075 A 
HETATM   16  C   UNL     1     -43.814  55.764 -50.858  1.00  0.00     0.040 A 
HETATM   17  C   UNL     1     -41.725  56.819 -51.473  1.00  0.00    -0.021 A 
HETATM   18  C   UNL     1     -43.137  54.569 -50.607  1.00  0.00     0.039 A 
HETATM   19  C   UNL     1     -41.753  54.490 -50.770  1.00  0.00     0.068 A 
HETATM   20  C   UNL     1     -41.051  55.615 -51.204  1.00  0.00     0.046 A 
HETATM   21  C   UNL     1     -40.948  58.017 -51.948  1.00  0.00     0.056 C 
BRANCH  19  22
HETATM   22  O   UNL     1     -41.215  53.265 -50.485  1.00  0.00    -0.356 OA
HETATM   23  C   UNL     1     -39.988  52.935 -51.125  1.00  0.00     0.210 C 
ENDBRANCH  19  22
ENDBRANCH   1  12
BRANCH   7  24
HETATM   24  C   UNL     1     -44.312  56.583 -59.097  1.00  0.00     0.072 A 
HETATM   25  C   UNL     1     -43.965  55.289 -59.431  1.00  0.00     0.052 A 
HETATM   26  C   UNL     1     -44.742  54.683 -60.388  1.00  0.00     0.122 A 
HETATM   27  N   UNL     1     -45.786  55.282 -60.985  1.00  0.00    -0.231 NA
HETATM   28  C   UNL     1     -46.063  56.524 -60.584  1.00  0.00     0.199 A 
HETATM   29  N   UNL     1     -45.364  57.206 -59.674  1.00  0.00    -0.218 NA
BRANCH  28  30
HETATM   30  N   UNL     1     -47.119  57.169 -61.192  1.00  0.00    -0.271 NA
HETATM   31  H   UNL     1     -47.957  57.026 -60.648  1.00  0.00     0.127 HD
HETATM   32  H   UNL     1     -47.152  56.912 -62.168  1.00  0.00     0.127 HD
ENDBRANCH  28  30
ENDBRANCH   7  24
TORSDOF 4
ENDMDL
