MODEL 1
REMARK VINA RESULT:      -7.6      0.000      0.000
REMARK  6 active torsions:
REMARK  status: ('A' for Active; 'I' for Inactive)
REMARK    1  A    between atoms: N_2  and  C_4 
REMARK    2  A    between atoms: N_2  and  C_16 
REMARK    3  A    between atoms: C_4  and  C_5 
REMARK       I    between atoms: C_5  and  N_6 
REMARK    4  A    between atoms: N_6  and  C_7 
REMARK    5  A    between atoms: C_16  and  C_17 
REMARK    6  A    between atoms: C_18  and  C_19 
ROOT
HETATM    1  C   UNL     1     -43.481  56.583 -51.185  1.00  0.00     0.270 C 
HETATM    2  N   UNL     1     -42.378  57.181 -50.358  1.00  0.00    -0.063 N 
HETATM    3  H   UNL     1     -42.690  57.149 -49.380  1.00  0.00     0.280 HD
ENDROOT
BRANCH   2   4
HETATM    4  C   UNL     1     -41.085  56.351 -50.414  1.00  0.00     0.337 C 
BRANCH   4   5
HETATM    5  C   UNL     1     -41.108  55.032 -49.645  1.00  0.00     0.248 C 
HETATM    6  N   UNL     1     -41.088  53.823 -50.273  1.00  0.00    -0.326 N 
HETATM    7  H   UNL     1     -41.088  53.071 -49.586  1.00  0.00     0.169 HD
HETATM    8  O   UNL     1     -41.142  55.034 -48.410  1.00  0.00    -0.271 OA
BRANCH   6   9
HETATM    9  C   UNL     1     -41.056  53.403 -51.617  1.00  0.00     0.040 A 
HETATM   10  C   UNL     1     -41.962  53.763 -52.614  1.00  0.00     0.072 A 
HETATM   11  C   UNL     1     -41.801  53.280 -53.918  1.00  0.00     0.121 A 
HETATM   12  F   UNL     1     -42.686  53.651 -54.853  1.00  0.00    -0.206 F 
HETATM   13  C   UNL     1     -40.762  52.433 -54.260  1.00  0.00     0.084 A 
HETATM   14  C   UNL     1     -39.871  52.064 -53.270  1.00  0.00     0.121 A 
HETATM   15  F   UNL     1     -38.855  51.244 -53.565  1.00  0.00    -0.206 F 
HETATM   16  C   UNL     1     -40.008  52.536 -51.964  1.00  0.00     0.072 A 
ENDBRANCH   6   9
ENDBRANCH   4   5
ENDBRANCH   2   4
BRANCH   2  17
HETATM   17  C   UNL     1     -42.157  58.650 -50.664  1.00  0.00     0.277 C 
BRANCH  17  18
HETATM   18  C   UNL     1     -40.848  58.908 -51.323  1.00  0.00     0.016 A 
HETATM   19  C   UNL     1     -40.471  58.812 -52.697  1.00  0.00     0.103 A 
HETATM   20  N   UNL     1     -39.181  59.130 -52.864  1.00  0.00    -0.173 NA
HETATM   21  N   UNL     1     -38.742  59.469 -51.650  1.00  0.00    -0.288 N 
HETATM   22  H   UNL     1     -37.777  59.780 -51.553  1.00  0.00     0.188 HD
HETATM   23  C   UNL     1     -39.694  59.333 -50.686  1.00  0.00     0.120 A 
BRANCH  19  24
HETATM   24  C   UNL     1     -41.291  58.401 -53.897  1.00  0.00     0.035 A 
HETATM   25  S   UNL     1     -41.991  59.452 -55.047  1.00  0.00    -0.100 SA
HETATM   26  C   UNL     1     -42.647  58.158 -55.949  1.00  0.00     0.050 A 
HETATM   27  C   UNL     1     -42.352  56.940 -55.381  1.00  0.00     0.008 A 
HETATM   28  C   UNL     1     -41.574  57.081 -54.196  1.00  0.00     0.022 A 
ENDBRANCH  19  24
ENDBRANCH  17  18
ENDBRANCH   2  17
TORSDOF 6
ENDMDL
MODEL 2
REMARK VINA RESULT:      -7.5      2.820      5.306
REMARK  6 active torsions:
REMARK  status: ('A' for Active; 'I' for Inactive)
REMARK    1  A    between atoms: N_2  and  C_4 
REMARK    2  A    between atoms: N_2  and  C_16 
REMARK    3  A    between atoms: C_4  and  C_5 
REMARK       I    between atoms: C_5  and  N_6 
REMARK    4  A    between atoms: N_6  and  C_7 
REMARK    5  A    between atoms: C_16  and  C_17 
REMARK    6  A    between atoms: C_18  and  C_19 
ROOT
HETATM    1  C   UNL     1     -40.571  58.310 -50.648  1.00  0.00     0.270 C 
HETATM    2  N   UNL     1     -41.730  57.361 -50.775  1.00  0.00    -0.063 N 
HETATM    3  H   UNL     1     -42.013  57.110 -49.820  1.00  0.00     0.280 HD
ENDROOT
BRANCH   2   4
HETATM    4  C   UNL     1     -42.960  58.021 -51.419  1.00  0.00     0.337 C 
BRANCH   4   5
HETATM    5  C   UNL     1     -44.198  57.138 -51.548  1.00  0.00     0.248 C 
HETATM    6  N   UNL     1     -44.611  56.633 -52.744  1.00  0.00    -0.326 N 
HETATM    7  H   UNL     1     -45.440  56.055 -52.614  1.00  0.00     0.169 HD
HETATM    8  O   UNL     1     -44.865  56.854 -50.547  1.00  0.00    -0.271 OA
BRANCH   6   9
HETATM    9  C   UNL     1     -44.149  56.722 -54.072  1.00  0.00     0.040 A 
HETATM   10  C   UNL     1     -44.440  57.741 -54.978  1.00  0.00     0.072 A 
HETATM   11  C   UNL     1     -43.898  57.710 -56.268  1.00  0.00     0.121 A 
HETATM   12  F   UNL     1     -44.192  58.708 -57.112  1.00  0.00    -0.206 F 
HETATM   13  C   UNL     1     -43.076  56.680 -56.691  1.00  0.00     0.084 A 
HETATM   14  C   UNL     1     -42.798  55.662 -55.798  1.00  0.00     0.121 A 
HETATM   15  F   UNL     1     -42.009  54.648 -56.174  1.00  0.00    -0.206 F 
HETATM   16  C   UNL     1     -43.323  55.673 -54.505  1.00  0.00     0.072 A 
ENDBRANCH   6   9
ENDBRANCH   4   5
ENDBRANCH   2   4
BRANCH   2  17
HETATM   17  C   UNL     1     -41.339  56.054 -51.438  1.00  0.00     0.277 C 
BRANCH  17  18
HETATM   18  C   UNL     1     -41.060  54.974 -50.454  1.00  0.00     0.016 A 
HETATM   19  C   UNL     1     -40.613  53.632 -50.657  1.00  0.00     0.103 A 
HETATM   20  N   UNL     1     -40.491  52.986 -49.490  1.00  0.00    -0.173 NA
HETATM   21  N   UNL     1     -40.802  53.886 -48.555  1.00  0.00    -0.288 N 
HETATM   22  H   UNL     1     -40.744  53.608 -47.577  1.00  0.00     0.188 HD
HETATM   23  C   UNL     1     -41.171  55.088 -49.078  1.00  0.00     0.120 A 
BRANCH  19  24
HETATM   24  C   UNL     1     -40.304  52.901 -51.942  1.00  0.00     0.035 A 
HETATM   25  S   UNL     1     -39.469  51.418 -52.081  1.00  0.00    -0.100 SA
HETATM   26  C   UNL     1     -39.620  51.400 -53.783  1.00  0.00     0.050 A 
HETATM   27  C   UNL     1     -40.285  52.512 -54.246  1.00  0.00     0.008 A 
HETATM   28  C   UNL     1     -40.675  53.379 -53.185  1.00  0.00     0.022 A 
ENDBRANCH  19  24
ENDBRANCH  17  18
ENDBRANCH   2  17
TORSDOF 6
ENDMDL
MODEL 3
REMARK VINA RESULT:      -7.4      1.797      2.435
REMARK  6 active torsions:
REMARK  status: ('A' for Active; 'I' for Inactive)
REMARK    1  A    between atoms: N_2  and  C_4 
REMARK    2  A    between atoms: N_2  and  C_16 
REMARK    3  A    between atoms: C_4  and  C_5 
REMARK       I    between atoms: C_5  and  N_6 
REMARK    4  A    between atoms: N_6  and  C_7 
REMARK    5  A    between atoms: C_16  and  C_17 
REMARK    6  A    between atoms: C_18  and  C_19 
ROOT
HETATM    1  C   UNL     1     -43.310  54.143 -51.529  1.00  0.00     0.270 C 
HETATM    2  N   UNL     1     -42.848  55.269 -50.647  1.00  0.00    -0.063 N 
HETATM    3  H   UNL     1     -43.298  55.133 -49.733  1.00  0.00     0.280 HD
ENDROOT
BRANCH   2   4
HETATM    4  C   UNL     1     -41.334  55.222 -50.382  1.00  0.00     0.337 C 
BRANCH   4   5
HETATM    5  C   UNL     1     -40.894  54.387 -49.182  1.00  0.00     0.248 C 
HETATM    6  N   UNL     1     -40.397  53.125 -49.316  1.00  0.00    -0.326 N 
HETATM    7  H   UNL     1     -40.145  52.749 -48.404  1.00  0.00     0.169 HD
HETATM    8  O   UNL     1     -40.980  54.849 -48.039  1.00  0.00    -0.271 OA
BRANCH   6   9
HETATM    9  C   UNL     1     -40.153  52.265 -50.404  1.00  0.00     0.040 A 
HETATM   10  C   UNL     1     -39.843  52.653 -51.707  1.00  0.00     0.072 A 
HETATM   11  C   UNL     1     -39.610  51.686 -52.692  1.00  0.00     0.121 A 
HETATM   12  F   UNL     1     -39.308  52.093 -53.932  1.00  0.00    -0.206 F 
HETATM   13  C   UNL     1     -39.686  50.332 -52.419  1.00  0.00     0.084 A 
HETATM   14  C   UNL     1     -40.007  49.946 -51.130  1.00  0.00     0.121 A 
HETATM   15  F   UNL     1     -40.092  48.644 -50.831  1.00  0.00    -0.206 F 
HETATM   16  C   UNL     1     -40.240  50.891 -50.131  1.00  0.00     0.072 A 
ENDBRANCH   6   9
ENDBRANCH   4   5
ENDBRANCH   2   4
BRANCH   2  17
HETATM   17  C   UNL     1     -43.326  56.622 -51.137  1.00  0.00     0.277 C 
BRANCH  17  18
HETATM   18  C   UNL     1     -42.221  57.458 -51.680  1.00  0.00     0.016 A 
HETATM   19  C   UNL     1     -41.509  57.360 -52.914  1.00  0.00     0.103 A 
HETATM   20  N   UNL     1     -40.579  58.319 -53.008  1.00  0.00    -0.173 NA
HETATM   21  N   UNL     1     -40.710  59.047 -51.897  1.00  0.00    -0.288 N 
HETATM   22  H   UNL     1     -40.109  59.861 -51.778  1.00  0.00     0.188 HD
HETATM   23  C   UNL     1     -41.666  58.564 -51.056  1.00  0.00     0.120 A 
BRANCH  19  24
HETATM   24  C   UNL     1     -41.654  56.360 -54.036  1.00  0.00     0.035 A 
HETATM   25  S   UNL     1     -42.820  56.407 -55.283  1.00  0.00    -0.100 SA
HETATM   26  C   UNL     1     -42.218  54.983 -56.010  1.00  0.00     0.050 A 
HETATM   27  C   UNL     1     -41.152  54.466 -55.311  1.00  0.00     0.008 A 
HETATM   28  C   UNL     1     -40.830  55.258 -54.170  1.00  0.00     0.022 A 
ENDBRANCH  19  24
ENDBRANCH  17  18
ENDBRANCH   2  17
TORSDOF 6
ENDMDL
MODEL 4
REMARK VINA RESULT:      -7.3      2.102      3.564
REMARK  6 active torsions:
REMARK  status: ('A' for Active; 'I' for Inactive)
REMARK    1  A    between atoms: N_2  and  C_4 
REMARK    2  A    between atoms: N_2  and  C_16 
REMARK    3  A    between atoms: C_4  and  C_5 
REMARK       I    between atoms: C_5  and  N_6 
REMARK    4  A    between atoms: N_6  and  C_7 
REMARK    5  A    between atoms: C_16  and  C_17 
REMARK    6  A    between atoms: C_18  and  C_19 
ROOT
HETATM    1  C   UNL     1     -43.775  54.674 -54.305  1.00  0.00     0.270 C 
HETATM    2  N   UNL     1     -42.908  55.425 -53.335  1.00  0.00    -0.063 N 
HETATM    3  H   UNL     1     -43.429  56.267 -53.061  1.00  0.00     0.280 HD
ENDROOT
BRANCH   2   4
HETATM    4  C   UNL     1     -42.665  54.640 -52.035  1.00  0.00     0.337 C 
BRANCH   4   5
HETATM    5  C   UNL     1     -41.345  54.924 -51.323  1.00  0.00     0.248 C 
HETATM    6  N   UNL     1     -40.310  54.038 -51.328  1.00  0.00    -0.326 N 
HETATM    7  H   UNL     1     -39.517  54.422 -50.816  1.00  0.00     0.169 HD
HETATM    8  O   UNL     1     -41.184  55.988 -50.716  1.00  0.00    -0.271 OA
BRANCH   6   9
HETATM    9  C   UNL     1     -40.101  52.759 -51.878  1.00  0.00     0.040 A 
HETATM   10  C   UNL     1     -40.130  52.431 -53.233  1.00  0.00     0.072 A 
HETATM   11  C   UNL     1     -39.890  51.114 -53.642  1.00  0.00     0.121 A 
HETATM   12  F   UNL     1     -39.918  50.834 -54.952  1.00  0.00    -0.206 F 
HETATM   13  C   UNL     1     -39.628  50.103 -52.735  1.00  0.00     0.084 A 
HETATM   14  C   UNL     1     -39.612  50.424 -51.390  1.00  0.00     0.121 A 
HETATM   15  F   UNL     1     -39.365  49.470 -50.484  1.00  0.00    -0.206 F 
HETATM   16  C   UNL     1     -39.845  51.730 -50.958  1.00  0.00     0.072 A 
ENDBRANCH   6   9
ENDBRANCH   4   5
ENDBRANCH   2   4
BRANCH   2  17
HETATM   17  C   UNL     1     -41.629  55.932 -53.973  1.00  0.00     0.277 C 
BRANCH  17  18
HETATM   18  C   UNL     1     -41.782  57.288 -54.566  1.00  0.00     0.016 A 
HETATM   19  C   UNL     1     -41.531  58.576 -54.003  1.00  0.00     0.103 A 
HETATM   20  N   UNL     1     -41.806  59.547 -54.884  1.00  0.00    -0.173 NA
HETATM   21  N   UNL     1     -42.178  58.914 -55.999  1.00  0.00    -0.288 N 
HETATM   22  H   UNL     1     -42.406  59.474 -56.820  1.00  0.00     0.188 HD
HETATM   23  C   UNL     1     -42.202  57.560 -55.858  1.00  0.00     0.120 A 
BRANCH  19  24
HETATM   24  C   UNL     1     -41.048  58.949 -52.621  1.00  0.00     0.035 A 
HETATM   25  S   UNL     1     -42.018  59.505 -51.330  1.00  0.00    -0.100 SA
HETATM   26  C   UNL     1     -40.681  59.633 -50.275  1.00  0.00     0.050 A 
HETATM   27  C   UNL     1     -39.507  59.271 -50.894  1.00  0.00     0.008 A 
HETATM   28  C   UNL     1     -39.719  58.881 -52.248  1.00  0.00     0.022 A 
ENDBRANCH  19  24
ENDBRANCH  17  18
ENDBRANCH   2  17
TORSDOF 6
ENDMDL
MODEL 5
REMARK VINA RESULT:      -7.3      3.105      4.249
REMARK  6 active torsions:
REMARK  status: ('A' for Active; 'I' for Inactive)
REMARK    1  A    between atoms: N_2  and  C_4 
REMARK    2  A    between atoms: N_2  and  C_16 
REMARK    3  A    between atoms: C_4  and  C_5 
REMARK       I    between atoms: C_5  and  N_6 
REMARK    4  A    between atoms: N_6  and  C_7 
REMARK    5  A    between atoms: C_16  and  C_17 
REMARK    6  A    between atoms: C_18  and  C_19 
ROOT
HETATM    1  C   UNL     1     -41.514  54.931 -55.418  1.00  0.00     0.270 C 
HETATM    2  N   UNL     1     -42.805  54.679 -54.691  1.00  0.00    -0.063 N 
HETATM    3  H   UNL     1     -43.301  53.946 -55.213  1.00  0.00     0.280 HD
ENDROOT
BRANCH   2   4
HETATM    4  C   UNL     1     -42.582  54.113 -53.279  1.00  0.00     0.337 C 
BRANCH   4   5
HETATM    5  C   UNL     1     -41.306  54.566 -52.574  1.00  0.00     0.248 C 
HETATM    6  N   UNL     1     -40.282  53.709 -52.302  1.00  0.00    -0.326 N 
HETATM    7  H   UNL     1     -39.518  54.208 -51.849  1.00  0.00     0.169 HD
HETATM    8  O   UNL     1     -41.171  55.745 -52.232  1.00  0.00    -0.271 OA
BRANCH   6   9
HETATM    9  C   UNL     1     -40.053  52.335 -52.515  1.00  0.00     0.040 A 
HETATM   10  C   UNL     1     -40.064  51.680 -53.745  1.00  0.00     0.072 A 
HETATM   11  C   UNL     1     -39.806  50.306 -53.812  1.00  0.00     0.121 A 
HETATM   12  F   UNL     1     -39.817  49.709 -55.011  1.00  0.00    -0.206 F 
HETATM   13  C   UNL     1     -39.543  49.556 -52.680  1.00  0.00     0.084 A 
HETATM   14  C   UNL     1     -39.545  50.202 -51.457  1.00  0.00     0.121 A 
HETATM   15  F   UNL     1     -39.299  49.507 -50.340  1.00  0.00    -0.206 F 
HETATM   16  C   UNL     1     -39.797  51.571 -51.365  1.00  0.00     0.072 A 
ENDBRANCH   6   9
ENDBRANCH   4   5
ENDBRANCH   2   4
BRANCH   2  17
HETATM   17  C   UNL     1     -43.726  55.884 -54.712  1.00  0.00     0.277 C 
BRANCH  17  18
HETATM   18  C   UNL     1     -43.092  57.080 -55.328  1.00  0.00     0.016 A 
HETATM   19  C   UNL     1     -43.071  57.518 -56.688  1.00  0.00     0.103 A 
HETATM   20  N   UNL     1     -42.376  58.656 -56.814  1.00  0.00    -0.173 NA
HETATM   21  N   UNL     1     -41.997  58.977 -55.575  1.00  0.00    -0.288 N 
HETATM   22  H   UNL     1     -41.474  59.840 -55.437  1.00  0.00     0.188 HD
HETATM   23  C   UNL     1     -42.381  58.056 -54.649  1.00  0.00     0.120 A 
BRANCH  19  24
HETATM   24  C   UNL     1     -43.677  56.882 -57.916  1.00  0.00     0.035 A 
HETATM   25  S   UNL     1     -45.040  57.447 -58.775  1.00  0.00    -0.100 SA
HETATM   26  C   UNL     1     -44.948  56.181 -59.917  1.00  0.00     0.050 A 
HETATM   27  C   UNL     1     -43.903  55.327 -59.647  1.00  0.00     0.008 A 
HETATM   28  C   UNL     1     -43.173  55.730 -58.491  1.00  0.00     0.022 A 
ENDBRANCH  19  24
ENDBRANCH  17  18
ENDBRANCH   2  17
TORSDOF 6
ENDMDL
MODEL 6
REMARK VINA RESULT:      -7.3      2.754      4.024
REMARK  6 active torsions:
REMARK  status: ('A' for Active; 'I' for Inactive)
REMARK    1  A    between atoms: N_2  and  C_4 
REMARK    2  A    between atoms: N_2  and  C_16 
REMARK    3  A    between atoms: C_4  and  C_5 
REMARK       I    between atoms: C_5  and  N_6 
REMARK    4  A    between atoms: N_6  and  C_7 
REMARK    5  A    between atoms: C_16  and  C_17 
REMARK    6  A    between atoms: C_18  and  C_19 
ROOT
HETATM    1  C   UNL     1     -42.473  54.610 -50.277  1.00  0.00     0.270 C 
HETATM    2  N   UNL     1     -42.613  55.440 -51.522  1.00  0.00    -0.063 N 
HETATM    3  H   UNL     1     -41.804  56.073 -51.550  1.00  0.00     0.280 HD
ENDROOT
BRANCH   2   4
HETATM    4  C   UNL     1     -42.529  54.594 -52.803  1.00  0.00     0.337 C 
BRANCH   4   5
HETATM    5  C   UNL     1     -41.320  54.857 -53.696  1.00  0.00     0.248 C 
HETATM    6  N   UNL     1     -40.348  53.924 -53.899  1.00  0.00    -0.326 N 
HETATM    7  H   UNL     1     -39.642  54.285 -54.539  1.00  0.00     0.169 HD
HETATM    8  O   UNL     1     -41.195  55.945 -54.269  1.00  0.00    -0.271 OA
BRANCH   6   9
HETATM    9  C   UNL     1     -40.121  52.611 -53.442  1.00  0.00     0.040 A 
HETATM   10  C   UNL     1     -39.920  52.224 -52.117  1.00  0.00     0.072 A 
HETATM   11  C   UNL     1     -39.719  50.875 -51.803  1.00  0.00     0.121 A 
HETATM   12  F   UNL     1     -39.536  50.536 -50.519  1.00  0.00    -0.206 F 
HETATM   13  C   UNL     1     -39.704  49.891 -52.776  1.00  0.00     0.084 A 
HETATM   14  C   UNL     1     -39.891  50.275 -54.091  1.00  0.00     0.121 A 
HETATM   15  F   UNL     1     -39.879  49.351 -55.059  1.00  0.00    -0.206 F 
HETATM   16  C   UNL     1     -40.095  51.614 -54.429  1.00  0.00     0.072 A 
ENDBRANCH   6   9
ENDBRANCH   4   5
ENDBRANCH   2   4
BRANCH   2  17
HETATM   17  C   UNL     1     -43.831  56.343 -51.483  1.00  0.00     0.277 C 
BRANCH  17  18
HETATM   18  C   UNL     1     -43.798  57.397 -52.532  1.00  0.00     0.016 A 
HETATM   19  C   UNL     1     -42.911  58.504 -52.703  1.00  0.00     0.103 A 
HETATM   20  N   UNL     1     -43.238  59.218 -53.788  1.00  0.00    -0.173 NA
HETATM   21  N   UNL     1     -44.271  58.574 -54.334  1.00  0.00    -0.288 N 
HETATM   22  H   UNL     1     -44.664  58.937 -55.202  1.00  0.00     0.188 HD
HETATM   23  C   UNL     1     -44.661  57.488 -53.612  1.00  0.00     0.120 A 
BRANCH  19  24
HETATM   24  C   UNL     1     -41.745  58.947 -51.852  1.00  0.00     0.035 A 
HETATM   25  S   UNL     1     -41.830  59.925 -50.455  1.00  0.00    -0.100 SA
HETATM   26  C   UNL     1     -40.141  59.864 -50.209  1.00  0.00     0.050 A 
HETATM   27  C   UNL     1     -39.512  59.121 -51.182  1.00  0.00     0.008 A 
HETATM   28  C   UNL     1     -40.437  58.596 -52.130  1.00  0.00     0.022 A 
ENDBRANCH  19  24
ENDBRANCH  17  18
ENDBRANCH   2  17
TORSDOF 6
ENDMDL
MODEL 7
REMARK VINA RESULT:      -7.2      2.392      2.902
REMARK  6 active torsions:
REMARK  status: ('A' for Active; 'I' for Inactive)
REMARK    1  A    between atoms: N_2  and  C_4 
REMARK    2  A    between atoms: N_2  and  C_16 
REMARK    3  A    between atoms: C_4  and  C_5 
REMARK       I    between atoms: C_5  and  N_6 
REMARK    4  A    between atoms: N_6  and  C_7 
REMARK    5  A    between atoms: C_16  and  C_17 
REMARK    6  A    between atoms: C_18  and  C_19 
ROOT
HETATM    1  C   UNL     1     -41.674  56.803 -50.566  1.00  0.00     0.270 C 
HETATM    2  N   UNL     1     -42.652  55.717 -50.918  1.00  0.00    -0.063 N 
HETATM    3  H   UNL     1     -42.390  55.373 -51.850  1.00  0.00     0.280 HD
ENDROOT
BRANCH   2   4
HETATM    4  C   UNL     1     -42.546  54.506 -49.977  1.00  0.00     0.337 C 
BRANCH   4   5
HETATM    5  C   UNL     1     -41.186  54.290 -49.321  1.00  0.00     0.248 C 
HETATM    6  N   UNL     1     -40.198  53.561 -49.914  1.00  0.00    -0.326 N 
HETATM    7  H   UNL     1     -39.366  53.554 -49.326  1.00  0.00     0.169 HD
HETATM    8  O   UNL     1     -40.945  54.784 -48.214  1.00  0.00    -0.271 OA
BRANCH   6   9
HETATM    9  C   UNL     1     -40.079  52.854 -51.126  1.00  0.00     0.040 A 
HETATM   10  C   UNL     1     -40.206  53.389 -52.408  1.00  0.00     0.072 A 
HETATM   11  C   UNL     1     -40.048  52.568 -53.530  1.00  0.00     0.121 A 
HETATM   12  F   UNL     1     -40.169  53.115 -54.747  1.00  0.00    -0.206 F 
HETATM   13  C   UNL     1     -39.773  51.217 -53.415  1.00  0.00     0.084 A 
HETATM   14  C   UNL     1     -39.660  50.682 -52.145  1.00  0.00     0.121 A 
HETATM   15  F   UNL     1     -39.399  49.379 -51.996  1.00  0.00    -0.206 F 
HETATM   16  C   UNL     1     -39.811  51.481 -51.011  1.00  0.00     0.072 A 
ENDBRANCH   6   9
ENDBRANCH   4   5
ENDBRANCH   2   4
BRANCH   2  17
HETATM   17  C   UNL     1     -44.069  56.238 -51.062  1.00  0.00     0.277 C 
BRANCH  17  18
HETATM   18  C   UNL     1     -44.162  57.396 -51.992  1.00  0.00     0.016 A 
HETATM   19  C   UNL     1     -43.905  57.478 -53.395  1.00  0.00     0.103 A 
HETATM   20  N   UNL     1     -44.108  58.722 -53.847  1.00  0.00    -0.173 NA
HETATM   21  N   UNL     1     -44.528  59.418 -52.789  1.00  0.00    -0.288 N 
HETATM   22  H   UNL     1     -44.774  60.398 -52.920  1.00  0.00     0.188 HD
HETATM   23  C   UNL     1     -44.559  58.678 -51.646  1.00  0.00     0.120 A 
BRANCH  19  24
HETATM   24  C   UNL     1     -43.443  56.409 -54.356  1.00  0.00     0.035 A 
HETATM   25  S   UNL     1     -42.470  56.648 -55.738  1.00  0.00    -0.100 SA
HETATM   26  C   UNL     1     -42.476  54.986 -56.131  1.00  0.00     0.050 A 
HETATM   27  C   UNL     1     -43.218  54.254 -55.232  1.00  0.00     0.008 A 
HETATM   28  C   UNL     1     -43.778  55.075 -54.212  1.00  0.00     0.022 A 
ENDBRANCH  19  24
ENDBRANCH  17  18
ENDBRANCH   2  17
TORSDOF 6
ENDMDL
MODEL 8
REMARK VINA RESULT:      -7.1     15.604     17.658
REMARK  6 active torsions:
REMARK  status: ('A' for Active; 'I' for Inactive)
REMARK    1  A    between atoms: N_2  and  C_4 
REMARK    2  A    between atoms: N_2  and  C_16 
REMARK    3  A    between atoms: C_4  and  C_5 
REMARK       I    between atoms: C_5  and  N_6 
REMARK    4  A    between atoms: N_6  and  C_7 
REMARK    5  A    between atoms: C_16  and  C_17 
REMARK    6  A    between atoms: C_18  and  C_19 
ROOT
HETATM    1  C   UNL     1     -32.588  40.231 -53.699  1.00  0.00     0.270 C 
HETATM    2  N   UNL     1     -34.051  40.536 -53.541  1.00  0.00    -0.063 N 
HETATM    3  H   UNL     1     -34.134  41.192 -52.754  1.00  0.00     0.280 HD
ENDROOT
BRANCH   2   4
HETATM    4  C   UNL     1     -34.634  41.267 -54.761  1.00  0.00     0.337 C 
BRANCH   4   5
HETATM    5  C   UNL     1     -35.847  42.152 -54.490  1.00  0.00     0.248 C 
HETATM    6  N   UNL     1     -36.912  42.206 -55.338  1.00  0.00    -0.326 N 
HETATM    7  H   UNL     1     -37.622  42.837 -54.970  1.00  0.00     0.169 HD
HETATM    8  O   UNL     1     -35.890  42.852 -53.473  1.00  0.00    -0.271 OA
BRANCH   6   9
HETATM    9  C   UNL     1     -37.239  41.592 -56.563  1.00  0.00     0.040 A 
HETATM   10  C   UNL     1     -37.790  40.322 -56.725  1.00  0.00     0.072 A 
HETATM   11  C   UNL     1     -38.079  39.840 -58.007  1.00  0.00     0.121 A 
HETATM   12  F   UNL     1     -38.615  38.618 -58.127  1.00  0.00    -0.206 F 
HETATM   13  C   UNL     1     -37.824  40.586 -59.143  1.00  0.00     0.084 A 
HETATM   14  C   UNL     1     -37.264  41.841 -58.985  1.00  0.00     0.121 A 
HETATM   15  F   UNL     1     -37.001  42.590 -60.062  1.00  0.00    -0.206 F 
HETATM   16  C   UNL     1     -36.971  42.345 -57.717  1.00  0.00     0.072 A 
ENDBRANCH   6   9
ENDBRANCH   4   5
ENDBRANCH   2   4
BRANCH   2  17
HETATM   17  C   UNL     1     -34.856  39.316 -53.135  1.00  0.00     0.277 C 
BRANCH  17  18
HETATM   18  C   UNL     1     -35.759  39.582 -51.983  1.00  0.00     0.016 A 
HETATM   19  C   UNL     1     -35.479  39.639 -50.583  1.00  0.00     0.103 A 
HETATM   20  N   UNL     1     -36.588  39.905 -49.883  1.00  0.00    -0.173 NA
HETATM   21  N   UNL     1     -37.551  40.064 -50.794  1.00  0.00    -0.288 N 
HETATM   22  H   UNL     1     -38.487  40.307 -50.472  1.00  0.00     0.188 HD
HETATM   23  C   UNL     1     -37.114  39.861 -52.067  1.00  0.00     0.120 A 
BRANCH  19  24
HETATM   24  C   UNL     1     -34.176  39.428 -49.850  1.00  0.00     0.035 A 
HETATM   25  S   UNL     1     -33.833  38.171 -48.746  1.00  0.00    -0.100 SA
HETATM   26  C   UNL     1     -32.238  38.725 -48.485  1.00  0.00     0.050 A 
HETATM   27  C   UNL     1     -31.967  39.859 -49.216  1.00  0.00     0.008 A 
HETATM   28  C   UNL     1     -33.086  40.266 -50.000  1.00  0.00     0.022 A 
ENDBRANCH  19  24
ENDBRANCH  17  18
ENDBRANCH   2  17
TORSDOF 6
ENDMDL
MODEL 9
REMARK VINA RESULT:      -7.0      2.240      3.023
REMARK  6 active torsions:
REMARK  status: ('A' for Active; 'I' for Inactive)
REMARK    1  A    between atoms: N_2  and  C_4 
REMARK    2  A    between atoms: N_2  and  C_16 
REMARK    3  A    between atoms: C_4  and  C_5 
REMARK       I    between atoms: C_5  and  N_6 
REMARK    4  A    between atoms: N_6  and  C_7 
REMARK    5  A    between atoms: C_16  and  C_17 
REMARK    6  A    between atoms: C_18  and  C_19 
ROOT
HETATM    1  C   UNL     1     -41.689  54.401 -49.730  1.00  0.00     0.270 C 
HETATM    2  N   UNL     1     -41.673  55.308 -50.928  1.00  0.00    -0.063 N 
HETATM    3  H   UNL     1     -40.706  55.640 -51.036  1.00  0.00     0.280 HD
ENDROOT
BRANCH   2   4
HETATM    4  C   UNL     1     -42.010  54.565 -52.231  1.00  0.00     0.337 C 
BRANCH   4   5
HETATM    5  C   UNL     1     -41.007  54.731 -53.370  1.00  0.00     0.248 C 
HETATM    6  N   UNL     1     -40.193  53.716 -53.776  1.00  0.00    -0.326 N 
HETATM    7  H   UNL     1     -39.615  54.021 -54.558  1.00  0.00     0.169 HD
HETATM    8  O   UNL     1     -40.913  55.811 -53.962  1.00  0.00    -0.271 OA
BRANCH   6   9
HETATM    9  C   UNL     1     -39.992  52.381 -53.373  1.00  0.00     0.040 A 
HETATM   10  C   UNL     1     -39.759  51.942 -52.070  1.00  0.00     0.072 A 
HETATM   11  C   UNL     1     -39.590  50.577 -51.809  1.00  0.00     0.121 A 
HETATM   12  F   UNL     1     -39.374  50.188 -50.545  1.00  0.00    -0.206 F 
HETATM   13  C   UNL     1     -39.638  49.629 -52.815  1.00  0.00     0.084 A 
HETATM   14  C   UNL     1     -39.856  50.065 -54.109  1.00  0.00     0.121 A 
HETATM   15  F   UNL     1     -39.905  49.176 -55.108  1.00  0.00    -0.206 F 
HETATM   16  C   UNL     1     -40.030  51.420 -54.394  1.00  0.00     0.072 A 
ENDBRANCH   6   9
ENDBRANCH   4   5
ENDBRANCH   2   4
BRANCH   2  17
HETATM   17  C   UNL     1     -42.508  56.557 -50.721  1.00  0.00     0.277 C 
BRANCH  17  18
HETATM   18  C   UNL     1     -41.821  57.790 -51.192  1.00  0.00     0.016 A 
HETATM   19  C   UNL     1     -42.098  58.631 -52.313  1.00  0.00     0.103 A 
HETATM   20  N   UNL     1     -41.226  59.646 -52.378  1.00  0.00    -0.173 NA
HETATM   21  N   UNL     1     -40.437  59.501 -51.311  1.00  0.00    -0.288 N 
HETATM   22  H   UNL     1     -39.711  60.196 -51.148  1.00  0.00     0.188 HD
HETATM   23  C   UNL     1     -40.736  58.394 -50.577  1.00  0.00     0.120 A 
BRANCH  19  24
HETATM   24  C   UNL     1     -43.167  58.508 -53.372  1.00  0.00     0.035 A 
HETATM   25  S   UNL     1     -43.452  59.606 -54.648  1.00  0.00    -0.100 SA
HETATM   26  C   UNL     1     -44.744  58.676 -55.268  1.00  0.00     0.050 A 
HETATM   27  C   UNL     1     -44.970  57.550 -54.510  1.00  0.00     0.008 A 
HETATM   28  C   UNL     1     -44.062  57.455 -53.415  1.00  0.00     0.022 A 
ENDBRANCH  19  24
ENDBRANCH  17  18
ENDBRANCH   2  17
TORSDOF 6
ENDMDL
MODEL 10
REMARK VINA RESULT:      -7.0      3.692      6.359
REMARK  6 active torsions:
REMARK  status: ('A' for Active; 'I' for Inactive)
REMARK    1  A    between atoms: N_2  and  C_4 
REMARK    2  A    between atoms: N_2  and  C_16 
REMARK    3  A    between atoms: C_4  and  C_5 
REMARK       I    between atoms: C_5  and  N_6 
REMARK    4  A    between atoms: N_6  and  C_7 
REMARK    5  A    between atoms: C_16  and  C_17 
REMARK    6  A    between atoms: C_18  and  C_19 
ROOT
HETATM    1  C   UNL     1     -42.802  55.429 -55.888  1.00  0.00     0.270 C 
HETATM    2  N   UNL     1     -42.757  56.169 -54.581  1.00  0.00    -0.063 N 
HETATM    3  H   UNL     1     -41.765  56.274 -54.334  1.00  0.00     0.280 HD
ENDROOT
BRANCH   2   4
HETATM    4  C   UNL     1     -43.316  57.596 -54.695  1.00  0.00     0.337 C 
BRANCH   4   5
HETATM    5  C   UNL     1     -42.353  58.646 -55.245  1.00  0.00     0.248 C 
HETATM    6  N   UNL     1     -41.602  59.441 -54.432  1.00  0.00    -0.326 N 
HETATM    7  H   UNL     1     -41.013  60.057 -54.991  1.00  0.00     0.169 HD
HETATM    8  O   UNL     1     -42.230  58.796 -56.465  1.00  0.00    -0.271 OA
BRANCH   6   9
HETATM    9  C   UNL     1     -41.459  59.583 -53.038  1.00  0.00     0.040 A 
HETATM   10  C   UNL     1     -42.378  60.175 -52.173  1.00  0.00     0.072 A 
HETATM   11  C   UNL     1     -42.111  60.237 -50.800  1.00  0.00     0.121 A 
HETATM   12  F   UNL     1     -43.019  60.806 -49.995  1.00  0.00    -0.206 F 
HETATM   13  C   UNL     1     -40.944  59.729 -50.259  1.00  0.00     0.084 A 
HETATM   14  C   UNL     1     -40.026  59.153 -51.117  1.00  0.00     0.121 A 
HETATM   15  F   UNL     1     -38.883  58.656 -50.629  1.00  0.00    -0.206 F 
HETATM   16  C   UNL     1     -40.270  59.078 -52.489  1.00  0.00     0.072 A 
ENDBRANCH   6   9
ENDBRANCH   4   5
ENDBRANCH   2   4
BRANCH   2  17
HETATM   17  C   UNL     1     -43.375  55.376 -53.445  1.00  0.00     0.277 C 
BRANCH  17  18
HETATM   18  C   UNL     1     -42.638  55.541 -52.163  1.00  0.00     0.016 A 
HETATM   19  C   UNL     1     -41.540  54.802 -51.626  1.00  0.00     0.103 A 
HETATM   20  N   UNL     1     -41.177  55.282 -50.430  1.00  0.00    -0.173 NA
HETATM   21  N   UNL     1     -41.977  56.328 -50.213  1.00  0.00    -0.288 N 
HETATM   22  H   UNL     1     -41.849  56.868 -49.359  1.00  0.00     0.188 HD
HETATM   23  C   UNL     1     -42.886  56.516 -51.210  1.00  0.00     0.120 A 
BRANCH  19  24
HETATM   24  C   UNL     1     -40.806  53.612 -52.197  1.00  0.00     0.035 A 
HETATM   25  S   UNL     1     -40.015  52.391 -51.302  1.00  0.00    -0.100 SA
HETATM   26  C   UNL     1     -39.540  51.552 -52.712  1.00  0.00     0.050 A 
HETATM   27  C   UNL     1     -39.964  52.193 -53.853  1.00  0.00     0.008 A 
HETATM   28  C   UNL     1     -40.690  53.383 -53.556  1.00  0.00     0.022 A 
ENDBRANCH  19  24
ENDBRANCH  17  18
ENDBRANCH   2  17
TORSDOF 6
ENDMDL
