MODEL 1
REMARK VINA RESULT:      -7.8      0.000      0.000
REMARK  7 active torsions:
REMARK  status: ('A' for Active; 'I' for Inactive)
REMARK    1  A    between atoms: C_8  and  N_9 
REMARK       I    between atoms: N_9  and  C_10 
REMARK    2  A    between atoms: C_10  and  C_11 
REMARK    3  A    between atoms: C_11  and  N_12 
REMARK    4  A    between atoms: N_12  and  C_14 
REMARK    5  A    between atoms: C_14  and  C_15 
REMARK       I    between atoms: C_15  and  N_16 
REMARK    6  A    between atoms: N_16  and  C_17 
REMARK    7  A    between atoms: C_19  and  C_20 
ROOT
HETATM    1  N   UNL     1     -42.324  58.250 -52.257  1.00  0.00    -0.058 N 
HETATM    2  H   UNL     1     -43.072  57.749 -52.766  1.00  0.00     0.280 HD
HETATM    3  C   UNL     1     -42.892  59.564 -51.801  1.00  0.00     0.270 C 
ENDROOT
BRANCH   1   4
HETATM    4  C   UNL     1     -41.188  58.435 -53.276  1.00  0.00     0.337 C 
BRANCH   4   5
HETATM    5  C   UNL     1     -41.742  58.773 -54.659  1.00  0.00     0.248 C 
HETATM    6  N   UNL     1     -42.341  57.855 -55.454  1.00  0.00    -0.322 N 
HETATM    7  H   UNL     1     -42.380  58.143 -56.430  1.00  0.00     0.169 HD
HETATM    8  O   UNL     1     -41.564  59.922 -55.084  1.00  0.00    -0.271 OA
BRANCH   6   9
HETATM    9  C   UNL     1     -42.863  56.601 -55.196  1.00  0.00     0.085 C 
HETATM   10  C   UNL     1     -44.141  56.456 -54.686  1.00  0.00     0.052 C 
HETATM   11  C   UNL     1     -45.196  57.436 -54.324  1.00  0.00     0.072 C 
HETATM   12  N   UNL     1     -44.352  55.112 -54.563  1.00  0.00    -0.280 N 
HETATM   13  H   UNL     1     -45.186  54.629 -54.237  1.00  0.00     0.189 HD
HETATM   14  N   UNL     1     -43.289  54.378 -54.905  1.00  0.00    -0.177 NA
HETATM   15  C   UNL     1     -42.345  55.273 -55.217  1.00  0.00     0.079 C 
HETATM   16  C   UNL     1     -40.968  54.747 -55.390  1.00  0.00     0.075 C 
ENDBRANCH   6   9
ENDBRANCH   4   5
ENDBRANCH   1   4
BRANCH   1  17
HETATM   17  C   UNL     1     -41.919  57.318 -51.105  1.00  0.00     0.337 C 
BRANCH  17  18
HETATM   18  C   UNL     1     -41.969  55.819 -51.436  1.00  0.00     0.248 C 
HETATM   19  N   UNL     1     -40.722  55.216 -51.467  1.00  0.00    -0.326 N 
HETATM   20  H   UNL     1     -39.898  55.806 -51.506  1.00  0.00     0.169 HD
HETATM   21  O   UNL     1     -43.045  55.263 -51.634  1.00  0.00    -0.271 OA
BRANCH  19  22
HETATM   22  C   UNL     1     -40.454  53.829 -51.529  1.00  0.00     0.035 A 
HETATM   23  C   UNL     1     -40.289  53.117 -52.719  1.00  0.00     0.047 A 
HETATM   24  C   UNL     1     -40.084  51.718 -52.718  1.00  0.00     0.071 A 
HETATM   25  C   UNL     1     -40.035  51.047 -51.493  1.00  0.00     0.049 A 
HETATM   26 CL   UNL     1     -39.798  49.342 -51.386  1.00  0.00    -0.083 Cl
HETATM   27  C   UNL     1     -40.190  51.753 -50.299  1.00  0.00     0.027 A 
HETATM   28  C   UNL     1     -40.405  53.133 -50.316  1.00  0.00     0.031 A 
BRANCH  24  29
HETATM   29  C   UNL     1     -39.946  50.979 -54.024  1.00  0.00     0.419 C 
HETATM   30  F   UNL     1     -39.969  51.809 -55.108  1.00  0.00    -0.166 F 
HETATM   31  F   UNL     1     -38.781  50.286 -54.127  1.00  0.00    -0.166 F 
HETATM   32  F   UNL     1     -40.953  50.089 -54.234  1.00  0.00    -0.166 F 
ENDBRANCH  24  29
ENDBRANCH  19  22
ENDBRANCH  17  18
ENDBRANCH   1  17
TORSDOF 7
ENDMDL
MODEL 2
REMARK VINA RESULT:      -7.8      3.122      4.033
REMARK  7 active torsions:
REMARK  status: ('A' for Active; 'I' for Inactive)
REMARK    1  A    between atoms: C_8  and  N_9 
REMARK       I    between atoms: N_9  and  C_10 
REMARK    2  A    between atoms: C_10  and  C_11 
REMARK    3  A    between atoms: C_11  and  N_12 
REMARK    4  A    between atoms: N_12  and  C_14 
REMARK    5  A    between atoms: C_14  and  C_15 
REMARK       I    between atoms: C_15  and  N_16 
REMARK    6  A    between atoms: N_16  and  C_17 
REMARK    7  A    between atoms: C_19  and  C_20 
ROOT
HETATM    1  N   UNL     1     -43.946  56.877 -55.818  1.00  0.00    -0.058 N 
HETATM    2  H   UNL     1     -44.683  56.345 -56.310  1.00  0.00     0.280 HD
HETATM    3  C   UNL     1     -44.245  56.805 -54.347  1.00  0.00     0.270 C 
ENDROOT
BRANCH   1   4
HETATM    4  C   UNL     1     -44.046  58.313 -56.357  1.00  0.00     0.337 C 
BRANCH   4   5
HETATM    5  C   UNL     1     -45.058  58.400 -57.497  1.00  0.00     0.248 C 
HETATM    6  N   UNL     1     -44.724  58.199 -58.794  1.00  0.00    -0.322 N 
HETATM    7  H   UNL     1     -45.411  58.579 -59.442  1.00  0.00     0.169 HD
HETATM    8  O   UNL     1     -46.215  58.740 -57.213  1.00  0.00    -0.271 OA
BRANCH   6   9
HETATM    9  C   UNL     1     -43.619  57.619 -59.390  1.00  0.00     0.085 C 
HETATM   10  C   UNL     1     -42.548  58.392 -59.800  1.00  0.00     0.052 C 
HETATM   11  C   UNL     1     -42.276  59.850 -59.733  1.00  0.00     0.072 C 
HETATM   12  N   UNL     1     -41.632  57.525 -60.326  1.00  0.00    -0.280 N 
HETATM   13  H   UNL     1     -40.714  57.731 -60.712  1.00  0.00     0.189 HD
HETATM   14  N   UNL     1     -42.052  56.257 -60.336  1.00  0.00    -0.177 NA
HETATM   15  C   UNL     1     -43.294  56.307 -59.842  1.00  0.00     0.079 C 
HETATM   16  C   UNL     1     -44.107  55.071 -59.972  1.00  0.00     0.075 C 
ENDBRANCH   6   9
ENDBRANCH   4   5
ENDBRANCH   1   4
BRANCH   1  17
HETATM   17  C   UNL     1     -42.623  56.203 -56.213  1.00  0.00     0.337 C 
BRANCH  17  18
HETATM   18  C   UNL     1     -42.363  54.846 -55.543  1.00  0.00     0.248 C 
HETATM   19  N   UNL     1     -41.143  54.772 -54.890  1.00  0.00    -0.326 N 
HETATM   20  H   UNL     1     -40.445  55.481 -55.087  1.00  0.00     0.169 HD
HETATM   21  O   UNL     1     -43.203  53.953 -55.605  1.00  0.00    -0.271 OA
BRANCH  19  22
HETATM   22  C   UNL     1     -40.712  53.752 -54.012  1.00  0.00     0.035 A 
HETATM   23  C   UNL     1     -40.418  52.447 -54.414  1.00  0.00     0.047 A 
HETATM   24  C   UNL     1     -40.050  51.454 -53.478  1.00  0.00     0.071 A 
HETATM   25  C   UNL     1     -39.972  51.799 -52.126  1.00  0.00     0.049 A 
HETATM   26 CL   UNL     1     -39.542  50.658 -50.907  1.00  0.00    -0.083 Cl
HETATM   27  C   UNL     1     -40.257  53.103 -51.717  1.00  0.00     0.027 A 
HETATM   28  C   UNL     1     -40.630  54.071 -52.653  1.00  0.00     0.031 A 
BRANCH  24  29
HETATM   29  C   UNL     1     -39.775  50.047 -53.946  1.00  0.00     0.419 C 
HETATM   30  F   UNL     1     -40.770  49.546 -54.733  1.00  0.00    -0.166 F 
HETATM   31  F   UNL     1     -38.641  49.942 -54.689  1.00  0.00    -0.166 F 
HETATM   32  F   UNL     1     -39.654  49.165 -52.918  1.00  0.00    -0.166 F 
ENDBRANCH  24  29
ENDBRANCH  19  22
ENDBRANCH  17  18
ENDBRANCH   1  17
TORSDOF 7
ENDMDL
MODEL 3
REMARK VINA RESULT:      -7.8      1.921      3.737
REMARK  7 active torsions:
REMARK  status: ('A' for Active; 'I' for Inactive)
REMARK    1  A    between atoms: C_8  and  N_9 
REMARK       I    between atoms: N_9  and  C_10 
REMARK    2  A    between atoms: C_10  and  C_11 
REMARK    3  A    between atoms: C_11  and  N_12 
REMARK    4  A    between atoms: N_12  and  C_14 
REMARK    5  A    between atoms: C_14  and  C_15 
REMARK       I    between atoms: C_15  and  N_16 
REMARK    6  A    between atoms: N_16  and  C_17 
REMARK    7  A    between atoms: C_19  and  C_20 
ROOT
HETATM    1  N   UNL     1     -42.289  57.389 -56.134  1.00  0.00    -0.058 N 
HETATM    2  H   UNL     1     -41.283  57.287 -55.916  1.00  0.00     0.280 HD
HETATM    3  C   UNL     1     -42.431  58.564 -57.060  1.00  0.00     0.270 C 
ENDROOT
BRANCH   1   4
HETATM    4  C   UNL     1     -42.980  57.633 -54.783  1.00  0.00     0.337 C 
BRANCH   4   5
HETATM    5  C   UNL     1     -41.965  57.634 -53.641  1.00  0.00     0.248 C 
HETATM    6  N   UNL     1     -42.316  57.812 -52.346  1.00  0.00    -0.322 N 
HETATM    7  H   UNL     1     -41.532  58.085 -51.758  1.00  0.00     0.169 HD
HETATM    8  O   UNL     1     -40.766  57.536 -53.938  1.00  0.00    -0.271 OA
BRANCH   6   9
HETATM    9  C   UNL     1     -43.533  57.733 -51.693  1.00  0.00     0.085 C 
HETATM   10  C   UNL     1     -43.907  56.579 -51.027  1.00  0.00     0.052 C 
HETATM   11  C   UNL     1     -43.230  55.275 -50.818  1.00  0.00     0.072 C 
HETATM   12  N   UNL     1     -45.136  56.832 -50.487  1.00  0.00    -0.280 N 
HETATM   13  H   UNL     1     -45.715  56.221 -49.916  1.00  0.00     0.189 HD
HETATM   14  N   UNL     1     -45.610  58.042 -50.799  1.00  0.00    -0.177 NA
HETATM   15  C   UNL     1     -44.680  58.574 -51.600  1.00  0.00     0.079 C 
HETATM   16  C   UNL     1     -45.056  59.822 -52.311  1.00  0.00     0.075 C 
ENDBRANCH   6   9
ENDBRANCH   4   5
ENDBRANCH   1   4
BRANCH   1  17
HETATM   17  C   UNL     1     -42.708  56.052 -56.764  1.00  0.00     0.337 C 
BRANCH  17  18
HETATM   18  C   UNL     1     -42.527  54.825 -55.857  1.00  0.00     0.248 C 
HETATM   19  N   UNL     1     -41.217  54.619 -55.456  1.00  0.00    -0.326 N 
HETATM   20  H   UNL     1     -40.477  55.110 -55.946  1.00  0.00     0.169 HD
HETATM   21  O   UNL     1     -43.494  54.138 -55.543  1.00  0.00    -0.271 OA
BRANCH  19  22
HETATM   22  C   UNL     1     -40.766  53.718 -54.464  1.00  0.00     0.035 A 
HETATM   23  C   UNL     1     -40.470  52.374 -54.704  1.00  0.00     0.047 A 
HETATM   24  C   UNL     1     -40.082  51.508 -53.657  1.00  0.00     0.071 A 
HETATM   25  C   UNL     1     -39.986  52.021 -52.360  1.00  0.00     0.049 A 
HETATM   26 CL   UNL     1     -39.530  51.044 -51.015  1.00  0.00    -0.083 Cl
HETATM   27  C   UNL     1     -40.272  53.365 -52.114  1.00  0.00     0.027 A 
HETATM   28  C   UNL     1     -40.666  54.206 -53.157  1.00  0.00     0.031 A 
BRANCH  24  29
HETATM   29  C   UNL     1     -39.806  50.055 -53.949  1.00  0.00     0.419 C 
HETATM   30  F   UNL     1     -38.518  49.829 -54.340  1.00  0.00    -0.166 F 
HETATM   31  F   UNL     1     -40.002  49.246 -52.873  1.00  0.00    -0.166 F 
HETATM   32  F   UNL     1     -40.577  49.564 -54.956  1.00  0.00    -0.166 F 
ENDBRANCH  24  29
ENDBRANCH  19  22
ENDBRANCH  17  18
ENDBRANCH   1  17
TORSDOF 7
ENDMDL
MODEL 4
REMARK VINA RESULT:      -7.7      2.744      3.530
REMARK  7 active torsions:
REMARK  status: ('A' for Active; 'I' for Inactive)
REMARK    1  A    between atoms: C_8  and  N_9 
REMARK       I    between atoms: N_9  and  C_10 
REMARK    2  A    between atoms: C_10  and  C_11 
REMARK    3  A    between atoms: C_11  and  N_12 
REMARK    4  A    between atoms: N_12  and  C_14 
REMARK    5  A    between atoms: C_14  and  C_15 
REMARK       I    between atoms: C_15  and  N_16 
REMARK    6  A    between atoms: N_16  and  C_17 
REMARK    7  A    between atoms: C_19  and  C_20 
ROOT
HETATM    1  N   UNL     1     -42.365  57.804 -53.823  1.00  0.00    -0.058 N 
HETATM    2  H   UNL     1     -43.274  58.283 -53.703  1.00  0.00     0.280 HD
HETATM    3  C   UNL     1     -41.303  58.866 -53.888  1.00  0.00     0.270 C 
ENDROOT
BRANCH   1   4
HETATM    4  C   UNL     1     -42.482  57.023 -55.142  1.00  0.00     0.337 C 
BRANCH   4   5
HETATM    5  C   UNL     1     -43.873  57.185 -55.752  1.00  0.00     0.248 C 
HETATM    6  N   UNL     1     -44.083  57.287 -57.086  1.00  0.00    -0.322 N 
HETATM    7  H   UNL     1     -44.992  57.684 -57.313  1.00  0.00     0.169 HD
HETATM    8  O   UNL     1     -44.832  57.297 -54.975  1.00  0.00    -0.271 OA
BRANCH   6   9
HETATM    9  C   UNL     1     -43.286  56.994 -58.177  1.00  0.00     0.085 C 
HETATM   10  C   UNL     1     -42.326  57.890 -58.614  1.00  0.00     0.052 C 
HETATM   11  C   UNL     1     -41.901  59.225 -58.125  1.00  0.00     0.072 C 
HETATM   12  N   UNL     1     -41.714  57.300 -59.684  1.00  0.00    -0.280 N 
HETATM   13  H   UNL     1     -40.948  57.656 -60.251  1.00  0.00     0.189 HD
HETATM   14  N   UNL     1     -42.241  56.115 -60.006  1.00  0.00    -0.177 NA
HETATM   15  C   UNL     1     -43.253  55.950 -59.147  1.00  0.00     0.079 C 
HETATM   16  C   UNL     1     -44.186  54.831 -59.434  1.00  0.00     0.075 C 
ENDBRANCH   6   9
ENDBRANCH   4   5
ENDBRANCH   1   4
BRANCH   1  17
HETATM   17  C   UNL     1     -42.231  56.871 -52.610  1.00  0.00     0.337 C 
BRANCH  17  18
HETATM   18  C   UNL     1     -42.198  55.373 -52.947  1.00  0.00     0.248 C 
HETATM   19  N   UNL     1     -40.918  54.848 -53.021  1.00  0.00    -0.326 N 
HETATM   20  H   UNL     1     -40.134  55.489 -53.084  1.00  0.00     0.169 HD
HETATM   21  O   UNL     1     -43.243  54.751 -53.112  1.00  0.00    -0.271 OA
BRANCH  19  22
HETATM   22  C   UNL     1     -40.565  53.481 -53.098  1.00  0.00     0.035 A 
HETATM   23  C   UNL     1     -40.417  52.648 -51.987  1.00  0.00     0.047 A 
HETATM   24  C   UNL     1     -40.003  51.304 -52.126  1.00  0.00     0.071 A 
HETATM   25  C   UNL     1     -39.750  50.806 -53.407  1.00  0.00     0.049 A 
HETATM   26 CL   UNL     1     -39.232  49.185 -53.681  1.00  0.00    -0.083 Cl
HETATM   27  C   UNL     1     -39.904  51.631 -54.523  1.00  0.00     0.027 A 
HETATM   28  C   UNL     1     -40.303  52.961 -54.370  1.00  0.00     0.031 A 
BRANCH  24  29
HETATM   29  C   UNL     1     -39.820  50.445 -50.901  1.00  0.00     0.419 C 
HETATM   30  F   UNL     1     -40.121  51.102 -49.743  1.00  0.00    -0.166 F 
HETATM   31  F   UNL     1     -40.607  49.336 -50.901  1.00  0.00    -0.166 F 
HETATM   32  F   UNL     1     -38.538  50.017 -50.745  1.00  0.00    -0.166 F 
ENDBRANCH  24  29
ENDBRANCH  19  22
ENDBRANCH  17  18
ENDBRANCH   1  17
TORSDOF 7
ENDMDL
MODEL 5
REMARK VINA RESULT:      -7.7      2.927      3.755
REMARK  7 active torsions:
REMARK  status: ('A' for Active; 'I' for Inactive)
REMARK    1  A    between atoms: C_8  and  N_9 
REMARK       I    between atoms: N_9  and  C_10 
REMARK    2  A    between atoms: C_10  and  C_11 
REMARK    3  A    between atoms: C_11  and  N_12 
REMARK    4  A    between atoms: N_12  and  C_14 
REMARK    5  A    between atoms: C_14  and  C_15 
REMARK       I    between atoms: C_15  and  N_16 
REMARK    6  A    between atoms: N_16  and  C_17 
REMARK    7  A    between atoms: C_19  and  C_20 
ROOT
HETATM    1  N   UNL     1     -43.141  57.448 -55.052  1.00  0.00    -0.058 N 
HETATM    2  H   UNL     1     -43.828  56.683 -54.933  1.00  0.00     0.280 HD
HETATM    3  C   UNL     1     -43.894  58.745 -54.969  1.00  0.00     0.270 C 
ENDROOT
BRANCH   1   4
HETATM    4  C   UNL     1     -42.520  57.229 -56.441  1.00  0.00     0.337 C 
BRANCH   4   5
HETATM    5  C   UNL     1     -43.006  55.919 -57.058  1.00  0.00     0.248 C 
HETATM    6  N   UNL     1     -43.889  55.872 -58.084  1.00  0.00    -0.322 N 
HETATM    7  H   UNL     1     -44.336  54.963 -58.179  1.00  0.00     0.169 HD
HETATM    8  O   UNL     1     -42.620  54.862 -56.540  1.00  0.00    -0.271 OA
BRANCH   6   9
HETATM    9  C   UNL     1     -44.319  56.830 -58.984  1.00  0.00     0.085 C 
HETATM   10  C   UNL     1     -43.450  57.366 -59.917  1.00  0.00     0.052 C 
HETATM   11  C   UNL     1     -42.017  57.119 -60.215  1.00  0.00     0.072 C 
HETATM   12  N   UNL     1     -44.181  58.257 -60.650  1.00  0.00    -0.280 N 
HETATM   13  H   UNL     1     -43.880  58.830 -61.436  1.00  0.00     0.189 HD
HETATM   14  N   UNL     1     -45.443  58.378 -60.228  1.00  0.00    -0.177 NA
HETATM   15  C   UNL     1     -45.522  57.573 -59.162  1.00  0.00     0.079 C 
HETATM   16  C   UNL     1     -46.744  57.699 -58.329  1.00  0.00     0.075 C 
ENDBRANCH   6   9
ENDBRANCH   4   5
ENDBRANCH   1   4
BRANCH   1  17
HETATM   17  C   UNL     1     -42.116  57.255 -53.925  1.00  0.00     0.337 C 
BRANCH  17  18
HETATM   18  C   UNL     1     -42.091  55.849 -53.305  1.00  0.00     0.248 C 
HETATM   19  N   UNL     1     -40.962  55.117 -53.634  1.00  0.00    -0.326 N 
HETATM   20  H   UNL     1     -40.382  55.438 -54.401  1.00  0.00     0.169 HD
HETATM   21  O   UNL     1     -43.011  55.473 -52.585  1.00  0.00    -0.271 OA
BRANCH  19  22
HETATM   22  C   UNL     1     -40.549  53.894 -53.058  1.00  0.00     0.035 A 
HETATM   23  C   UNL     1     -40.426  52.697 -53.769  1.00  0.00     0.047 A 
HETATM   24  C   UNL     1     -40.067  51.492 -53.124  1.00  0.00     0.071 A 
HETATM   25  C   UNL     1     -39.821  51.512 -51.748  1.00  0.00     0.049 A 
HETATM   26 CL   UNL     1     -39.387  50.095 -50.868  1.00  0.00    -0.083 Cl
HETATM   27  C   UNL     1     -39.934  52.706 -51.032  1.00  0.00     0.027 A 
HETATM   28  C   UNL     1     -40.301  53.887 -51.682  1.00  0.00     0.031 A 
BRANCH  24  29
HETATM   29  C   UNL     1     -39.980  50.213 -53.917  1.00  0.00     0.419 C 
HETATM   30  F   UNL     1     -41.084  49.993 -54.689  1.00  0.00    -0.166 F 
HETATM   31  F   UNL     1     -38.928  50.188 -54.778  1.00  0.00    -0.166 F 
HETATM   32  F   UNL     1     -39.869  49.111 -53.129  1.00  0.00    -0.166 F 
ENDBRANCH  24  29
ENDBRANCH  19  22
ENDBRANCH  17  18
ENDBRANCH   1  17
TORSDOF 7
ENDMDL
MODEL 6
REMARK VINA RESULT:      -7.6      1.979      2.896
REMARK  7 active torsions:
REMARK  status: ('A' for Active; 'I' for Inactive)
REMARK    1  A    between atoms: C_8  and  N_9 
REMARK       I    between atoms: N_9  and  C_10 
REMARK    2  A    between atoms: C_10  and  C_11 
REMARK    3  A    between atoms: C_11  and  N_12 
REMARK    4  A    between atoms: N_12  and  C_14 
REMARK    5  A    between atoms: C_14  and  C_15 
REMARK       I    between atoms: C_15  and  N_16 
REMARK    6  A    between atoms: N_16  and  C_17 
REMARK    7  A    between atoms: C_19  and  C_20 
ROOT
HETATM    1  N   UNL     1     -43.279  57.789 -52.246  1.00  0.00    -0.058 N 
HETATM    2  H   UNL     1     -43.505  57.348 -53.154  1.00  0.00     0.280 HD
HETATM    3  C   UNL     1     -44.576  58.016 -51.522  1.00  0.00     0.270 C 
ENDROOT
BRANCH   1   4
HETATM    4  C   UNL     1     -42.574  59.110 -52.595  1.00  0.00     0.337 C 
BRANCH   4   5
HETATM    5  C   UNL     1     -41.476  58.886 -53.632  1.00  0.00     0.248 C 
HETATM    6  N   UNL     1     -41.709  58.317 -54.839  1.00  0.00    -0.322 N 
HETATM    7  H   UNL     1     -40.862  57.966 -55.280  1.00  0.00     0.169 HD
HETATM    8  O   UNL     1     -40.315  59.179 -53.313  1.00  0.00    -0.271 OA
BRANCH   6   9
HETATM    9  C   UNL     1     -42.873  58.090 -55.550  1.00  0.00     0.085 C 
HETATM   10  C   UNL     1     -43.156  56.838 -56.065  1.00  0.00     0.052 C 
HETATM   11  C   UNL     1     -42.431  55.543 -56.017  1.00  0.00     0.072 C 
HETATM   12  N   UNL     1     -44.367  56.947 -56.688  1.00  0.00    -0.280 N 
HETATM   13  H   UNL     1     -44.901  56.225 -57.167  1.00  0.00     0.189 HD
HETATM   14  N   UNL     1     -44.863  58.187 -56.662  1.00  0.00    -0.177 NA
HETATM   15  C   UNL     1     -43.927  58.914 -56.042  1.00  0.00     0.079 C 
HETATM   16  C   UNL     1     -44.093  60.388 -56.095  1.00  0.00     0.075 C 
ENDBRANCH   6   9
ENDBRANCH   4   5
ENDBRANCH   1   4
BRANCH   1  17
HETATM   17  C   UNL     1     -42.339  56.803 -51.536  1.00  0.00     0.337 C 
BRANCH  17  18
HETATM   18  C   UNL     1     -42.251  55.413 -52.182  1.00  0.00     0.248 C 
HETATM   19  N   UNL     1     -40.970  54.885 -52.192  1.00  0.00    -0.326 N 
HETATM   20  H   UNL     1     -40.189  55.504 -52.006  1.00  0.00     0.169 HD
HETATM   21  O   UNL     1     -43.260  54.868 -52.620  1.00  0.00    -0.271 OA
BRANCH  19  22
HETATM   22  C   UNL     1     -40.603  53.558 -52.515  1.00  0.00     0.035 A 
HETATM   23  C   UNL     1     -40.406  52.549 -51.570  1.00  0.00     0.047 A 
HETATM   24  C   UNL     1     -39.980  51.256 -51.952  1.00  0.00     0.071 A 
HETATM   25  C   UNL     1     -39.765  50.992 -53.307  1.00  0.00     0.049 A 
HETATM   26 CL   UNL     1     -39.236  49.451 -53.872  1.00  0.00    -0.083 Cl
HETATM   27  C   UNL     1     -39.967  51.993 -54.258  1.00  0.00     0.027 A 
HETATM   28  C   UNL     1     -40.378  53.269 -53.865  1.00  0.00     0.031 A 
BRANCH  24  29
HETATM   29  C   UNL     1     -39.743  50.203 -50.899  1.00  0.00     0.419 C 
HETATM   30  F   UNL     1     -40.420  49.044 -51.149  1.00  0.00    -0.166 F 
HETATM   31  F   UNL     1     -38.437  49.841 -50.789  1.00  0.00    -0.166 F 
HETATM   32  F   UNL     1     -40.149  50.595 -49.662  1.00  0.00    -0.166 F 
ENDBRANCH  24  29
ENDBRANCH  19  22
ENDBRANCH  17  18
ENDBRANCH   1  17
TORSDOF 7
ENDMDL
MODEL 7
REMARK VINA RESULT:      -7.5      3.457      4.439
REMARK  7 active torsions:
REMARK  status: ('A' for Active; 'I' for Inactive)
REMARK    1  A    between atoms: C_8  and  N_9 
REMARK       I    between atoms: N_9  and  C_10 
REMARK    2  A    between atoms: C_10  and  C_11 
REMARK    3  A    between atoms: C_11  and  N_12 
REMARK    4  A    between atoms: N_12  and  C_14 
REMARK    5  A    between atoms: C_14  and  C_15 
REMARK       I    between atoms: C_15  and  N_16 
REMARK    6  A    between atoms: N_16  and  C_17 
REMARK    7  A    between atoms: C_19  and  C_20 
ROOT
HETATM    1  N   UNL     1     -44.656  57.344 -55.549  1.00  0.00    -0.058 N 
HETATM    2  H   UNL     1     -44.658  56.362 -55.873  1.00  0.00     0.280 HD
HETATM    3  C   UNL     1     -45.748  58.064 -56.290  1.00  0.00     0.270 C 
ENDROOT
BRANCH   1   4
HETATM    4  C   UNL     1     -43.263  57.890 -55.902  1.00  0.00     0.337 C 
BRANCH   4   5
HETATM    5  C   UNL     1     -42.383  56.796 -56.504  1.00  0.00     0.248 C 
HETATM    6  N   UNL     1     -42.505  56.378 -57.786  1.00  0.00    -0.322 N 
HETATM    7  H   UNL     1     -42.078  55.467 -57.946  1.00  0.00     0.169 HD
HETATM    8  O   UNL     1     -41.577  56.229 -55.754  1.00  0.00    -0.271 OA
BRANCH   6   9
HETATM    9  C   UNL     1     -43.128  56.931 -58.889  1.00  0.00     0.085 C 
HETATM   10  C   UNL     1     -43.931  56.160 -59.711  1.00  0.00     0.052 C 
HETATM   11  C   UNL     1     -44.328  54.730 -59.673  1.00  0.00     0.072 C 
HETATM   12  N   UNL     1     -44.399  56.999 -60.682  1.00  0.00    -0.280 N 
HETATM   13  H   UNL     1     -45.030  56.787 -61.452  1.00  0.00     0.189 HD
HETATM   14  N   UNL     1     -43.918  58.241 -60.583  1.00  0.00    -0.177 NA
HETATM   15  C   UNL     1     -43.079  58.197 -59.542  1.00  0.00     0.079 C 
HETATM   16  C   UNL     1     -42.199  59.378 -59.353  1.00  0.00     0.075 C 
ENDBRANCH   6   9
ENDBRANCH   4   5
ENDBRANCH   1   4
BRANCH   1  17
HETATM   17  C   UNL     1     -44.881  57.275 -54.031  1.00  0.00     0.337 C 
BRANCH  17  18
HETATM   18  C   UNL     1     -43.745  56.611 -53.239  1.00  0.00     0.248 C 
HETATM   19  N   UNL     1     -43.681  55.237 -53.405  1.00  0.00    -0.326 N 
HETATM   20  H   UNL     1     -44.477  54.760 -53.815  1.00  0.00     0.169 HD
HETATM   21  O   UNL     1     -42.990  57.291 -52.550  1.00  0.00    -0.271 OA
BRANCH  19  22
HETATM   22  C   UNL     1     -42.636  54.381 -52.988  1.00  0.00     0.035 A 
HETATM   23  C   UNL     1     -42.177  54.291 -51.672  1.00  0.00     0.047 A 
HETATM   24  C   UNL     1     -41.086  53.460 -51.328  1.00  0.00     0.071 A 
HETATM   25  C   UNL     1     -40.468  52.710 -52.333  1.00  0.00     0.049 A 
HETATM   26 CL   UNL     1     -39.126  51.676 -52.017  1.00  0.00    -0.083 Cl
HETATM   27  C   UNL     1     -40.926  52.789 -53.649  1.00  0.00     0.027 A 
HETATM   28  C   UNL     1     -41.998  53.623 -53.976  1.00  0.00     0.031 A 
BRANCH  24  29
HETATM   29  C   UNL     1     -40.596  53.416 -49.903  1.00  0.00     0.419 C 
HETATM   30  F   UNL     1     -40.490  52.145 -49.419  1.00  0.00    -0.166 F 
HETATM   31  F   UNL     1     -39.363  53.967 -49.744  1.00  0.00    -0.166 F 
HETATM   32  F   UNL     1     -41.428  54.059 -49.040  1.00  0.00    -0.166 F 
ENDBRANCH  24  29
ENDBRANCH  19  22
ENDBRANCH  17  18
ENDBRANCH   1  17
TORSDOF 7
ENDMDL
MODEL 8
REMARK VINA RESULT:      -7.4      2.896      3.469
REMARK  7 active torsions:
REMARK  status: ('A' for Active; 'I' for Inactive)
REMARK    1  A    between atoms: C_8  and  N_9 
REMARK       I    between atoms: N_9  and  C_10 
REMARK    2  A    between atoms: C_10  and  C_11 
REMARK    3  A    between atoms: C_11  and  N_12 
REMARK    4  A    between atoms: N_12  and  C_14 
REMARK    5  A    between atoms: C_14  and  C_15 
REMARK       I    between atoms: C_15  and  N_16 
REMARK    6  A    between atoms: N_16  and  C_17 
REMARK    7  A    between atoms: C_19  and  C_20 
ROOT
HETATM    1  N   UNL     1     -43.276  57.334 -54.898  1.00  0.00    -0.058 N 
HETATM    2  H   UNL     1     -44.046  56.644 -54.902  1.00  0.00     0.280 HD
HETATM    3  C   UNL     1     -43.896  58.701 -54.840  1.00  0.00     0.270 C 
ENDROOT
BRANCH   1   4
HETATM    4  C   UNL     1     -42.509  57.103 -56.210  1.00  0.00     0.337 C 
BRANCH   4   5
HETATM    5  C   UNL     1     -43.151  55.984 -57.029  1.00  0.00     0.248 C 
HETATM    6  N   UNL     1     -43.930  56.220 -58.111  1.00  0.00    -0.322 N 
HETATM    7  H   UNL     1     -44.514  55.423 -58.357  1.00  0.00     0.169 HD
HETATM    8  O   UNL     1     -42.999  54.821 -56.631  1.00  0.00    -0.271 OA
BRANCH   6   9
HETATM    9  C   UNL     1     -44.107  57.339 -58.903  1.00  0.00     0.085 C 
HETATM   10  C   UNL     1     -45.364  57.890 -59.080  1.00  0.00     0.052 C 
HETATM   11  C   UNL     1     -46.704  57.529 -58.555  1.00  0.00     0.072 C 
HETATM   12  N   UNL     1     -45.192  58.976 -59.892  1.00  0.00    -0.280 N 
HETATM   13  H   UNL     1     -45.892  59.635 -60.224  1.00  0.00     0.189 HD
HETATM   14  N   UNL     1     -43.929  59.138 -60.296  1.00  0.00    -0.177 NA
HETATM   15  C   UNL     1     -43.269  58.101 -59.767  1.00  0.00     0.079 C 
HETATM   16  C   UNL     1     -41.886  57.878 -60.260  1.00  0.00     0.075 C 
ENDBRANCH   6   9
ENDBRANCH   4   5
ENDBRANCH   1   4
BRANCH   1  17
HETATM   17  C   UNL     1     -42.426  56.989 -53.665  1.00  0.00     0.337 C 
BRANCH  17  18
HETATM   18  C   UNL     1     -42.300  55.487 -53.366  1.00  0.00     0.248 C 
HETATM   19  N   UNL     1     -40.993  55.029 -53.367  1.00  0.00    -0.326 N 
HETATM   20  H   UNL     1     -40.273  55.616 -53.775  1.00  0.00     0.169 HD
HETATM   21  O   UNL     1     -43.301  54.813 -53.142  1.00  0.00    -0.271 OA
BRANCH  19  22
HETATM   22  C   UNL     1     -40.538  53.766 -52.923  1.00  0.00     0.035 A 
HETATM   23  C   UNL     1     -40.345  52.665 -53.761  1.00  0.00     0.047 A 
HETATM   24  C   UNL     1     -39.946  51.410 -53.247  1.00  0.00     0.071 A 
HETATM   25  C   UNL     1     -39.733  51.283 -51.871  1.00  0.00     0.049 A 
HETATM   26 CL   UNL     1     -39.255  49.794 -51.147  1.00  0.00    -0.083 Cl
HETATM   27  C   UNL     1     -39.916  52.381 -51.029  1.00  0.00     0.027 A 
HETATM   28  C   UNL     1     -40.321  53.612 -51.550  1.00  0.00     0.031 A 
BRANCH  24  29
HETATM   29  C   UNL     1     -39.783  50.236 -54.178  1.00  0.00     0.419 C 
HETATM   30  F   UNL     1     -39.513  50.611 -55.462  1.00  0.00    -0.166 F 
HETATM   31  F   UNL     1     -38.763  49.409 -53.823  1.00  0.00    -0.166 F 
HETATM   32  F   UNL     1     -40.902  49.467 -54.258  1.00  0.00    -0.166 F 
ENDBRANCH  24  29
ENDBRANCH  19  22
ENDBRANCH  17  18
ENDBRANCH   1  17
TORSDOF 7
ENDMDL
MODEL 9
REMARK VINA RESULT:      -7.4      3.412      4.309
REMARK  7 active torsions:
REMARK  status: ('A' for Active; 'I' for Inactive)
REMARK    1  A    between atoms: C_8  and  N_9 
REMARK       I    between atoms: N_9  and  C_10 
REMARK    2  A    between atoms: C_10  and  C_11 
REMARK    3  A    between atoms: C_11  and  N_12 
REMARK    4  A    between atoms: N_12  and  C_14 
REMARK    5  A    between atoms: C_14  and  C_15 
REMARK       I    between atoms: C_15  and  N_16 
REMARK    6  A    between atoms: N_16  and  C_17 
REMARK    7  A    between atoms: C_19  and  C_20 
ROOT
HETATM    1  N   UNL     1     -43.494  57.280 -56.254  1.00  0.00    -0.058 N 
HETATM    2  H   UNL     1     -44.398  56.782 -56.320  1.00  0.00     0.280 HD
HETATM    3  C   UNL     1     -43.308  57.686 -54.819  1.00  0.00     0.270 C 
ENDROOT
BRANCH   1   4
HETATM    4  C   UNL     1     -43.625  58.496 -57.185  1.00  0.00     0.337 C 
BRANCH   4   5
HETATM    5  C   UNL     1     -42.974  58.222 -58.539  1.00  0.00     0.248 C 
HETATM    6  N   UNL     1     -43.570  57.484 -59.505  1.00  0.00    -0.322 N 
HETATM    7  H   UNL     1     -42.913  57.143 -60.203  1.00  0.00     0.169 HD
HETATM    8  O   UNL     1     -41.821  58.640 -58.717  1.00  0.00    -0.271 OA
BRANCH   6   9
HETATM    9  C   UNL     1     -44.880  57.081 -59.691  1.00  0.00     0.085 C 
HETATM   10  C   UNL     1     -45.202  55.738 -59.772  1.00  0.00     0.052 C 
HETATM   11  C   UNL     1     -44.387  54.501 -59.685  1.00  0.00     0.072 C 
HETATM   12  N   UNL     1     -46.558  55.682 -59.939  1.00  0.00    -0.280 N 
HETATM   13  H   UNL     1     -47.152  54.860 -60.021  1.00  0.00     0.189 HD
HETATM   14  N   UNL     1     -47.129  56.886 -60.027  1.00  0.00    -0.177 NA
HETATM   15  C   UNL     1     -46.109  57.750 -59.958  1.00  0.00     0.079 C 
HETATM   16  C   UNL     1     -46.420  59.164 -60.286  1.00  0.00     0.075 C 
ENDBRANCH   6   9
ENDBRANCH   4   5
ENDBRANCH   1   4
BRANCH   1  17
HETATM   17  C   UNL     1     -42.440  56.282 -56.754  1.00  0.00     0.337 C 
BRANCH  17  18
HETATM   18  C   UNL     1     -42.310  55.002 -55.914  1.00  0.00     0.248 C 
HETATM   19  N   UNL     1     -41.062  54.843 -55.334  1.00  0.00    -0.326 N 
HETATM   20  H   UNL     1     -40.293  55.413 -55.672  1.00  0.00     0.169 HD
HETATM   21  O   UNL     1     -43.263  54.238 -55.796  1.00  0.00    -0.271 OA
BRANCH  19  22
HETATM   22  C   UNL     1     -40.701  53.898 -54.346  1.00  0.00     0.035 A 
HETATM   23  C   UNL     1     -40.441  52.551 -54.611  1.00  0.00     0.047 A 
HETATM   24  C   UNL     1     -40.144  51.641 -53.571  1.00  0.00     0.071 A 
HETATM   25  C   UNL     1     -40.102  52.112 -52.256  1.00  0.00     0.049 A 
HETATM   26 CL   UNL     1     -39.759  51.080 -50.918  1.00  0.00    -0.083 Cl
HETATM   27  C   UNL     1     -40.353  53.458 -51.984  1.00  0.00     0.027 A 
HETATM   28  C   UNL     1     -40.657  54.344 -53.021  1.00  0.00     0.031 A 
BRANCH  24  29
HETATM   29  C   UNL     1     -39.904  50.188 -53.892  1.00  0.00     0.419 C 
HETATM   30  F   UNL     1     -38.696  49.969 -54.488  1.00  0.00    -0.166 F 
HETATM   31  F   UNL     1     -39.913  49.388 -52.792  1.00  0.00    -0.166 F 
HETATM   32  F   UNL     1     -40.825  49.680 -54.754  1.00  0.00    -0.166 F 
ENDBRANCH  24  29
ENDBRANCH  19  22
ENDBRANCH  17  18
ENDBRANCH   1  17
TORSDOF 7
ENDMDL
MODEL 10
REMARK VINA RESULT:      -7.4      3.665      4.610
REMARK  7 active torsions:
REMARK  status: ('A' for Active; 'I' for Inactive)
REMARK    1  A    between atoms: C_8  and  N_9 
REMARK       I    between atoms: N_9  and  C_10 
REMARK    2  A    between atoms: C_10  and  C_11 
REMARK    3  A    between atoms: C_11  and  N_12 
REMARK    4  A    between atoms: N_12  and  C_14 
REMARK    5  A    between atoms: C_14  and  C_15 
REMARK       I    between atoms: C_15  and  N_16 
REMARK    6  A    between atoms: N_16  and  C_17 
REMARK    7  A    between atoms: C_19  and  C_20 
ROOT
HETATM    1  N   UNL     1     -43.994  57.379 -56.050  1.00  0.00    -0.058 N 
HETATM    2  H   UNL     1     -44.551  56.729 -56.631  1.00  0.00     0.280 HD
HETATM    3  C   UNL     1     -44.550  57.325 -54.655  1.00  0.00     0.270 C 
ENDROOT
BRANCH   1   4
HETATM    4  C   UNL     1     -44.177  58.764 -56.691  1.00  0.00     0.337 C 
BRANCH   4   5
HETATM    5  C   UNL     1     -45.107  58.688 -57.901  1.00  0.00     0.248 C 
HETATM    6  N   UNL     1     -44.688  58.284 -59.124  1.00  0.00    -0.322 N 
HETATM    7  H   UNL     1     -45.319  58.569 -59.871  1.00  0.00     0.169 HD
HETATM    8  O   UNL     1     -46.272  59.083 -57.757  1.00  0.00    -0.271 OA
BRANCH   6   9
HETATM    9  C   UNL     1     -43.559  57.604 -59.543  1.00  0.00     0.085 C 
HETATM   10  C   UNL     1     -42.450  58.290 -60.004  1.00  0.00     0.052 C 
HETATM   11  C   UNL     1     -42.154  59.736 -60.158  1.00  0.00     0.072 C 
HETATM   12  N   UNL     1     -41.519  57.340 -60.319  1.00  0.00    -0.280 N 
HETATM   13  H   UNL     1     -40.574  57.472 -60.672  1.00  0.00     0.189 HD
HETATM   14  N   UNL     1     -41.961  56.091 -60.148  1.00  0.00    -0.177 NA
HETATM   15  C   UNL     1     -43.231  56.233 -59.752  1.00  0.00     0.079 C 
HETATM   16  C   UNL     1     -44.058  55.000 -59.731  1.00  0.00     0.075 C 
ENDBRANCH   6   9
ENDBRANCH   4   5
ENDBRANCH   1   4
BRANCH   1  17
HETATM   17  C   UNL     1     -42.544  56.882 -56.156  1.00  0.00     0.337 C 
BRANCH  17  18
HETATM   18  C   UNL     1     -42.301  55.474 -55.592  1.00  0.00     0.248 C 
HETATM   19  N   UNL     1     -41.167  55.381 -54.800  1.00  0.00    -0.326 N 
HETATM   20  H   UNL     1     -40.487  56.132 -54.837  1.00  0.00     0.169 HD
HETATM   21  O   UNL     1     -43.081  54.561 -55.845  1.00  0.00    -0.271 OA
BRANCH  19  22
HETATM   22  C   UNL     1     -40.796  54.293 -53.976  1.00  0.00     0.035 A 
HETATM   23  C   UNL     1     -40.847  54.317 -52.580  1.00  0.00     0.047 A 
HETATM   24  C   UNL     1     -40.404  53.218 -51.810  1.00  0.00     0.071 A 
HETATM   25  C   UNL     1     -39.918  52.086 -52.469  1.00  0.00     0.049 A 
HETATM   26 CL   UNL     1     -39.346  50.699 -51.619  1.00  0.00    -0.083 Cl
HETATM   27  C   UNL     1     -39.872  52.052 -53.864  1.00  0.00     0.027 A 
HETATM   28  C   UNL     1     -40.302  53.150 -54.612  1.00  0.00     0.031 A 
BRANCH  24  29
HETATM   29  C   UNL     1     -40.441  53.294 -50.304  1.00  0.00     0.419 C 
HETATM   30  F   UNL     1     -41.502  54.014 -49.836  1.00  0.00    -0.166 F 
HETATM   31  F   UNL     1     -40.542  52.075 -49.709  1.00  0.00    -0.166 F 
HETATM   32  F   UNL     1     -39.340  53.897 -49.781  1.00  0.00    -0.166 F 
ENDBRANCH  24  29
ENDBRANCH  19  22
ENDBRANCH  17  18
ENDBRANCH   1  17
TORSDOF 7
ENDMDL
