MODEL 1
REMARK VINA RESULT:      -8.1      0.000      0.000
REMARK  4 active torsions:
REMARK  status: ('A' for Active; 'I' for Inactive)
REMARK    1  A    between atoms: C_4  and  N_5 
REMARK       I    between atoms: N_5  and  C_6 
REMARK    2  A    between atoms: C_6  and  C_7 
REMARK    3  A    between atoms: C_7  and  C_8 
REMARK    4  A    between atoms: C_10  and  O_11 
ROOT
HETATM    1  N   UNL     1     -41.277  55.443 -55.459  1.00  0.00    -0.325 N 
HETATM    2  C   UNL     1     -42.499  55.688 -56.047  1.00  0.00     0.226 C 
HETATM    3  O   UNL     1     -43.572  55.188 -55.715  1.00  0.00    -0.273 OA
HETATM    4  H   UNL     1     -40.488  56.049 -55.677  1.00  0.00     0.169 HD
ENDROOT
BRANCH   1   5
HETATM    5  C   UNL     1     -40.960  54.461 -54.489  1.00  0.00     0.065 A 
HETATM    6  C   UNL     1     -40.606  53.148 -54.824  1.00  0.00     0.038 A 
HETATM    7  C   UNL     1     -40.254  52.230 -53.831  1.00  0.00    -0.059 A 
HETATM    8  C   UNL     1     -39.855  50.828 -54.188  1.00  0.00     0.048 C 
HETATM    9  C   UNL     1     -40.282  52.634 -52.494  1.00  0.00     0.020 A 
HETATM   10  C   UNL     1     -40.638  53.949 -52.150  1.00  0.00    -0.005 A 
HETATM   11  C   UNL     1     -40.974  54.885 -53.151  1.00  0.00     0.093 A 
HETATM   12  C   UNL     1     -40.668  54.369 -50.813  1.00  0.00     0.015 A 
HETATM   13  N   UNL     1     -41.311  56.164 -52.848  1.00  0.00    -0.258 NA
HETATM   14  C   UNL     1     -41.331  56.527 -51.545  1.00  0.00     0.117 A 
HETATM   15  C   UNL     1     -41.021  55.675 -50.504  1.00  0.00     0.020 A 
ENDBRANCH   1   5
BRANCH   2  16
HETATM   16  C   UNL     1     -42.420  56.653 -57.224  1.00  0.00     0.141 C 
BRANCH  16  17
HETATM   17  C   UNL     1     -43.596  56.495 -58.161  1.00  0.00    -0.047 A 
HETATM   18  C   UNL     1     -43.670  55.385 -59.019  1.00  0.00     0.044 A 
HETATM   19  C   UNL     1     -44.734  55.259 -59.906  1.00  0.00     0.066 A 
HETATM   20  C   UNL     1     -45.743  56.212 -59.947  1.00  0.00     0.036 A 
HETATM   21  C   UNL     1     -45.685  57.312 -59.091  1.00  0.00     0.003 A 
HETATM   22  C   UNL     1     -44.615  57.455 -58.203  1.00  0.00     0.007 A 
BRANCH  19  23
HETATM   23  O   UNL     1     -44.815  54.206 -60.769  1.00  0.00    -0.361 OA
HETATM   24  H   UNL     1     -45.689  54.228 -61.192  1.00  0.00     0.217 HD
ENDBRANCH  19  23
ENDBRANCH  16  17
ENDBRANCH   2  16
TORSDOF 4
ENDMDL
MODEL 2
REMARK VINA RESULT:      -8.1      3.954      5.844
REMARK  4 active torsions:
REMARK  status: ('A' for Active; 'I' for Inactive)
REMARK    1  A    between atoms: C_4  and  N_5 
REMARK       I    between atoms: N_5  and  C_6 
REMARK    2  A    between atoms: C_6  and  C_7 
REMARK    3  A    between atoms: C_7  and  C_8 
REMARK    4  A    between atoms: C_10  and  O_11 
ROOT
HETATM    1  N   UNL     1     -42.889  55.135 -52.557  1.00  0.00    -0.325 N 
HETATM    2  C   UNL     1     -42.852  56.439 -52.998  1.00  0.00     0.226 C 
HETATM    3  O   UNL     1     -41.891  57.201 -52.915  1.00  0.00    -0.273 OA
HETATM    4  H   UNL     1     -43.657  54.532 -52.845  1.00  0.00     0.169 HD
ENDROOT
BRANCH   1   5
HETATM    5  C   UNL     1     -41.924  54.453 -51.775  1.00  0.00     0.065 A 
HETATM    6  C   UNL     1     -41.711  54.730 -50.419  1.00  0.00     0.038 A 
HETATM    7  C   UNL     1     -40.781  53.995 -49.679  1.00  0.00    -0.059 A 
HETATM    8  C   UNL     1     -40.564  54.277 -48.222  1.00  0.00     0.048 C 
HETATM    9  C   UNL     1     -40.049  52.991 -50.318  1.00  0.00     0.020 A 
HETATM   10  C   UNL     1     -40.256  52.708 -51.678  1.00  0.00    -0.005 A 
HETATM   11  C   UNL     1     -41.209  53.435 -52.424  1.00  0.00     0.093 A 
HETATM   12  C   UNL     1     -39.531  51.702 -52.332  1.00  0.00     0.015 A 
HETATM   13  N   UNL     1     -41.438  53.175 -53.736  1.00  0.00    -0.258 NA
HETATM   14  C   UNL     1     -40.713  52.199 -54.329  1.00  0.00     0.117 A 
HETATM   15  C   UNL     1     -39.759  51.443 -53.676  1.00  0.00     0.020 A 
ENDBRANCH   1   5
BRANCH   2  16
HETATM   16  C   UNL     1     -44.169  56.910 -53.604  1.00  0.00     0.141 C 
BRANCH  16  17
HETATM   17  C   UNL     1     -44.765  58.062 -52.827  1.00  0.00    -0.047 A 
HETATM   18  C   UNL     1     -44.998  57.938 -51.447  1.00  0.00     0.044 A 
HETATM   19  C   UNL     1     -45.580  58.986 -50.741  1.00  0.00     0.066 A 
HETATM   20  C   UNL     1     -45.922  60.171 -51.379  1.00  0.00     0.036 A 
HETATM   21  C   UNL     1     -45.684  60.309 -52.746  1.00  0.00     0.003 A 
HETATM   22  C   UNL     1     -45.110  59.258 -53.469  1.00  0.00     0.007 A 
BRANCH  19  23
HETATM   23  O   UNL     1     -45.842  58.880 -49.407  1.00  0.00    -0.361 OA
HETATM   24  H   UNL     1     -46.786  59.066 -49.268  1.00  0.00     0.217 HD
ENDBRANCH  19  23
ENDBRANCH  16  17
ENDBRANCH   2  16
TORSDOF 4
ENDMDL
MODEL 3
REMARK VINA RESULT:      -8.0      3.791      6.899
REMARK  4 active torsions:
REMARK  status: ('A' for Active; 'I' for Inactive)
REMARK    1  A    between atoms: C_4  and  N_5 
REMARK       I    between atoms: N_5  and  C_6 
REMARK    2  A    between atoms: C_6  and  C_7 
REMARK    3  A    between atoms: C_7  and  C_8 
REMARK    4  A    between atoms: C_10  and  O_11 
ROOT
HETATM    1  N   UNL     1     -41.179  55.409 -52.352  1.00  0.00    -0.325 N 
HETATM    2  C   UNL     1     -41.364  54.326 -51.521  1.00  0.00     0.226 C 
HETATM    3  O   UNL     1     -42.408  54.031 -50.944  1.00  0.00    -0.273 OA
HETATM    4  H   UNL     1     -40.343  55.457 -52.931  1.00  0.00     0.169 HD
ENDROOT
BRANCH   1   5
HETATM    5  C   UNL     1     -42.066  56.490 -52.584  1.00  0.00     0.065 A 
HETATM    6  C   UNL     1     -43.128  56.420 -53.493  1.00  0.00     0.038 A 
HETATM    7  C   UNL     1     -44.004  57.498 -53.650  1.00  0.00    -0.059 A 
HETATM    8  C   UNL     1     -45.154  57.419 -54.610  1.00  0.00     0.048 C 
HETATM    9  C   UNL     1     -43.792  58.657 -52.899  1.00  0.00     0.020 A 
HETATM   10  C   UNL     1     -42.728  58.735 -51.985  1.00  0.00    -0.005 A 
HETATM   11  C   UNL     1     -41.853  57.642 -51.810  1.00  0.00     0.093 A 
HETATM   12  C   UNL     1     -42.505  59.891 -51.225  1.00  0.00     0.015 A 
HETATM   13  N   UNL     1     -40.824  57.686 -50.927  1.00  0.00    -0.258 NA
HETATM   14  C   UNL     1     -40.642  58.822 -50.216  1.00  0.00     0.117 A 
HETATM   15  C   UNL     1     -41.447  59.938 -50.328  1.00  0.00     0.020 A 
ENDBRANCH   1   5
BRANCH   2  16
HETATM   16  C   UNL     1     -40.105  53.489 -51.331  1.00  0.00     0.141 C 
BRANCH  16  17
HETATM   17  C   UNL     1     -40.062  52.315 -52.283  1.00  0.00    -0.047 A 
HETATM   18  C   UNL     1     -39.700  51.041 -51.816  1.00  0.00     0.044 A 
HETATM   19  C   UNL     1     -39.625  49.969 -52.701  1.00  0.00     0.066 A 
HETATM   20  C   UNL     1     -39.922  50.136 -54.047  1.00  0.00     0.036 A 
HETATM   21  C   UNL     1     -40.293  51.395 -54.518  1.00  0.00     0.003 A 
HETATM   22  C   UNL     1     -40.361  52.481 -53.642  1.00  0.00     0.007 A 
BRANCH  19  23
HETATM   23  O   UNL     1     -39.249  48.728 -52.278  1.00  0.00    -0.361 OA
HETATM   24  H   UNL     1     -40.049  48.241 -52.020  1.00  0.00     0.217 HD
ENDBRANCH  19  23
ENDBRANCH  16  17
ENDBRANCH   2  16
TORSDOF 4
ENDMDL
MODEL 4
REMARK VINA RESULT:      -8.0      2.800      6.808
REMARK  4 active torsions:
REMARK  status: ('A' for Active; 'I' for Inactive)
REMARK    1  A    between atoms: C_4  and  N_5 
REMARK       I    between atoms: N_5  and  C_6 
REMARK    2  A    between atoms: C_6  and  C_7 
REMARK    3  A    between atoms: C_7  and  C_8 
REMARK    4  A    between atoms: C_10  and  O_11 
ROOT
HETATM    1  N   UNL     1     -42.266  54.418 -54.672  1.00  0.00    -0.325 N 
HETATM    2  C   UNL     1     -40.897  54.293 -54.770  1.00  0.00     0.226 C 
HETATM    3  O   UNL     1     -40.084  55.212 -54.699  1.00  0.00    -0.273 OA
HETATM    4  H   UNL     1     -42.835  53.583 -54.548  1.00  0.00     0.169 HD
ENDROOT
BRANCH   1   5
HETATM    5  C   UNL     1     -43.032  55.610 -54.646  1.00  0.00     0.065 A 
HETATM    6  C   UNL     1     -43.375  56.318 -55.803  1.00  0.00     0.038 A 
HETATM    7  C   UNL     1     -44.174  57.463 -55.728  1.00  0.00    -0.059 A 
HETATM    8  C   UNL     1     -44.559  58.213 -56.969  1.00  0.00     0.048 C 
HETATM    9  C   UNL     1     -44.609  57.903 -54.476  1.00  0.00     0.020 A 
HETATM   10  C   UNL     1     -44.268  57.198 -53.309  1.00  0.00    -0.005 A 
HETATM   11  C   UNL     1     -43.478  56.031 -53.383  1.00  0.00     0.093 A 
HETATM   12  C   UNL     1     -44.699  57.627 -52.047  1.00  0.00     0.015 A 
HETATM   13  N   UNL     1     -43.143  55.324 -52.274  1.00  0.00    -0.258 NA
HETATM   14  C   UNL     1     -43.577  55.776 -51.076  1.00  0.00     0.117 A 
HETATM   15  C   UNL     1     -44.348  56.909 -50.912  1.00  0.00     0.020 A 
ENDBRANCH   1   5
BRANCH   2  16
HETATM   16  C   UNL     1     -40.438  52.862 -55.017  1.00  0.00     0.141 C 
BRANCH  16  17
HETATM   17  C   UNL     1     -40.149  52.133 -53.724  1.00  0.00    -0.047 A 
HETATM   18  C   UNL     1     -39.810  50.770 -53.742  1.00  0.00     0.044 A 
HETATM   19  C   UNL     1     -39.581  50.092 -52.549  1.00  0.00     0.066 A 
HETATM   20  C   UNL     1     -39.666  50.750 -51.330  1.00  0.00     0.036 A 
HETATM   21  C   UNL     1     -39.990  52.106 -51.301  1.00  0.00     0.003 A 
HETATM   22  C   UNL     1     -40.234  52.795 -52.492  1.00  0.00     0.007 A 
BRANCH  19  23
HETATM   23  O   UNL     1     -39.278  48.762 -52.539  1.00  0.00    -0.361 OA
HETATM   24  H   UNL     1     -39.904  48.304 -53.124  1.00  0.00     0.217 HD
ENDBRANCH  19  23
ENDBRANCH  16  17
ENDBRANCH   2  16
TORSDOF 4
ENDMDL
MODEL 5
REMARK VINA RESULT:      -7.9      2.631      7.071
REMARK  4 active torsions:
REMARK  status: ('A' for Active; 'I' for Inactive)
REMARK    1  A    between atoms: C_4  and  N_5 
REMARK       I    between atoms: N_5  and  C_6 
REMARK    2  A    between atoms: C_6  and  C_7 
REMARK    3  A    between atoms: C_7  and  C_8 
REMARK    4  A    between atoms: C_10  and  O_11 
ROOT
HETATM    1  N   UNL     1     -41.822  55.373 -54.406  1.00  0.00    -0.325 N 
HETATM    2  C   UNL     1     -40.659  54.664 -54.197  1.00  0.00     0.226 C 
HETATM    3  O   UNL     1     -39.723  54.567 -54.988  1.00  0.00    -0.273 OA
HETATM    4  H   UNL     1     -42.445  55.553 -53.621  1.00  0.00     0.169 HD
ENDROOT
BRANCH   1   5
HETATM    5  C   UNL     1     -42.265  55.985 -55.606  1.00  0.00     0.065 A 
HETATM    6  C   UNL     1     -42.731  55.253 -56.704  1.00  0.00     0.038 A 
HETATM    7  C   UNL     1     -43.204  55.905 -57.846  1.00  0.00    -0.059 A 
HETATM    8  C   UNL     1     -43.722  55.123 -59.018  1.00  0.00     0.048 C 
HETATM    9  C   UNL     1     -43.184  57.301 -57.886  1.00  0.00     0.020 A 
HETATM   10  C   UNL     1     -42.716  58.042 -56.788  1.00  0.00    -0.005 A 
HETATM   11  C   UNL     1     -42.257  57.388 -55.625  1.00  0.00     0.093 A 
HETATM   12  C   UNL     1     -42.693  59.443 -56.813  1.00  0.00     0.015 A 
HETATM   13  N   UNL     1     -41.810  58.079 -54.546  1.00  0.00    -0.258 NA
HETATM   14  C   UNL     1     -41.801  59.430 -54.613  1.00  0.00     0.117 A 
HETATM   15  C   UNL     1     -42.227  60.150 -55.712  1.00  0.00     0.020 A 
ENDBRANCH   1   5
BRANCH   2  16
HETATM   16  C   UNL     1     -40.625  53.943 -52.856  1.00  0.00     0.141 C 
BRANCH  16  17
HETATM   17  C   UNL     1     -40.325  52.469 -53.018  1.00  0.00    -0.047 A 
HETATM   18  C   UNL     1     -39.813  51.730 -51.939  1.00  0.00     0.044 A 
HETATM   19  C   UNL     1     -39.504  50.384 -52.100  1.00  0.00     0.066 A 
HETATM   20  C   UNL     1     -39.711  49.746 -53.316  1.00  0.00     0.036 A 
HETATM   21  C   UNL     1     -40.231  50.468 -54.390  1.00  0.00     0.003 A 
HETATM   22  C   UNL     1     -40.535  51.824 -54.243  1.00  0.00     0.007 A 
BRANCH  19  23
HETATM   23  O   UNL     1     -38.978  49.651 -51.076  1.00  0.00    -0.361 OA
HETATM   24  H   UNL     1     -39.685  49.095 -50.708  1.00  0.00     0.217 HD
ENDBRANCH  19  23
ENDBRANCH  16  17
ENDBRANCH   2  16
TORSDOF 4
ENDMDL
MODEL 6
REMARK VINA RESULT:      -7.9      2.353      3.587
REMARK  4 active torsions:
REMARK  status: ('A' for Active; 'I' for Inactive)
REMARK    1  A    between atoms: C_4  and  N_5 
REMARK       I    between atoms: N_5  and  C_6 
REMARK    2  A    between atoms: C_6  and  C_7 
REMARK    3  A    between atoms: C_7  and  C_8 
REMARK    4  A    between atoms: C_10  and  O_11 
ROOT
HETATM    1  N   UNL     1     -41.558  54.809 -54.608  1.00  0.00    -0.325 N 
HETATM    2  C   UNL     1     -42.639  54.730 -55.459  1.00  0.00     0.226 C 
HETATM    3  O   UNL     1     -43.395  53.768 -55.576  1.00  0.00    -0.273 OA
HETATM    4  H   UNL     1     -41.117  55.711 -54.443  1.00  0.00     0.169 HD
ENDROOT
BRANCH   1   5
HETATM    5  C   UNL     1     -40.984  53.771 -53.831  1.00  0.00     0.065 A 
HETATM    6  C   UNL     1     -40.585  52.546 -54.377  1.00  0.00     0.038 A 
HETATM    7  C   UNL     1     -39.979  51.573 -53.578  1.00  0.00    -0.059 A 
HETATM    8  C   UNL     1     -39.532  50.266 -54.164  1.00  0.00     0.048 C 
HETATM    9  C   UNL     1     -39.797  51.833 -52.217  1.00  0.00     0.020 A 
HETATM   10  C   UNL     1     -40.196  53.060 -51.662  1.00  0.00    -0.005 A 
HETATM   11  C   UNL     1     -40.790  54.052 -52.470  1.00  0.00     0.093 A 
HETATM   12  C   UNL     1     -40.017  53.335 -50.299  1.00  0.00     0.015 A 
HETATM   13  N   UNL     1     -41.175  55.250 -51.963  1.00  0.00    -0.258 NA
HETATM   14  C   UNL     1     -40.988  55.473 -50.642  1.00  0.00     0.117 A 
HETATM   15  C   UNL     1     -40.419  54.557 -49.779  1.00  0.00     0.020 A 
ENDBRANCH   1   5
BRANCH   2  16
HETATM   16  C   UNL     1     -42.826  55.977 -56.314  1.00  0.00     0.141 C 
BRANCH  16  17
HETATM   17  C   UNL     1     -43.111  57.200 -55.470  1.00  0.00    -0.047 A 
HETATM   18  C   UNL     1     -42.167  58.236 -55.386  1.00  0.00     0.044 A 
HETATM   19  C   UNL     1     -42.416  59.343 -54.581  1.00  0.00     0.066 A 
HETATM   20  C   UNL     1     -43.601  59.450 -53.865  1.00  0.00     0.036 A 
HETATM   21  C   UNL     1     -44.550  58.433 -53.951  1.00  0.00     0.003 A 
HETATM   22  C   UNL     1     -44.307  57.311 -54.748  1.00  0.00     0.007 A 
BRANCH  19  23
HETATM   23  O   UNL     1     -41.503  60.349 -54.460  1.00  0.00    -0.361 OA
HETATM   24  H   UNL     1     -41.131  60.314 -53.563  1.00  0.00     0.217 HD
ENDBRANCH  19  23
ENDBRANCH  16  17
ENDBRANCH   2  16
TORSDOF 4
ENDMDL
MODEL 7
REMARK VINA RESULT:      -7.8     14.693     16.122
REMARK  4 active torsions:
REMARK  status: ('A' for Active; 'I' for Inactive)
REMARK    1  A    between atoms: C_4  and  N_5 
REMARK       I    between atoms: N_5  and  C_6 
REMARK    2  A    between atoms: C_6  and  C_7 
REMARK    3  A    between atoms: C_7  and  C_8 
REMARK    4  A    between atoms: C_10  and  O_11 
ROOT
HETATM    1  N   UNL     1     -35.611  41.098 -55.132  1.00  0.00    -0.325 N 
HETATM    2  C   UNL     1     -36.749  40.333 -55.261  1.00  0.00     0.226 C 
HETATM    3  O   UNL     1     -36.886  39.174 -54.874  1.00  0.00    -0.273 OA
HETATM    4  H   UNL     1     -35.660  42.100 -55.305  1.00  0.00     0.169 HD
ENDROOT
BRANCH   1   5
HETATM    5  C   UNL     1     -34.326  40.682 -54.701  1.00  0.00     0.065 A 
HETATM    6  C   UNL     1     -33.320  40.282 -55.587  1.00  0.00     0.038 A 
HETATM    7  C   UNL     1     -32.053  39.927 -55.115  1.00  0.00    -0.059 A 
HETATM    8  C   UNL     1     -30.967  39.516 -56.064  1.00  0.00     0.048 C 
HETATM    9  C   UNL     1     -31.812  39.955 -53.739  1.00  0.00     0.020 A 
HETATM   10  C   UNL     1     -32.818  40.354 -52.843  1.00  0.00    -0.005 A 
HETATM   11  C   UNL     1     -34.091  40.732 -53.318  1.00  0.00     0.093 A 
HETATM   12  C   UNL     1     -32.589  40.389 -51.460  1.00  0.00     0.015 A 
HETATM   13  N   UNL     1     -35.078  41.132 -52.476  1.00  0.00    -0.258 NA
HETATM   14  C   UNL     1     -34.815  41.148 -51.149  1.00  0.00     0.117 A 
HETATM   15  C   UNL     1     -33.601  40.790 -50.599  1.00  0.00     0.020 A 
ENDBRANCH   1   5
BRANCH   2  16
HETATM   16  C   UNL     1     -37.881  41.053 -55.983  1.00  0.00     0.141 C 
BRANCH  16  17
HETATM   17  C   UNL     1     -37.753  40.937 -57.485  1.00  0.00    -0.047 A 
HETATM   18  C   UNL     1     -37.384  42.056 -58.250  1.00  0.00     0.044 A 
HETATM   19  C   UNL     1     -37.302  41.958 -59.636  1.00  0.00     0.066 A 
HETATM   20  C   UNL     1     -37.563  40.756 -60.280  1.00  0.00     0.036 A 
HETATM   21  C   UNL     1     -37.918  39.636 -59.529  1.00  0.00     0.003 A 
HETATM   22  C   UNL     1     -38.015  39.726 -58.138  1.00  0.00     0.007 A 
BRANCH  19  23
HETATM   23  O   UNL     1     -36.973  43.037 -60.403  1.00  0.00    -0.361 OA
HETATM   24  H   UNL     1     -37.609  43.747 -60.214  1.00  0.00     0.217 HD
ENDBRANCH  19  23
ENDBRANCH  16  17
ENDBRANCH   2  16
TORSDOF 4
ENDMDL
MODEL 8
REMARK VINA RESULT:      -7.8      1.853      3.607
REMARK  4 active torsions:
REMARK  status: ('A' for Active; 'I' for Inactive)
REMARK    1  A    between atoms: C_4  and  N_5 
REMARK       I    between atoms: N_5  and  C_6 
REMARK    2  A    between atoms: C_6  and  C_7 
REMARK    3  A    between atoms: C_7  and  C_8 
REMARK    4  A    between atoms: C_10  and  O_11 
ROOT
HETATM    1  N   UNL     1     -41.676  53.903 -54.714  1.00  0.00    -0.325 N 
HETATM    2  C   UNL     1     -42.935  54.416 -54.939  1.00  0.00     0.226 C 
HETATM    3  O   UNL     1     -43.706  54.835 -54.078  1.00  0.00    -0.273 OA
HETATM    4  H   UNL     1     -41.045  53.767 -55.501  1.00  0.00     0.169 HD
ENDROOT
BRANCH   1   5
HETATM    5  C   UNL     1     -41.074  53.587 -53.471  1.00  0.00     0.065 A 
HETATM    6  C   UNL     1     -41.019  54.489 -52.402  1.00  0.00     0.038 A 
HETATM    7  C   UNL     1     -40.458  54.113 -51.179  1.00  0.00    -0.059 A 
HETATM    8  C   UNL     1     -40.415  55.071 -50.026  1.00  0.00     0.048 C 
HETATM    9  C   UNL     1     -39.930  52.826 -51.044  1.00  0.00     0.020 A 
HETATM   10  C   UNL     1     -39.980  51.915 -52.113  1.00  0.00    -0.005 A 
HETATM   11  C   UNL     1     -40.564  52.285 -53.343  1.00  0.00     0.093 A 
HETATM   12  C   UNL     1     -39.457  50.621 -51.991  1.00  0.00     0.015 A 
HETATM   13  N   UNL     1     -40.637  51.423 -54.388  1.00  0.00    -0.258 NA
HETATM   14  C   UNL     1     -40.116  50.184 -54.229  1.00  0.00     0.117 A 
HETATM   15  C   UNL     1     -39.523  49.741 -53.063  1.00  0.00     0.020 A 
ENDBRANCH   1   5
BRANCH   2  16
HETATM   16  C   UNL     1     -43.340  54.400 -56.408  1.00  0.00     0.141 C 
BRANCH  16  17
HETATM   17  C   UNL     1     -42.986  55.696 -57.102  1.00  0.00    -0.047 A 
HETATM   18  C   UNL     1     -42.953  55.759 -58.505  1.00  0.00     0.044 A 
HETATM   19  C   UNL     1     -42.591  56.941 -59.142  1.00  0.00     0.066 A 
HETATM   20  C   UNL     1     -42.278  58.078 -58.408  1.00  0.00     0.036 A 
HETATM   21  C   UNL     1     -42.319  58.030 -57.016  1.00  0.00     0.003 A 
HETATM   22  C   UNL     1     -42.669  56.844 -56.364  1.00  0.00     0.007 A 
BRANCH  19  23
HETATM   23  O   UNL     1     -42.524  57.020 -60.503  1.00  0.00    -0.361 OA
HETATM   24  H   UNL     1     -43.150  56.377 -60.874  1.00  0.00     0.217 HD
ENDBRANCH  19  23
ENDBRANCH  16  17
ENDBRANCH   2  16
TORSDOF 4
ENDMDL
MODEL 9
REMARK VINA RESULT:      -7.7      3.617      7.334
REMARK  4 active torsions:
REMARK  status: ('A' for Active; 'I' for Inactive)
REMARK    1  A    between atoms: C_4  and  N_5 
REMARK       I    between atoms: N_5  and  C_6 
REMARK    2  A    between atoms: C_6  and  C_7 
REMARK    3  A    between atoms: C_7  and  C_8 
REMARK    4  A    between atoms: C_10  and  O_11 
ROOT
HETATM    1  N   UNL     1     -42.385  54.241 -51.157  1.00  0.00    -0.325 N 
HETATM    2  C   UNL     1     -41.116  54.284 -50.621  1.00  0.00     0.226 C 
HETATM    3  O   UNL     1     -40.441  55.298 -50.451  1.00  0.00    -0.273 OA
HETATM    4  H   UNL     1     -42.932  53.385 -51.075  1.00  0.00     0.169 HD
ENDROOT
BRANCH   1   5
HETATM    5  C   UNL     1     -43.106  55.292 -51.775  1.00  0.00     0.065 A 
HETATM    6  C   UNL     1     -43.781  56.280 -51.048  1.00  0.00     0.038 A 
HETATM    7  C   UNL     1     -44.437  57.325 -51.705  1.00  0.00    -0.059 A 
HETATM    8  C   UNL     1     -45.145  58.396 -50.928  1.00  0.00     0.048 C 
HETATM    9  C   UNL     1     -44.429  57.357 -53.102  1.00  0.00     0.020 A 
HETATM   10  C   UNL     1     -43.755  56.369 -53.838  1.00  0.00    -0.005 A 
HETATM   11  C   UNL     1     -43.074  55.324 -53.178  1.00  0.00     0.093 A 
HETATM   12  C   UNL     1     -43.736  56.390 -55.239  1.00  0.00     0.015 A 
HETATM   13  N   UNL     1     -42.406  54.362 -53.863  1.00  0.00    -0.258 NA
HETATM   14  C   UNL     1     -42.417  54.418 -55.214  1.00  0.00     0.117 A 
HETATM   15  C   UNL     1     -43.060  55.401 -55.940  1.00  0.00     0.020 A 
ENDBRANCH   1   5
BRANCH   2  16
HETATM   16  C   UNL     1     -40.564  52.911 -50.263  1.00  0.00     0.141 C 
BRANCH  16  17
HETATM   17  C   UNL     1     -40.205  52.110 -51.494  1.00  0.00    -0.047 A 
HETATM   18  C   UNL     1     -39.936  50.736 -51.390  1.00  0.00     0.044 A 
HETATM   19  C   UNL     1     -39.569  50.008 -52.518  1.00  0.00     0.066 A 
HETATM   20  C   UNL     1     -39.481  50.620 -53.761  1.00  0.00     0.036 A 
HETATM   21  C   UNL     1     -39.758  51.982 -53.878  1.00  0.00     0.003 A 
HETATM   22  C   UNL     1     -40.116  52.725 -52.750  1.00  0.00     0.007 A 
BRANCH  19  23
HETATM   23  O   UNL     1     -39.275  48.679 -52.437  1.00  0.00    -0.361 OA
HETATM   24  H   UNL     1     -39.549  48.258 -53.269  1.00  0.00     0.217 HD
ENDBRANCH  19  23
ENDBRANCH  16  17
ENDBRANCH   2  16
TORSDOF 4
ENDMDL
MODEL 10
REMARK VINA RESULT:      -7.6      2.251      4.165
REMARK  4 active torsions:
REMARK  status: ('A' for Active; 'I' for Inactive)
REMARK    1  A    between atoms: C_4  and  N_5 
REMARK       I    between atoms: N_5  and  C_6 
REMARK    2  A    between atoms: C_6  and  C_7 
REMARK    3  A    between atoms: C_7  and  C_8 
REMARK    4  A    between atoms: C_10  and  O_11 
ROOT
HETATM    1  N   UNL     1     -41.245  54.297 -54.386  1.00  0.00    -0.325 N 
HETATM    2  C   UNL     1     -42.537  54.598 -54.755  1.00  0.00     0.226 C 
HETATM    3  O   UNL     1     -43.520  54.578 -54.016  1.00  0.00    -0.273 OA
HETATM    4  H   UNL     1     -40.479  54.531 -55.014  1.00  0.00     0.169 HD
ENDROOT
BRANCH   1   5
HETATM    5  C   UNL     1     -40.795  53.743 -53.161  1.00  0.00     0.065 A 
HETATM    6  C   UNL     1     -40.782  54.464 -51.961  1.00  0.00     0.038 A 
HETATM    7  C   UNL     1     -40.375  53.857 -50.770  1.00  0.00    -0.059 A 
HETATM    8  C   UNL     1     -40.377  54.622 -49.479  1.00  0.00     0.048 C 
HETATM    9  C   UNL     1     -39.959  52.524 -50.797  1.00  0.00     0.020 A 
HETATM   10  C   UNL     1     -39.969  51.794 -51.997  1.00  0.00    -0.005 A 
HETATM   11  C   UNL     1     -40.398  52.397 -53.199  1.00  0.00     0.093 A 
HETATM   12  C   UNL     1     -39.558  50.455 -52.039  1.00  0.00     0.015 A 
HETATM   13  N   UNL     1     -40.428  51.714 -54.370  1.00  0.00    -0.258 NA
HETATM   14  C   UNL     1     -40.019  50.425 -54.366  1.00  0.00     0.117 A 
HETATM   15  C   UNL     1     -39.580  49.759 -53.240  1.00  0.00     0.020 A 
ENDBRANCH   1   5
BRANCH   2  16
HETATM   16  C   UNL     1     -42.678  54.948 -56.230  1.00  0.00     0.141 C 
BRANCH  16  17
HETATM   17  C   UNL     1     -42.848  56.436 -56.441  1.00  0.00    -0.047 A 
HETATM   18  C   UNL     1     -42.102  57.348 -55.675  1.00  0.00     0.044 A 
HETATM   19  C   UNL     1     -42.287  58.716 -55.845  1.00  0.00     0.066 A 
HETATM   20  C   UNL     1     -43.190  59.202 -56.781  1.00  0.00     0.036 A 
HETATM   21  C   UNL     1     -43.926  58.306 -57.555  1.00  0.00     0.003 A 
HETATM   22  C   UNL     1     -43.759  56.929 -57.385  1.00  0.00     0.007 A 
BRANCH  19  23
HETATM   23  O   UNL     1     -41.596  59.621 -55.094  1.00  0.00    -0.361 OA
HETATM   24  H   UNL     1     -42.124  60.435 -55.040  1.00  0.00     0.217 HD
ENDBRANCH  19  23
ENDBRANCH  16  17
ENDBRANCH   2  16
TORSDOF 4
ENDMDL
