MODEL 1
REMARK VINA RESULT:      -8.2      0.000      0.000
REMARK  2 active torsions:
REMARK  status: ('A' for Active; 'I' for Inactive)
REMARK    1  A    between atoms: C_5  and  O_6 
REMARK    2  A    between atoms: C_5  and  C_7 
ROOT
HETATM    1  C   UNL     1     -44.817  57.574 -54.635  1.00  0.00     0.050 C 
HETATM    2  C   UNL     1     -43.492  57.531 -53.944  1.00  0.00    -0.035 A 
HETATM    3  C   UNL     1     -43.261  56.754 -52.820  1.00  0.00     0.051 A 
HETATM    4  C   UNL     1     -42.011  56.690 -52.183  1.00  0.00     0.018 A 
HETATM    5  C   UNL     1     -42.104  55.783 -50.985  1.00  0.00     0.198 A 
HETATM    6  C   UNL     1     -43.599  55.327 -51.052  1.00  0.00     0.266 A 
HETATM    7  O   UNL     1     -44.194  54.625 -50.244  1.00  0.00    -0.269 OA
HETATM    8  N   UNL     1     -44.174  55.938 -52.161  1.00  0.00    -0.323 N 
HETATM    9  C   UNL     1     -40.941  57.427 -52.667  1.00  0.00     0.013 A 
HETATM   10  C   UNL     1     -41.138  58.200 -53.813  1.00  0.00     0.001 A 
HETATM   11  C   UNL     1     -42.395  58.248 -54.445  1.00  0.00     0.009 A 
HETATM   12  H   UNL     1     -45.146  55.822 -52.401  1.00  0.00     0.169 HD
ENDROOT
BRANCH   5  13
HETATM   13  O   UNL     1     -41.859  56.549 -49.809  1.00  0.00    -0.371 OA
HETATM   14  H   UNL     1     -42.409  57.345 -49.915  1.00  0.00     0.212 HD
ENDBRANCH   5  13
BRANCH   5  15
HETATM   15  C   UNL     1     -41.156  54.615 -51.128  1.00  0.00     0.018 A 
HETATM   16  C   UNL     1     -40.984  53.680 -52.220  1.00  0.00     0.002 A 
HETATM   17  C   UNL     1     -40.002  52.760 -51.839  1.00  0.00     0.043 A 
HETATM   18  C   UNL     1     -41.562  53.518 -53.500  1.00  0.00     0.014 A 
HETATM   19  C   UNL     1     -39.570  51.712 -52.662  1.00  0.00     0.030 A 
HETATM   20  N   UNL     1     -39.596  53.097 -50.574  1.00  0.00    -0.365 N 
HETATM   21  C   UNL     1     -40.151  51.591 -53.925  1.00  0.00     0.002 A 
HETATM   22  C   UNL     1     -41.133  52.482 -54.341  1.00  0.00     0.001 A 
HETATM   23  H   UNL     1     -38.899  52.592 -50.042  1.00  0.00     0.165 HD
HETATM   24  C   UNL     1     -40.270  54.201 -50.140  1.00  0.00     0.100 A 
ENDBRANCH   5  15
TORSDOF 2
ENDMDL
MODEL 2
REMARK VINA RESULT:      -7.9      1.630      1.795
REMARK  2 active torsions:
REMARK  status: ('A' for Active; 'I' for Inactive)
REMARK    1  A    between atoms: C_5  and  O_6 
REMARK    2  A    between atoms: C_5  and  C_7 
ROOT
HETATM    1  C   UNL     1     -44.249  58.864 -52.125  1.00  0.00     0.050 C 
HETATM    2  C   UNL     1     -43.025  58.210 -51.570  1.00  0.00    -0.035 A 
HETATM    3  C   UNL     1     -43.006  56.884 -51.165  1.00  0.00     0.051 A 
HETATM    4  C   UNL     1     -41.852  56.258 -50.668  1.00  0.00     0.018 A 
HETATM    5  C   UNL     1     -42.174  54.835 -50.296  1.00  0.00     0.198 A 
HETATM    6  C   UNL     1     -43.689  54.745 -50.678  1.00  0.00     0.266 A 
HETATM    7  O   UNL     1     -44.441  53.796 -50.500  1.00  0.00    -0.269 OA
HETATM    8  N   UNL     1     -44.066  55.984 -51.184  1.00  0.00    -0.323 N 
HETATM    9  C   UNL     1     -40.665  56.965 -50.555  1.00  0.00     0.013 A 
HETATM   10  C   UNL     1     -40.649  58.296 -50.978  1.00  0.00     0.001 A 
HETATM   11  C   UNL     1     -41.812  58.908 -51.483  1.00  0.00     0.009 A 
HETATM   12  H   UNL     1     -45.010  56.187 -51.475  1.00  0.00     0.169 HD
ENDROOT
BRANCH   5  13
HETATM   13  O   UNL     1     -41.994  54.675 -48.892  1.00  0.00    -0.371 OA
HETATM   14  H   UNL     1     -41.562  53.809 -48.796  1.00  0.00     0.212 HD
ENDBRANCH   5  13
BRANCH   5  15
HETATM   15  C   UNL     1     -41.336  53.872 -51.104  1.00  0.00     0.018 A 
HETATM   16  C   UNL     1     -41.093  53.814 -52.530  1.00  0.00     0.002 A 
HETATM   17  C   UNL     1     -40.276  52.706 -52.777  1.00  0.00     0.043 A 
HETATM   18  C   UNL     1     -41.481  54.593 -53.645  1.00  0.00     0.014 A 
HETATM   19  C   UNL     1     -39.830  52.349 -54.055  1.00  0.00     0.030 A 
HETATM   20  N   UNL     1     -40.037  52.099 -51.570  1.00  0.00    -0.365 N 
HETATM   21  C   UNL     1     -40.220  53.149 -55.130  1.00  0.00     0.002 A 
HETATM   22  C   UNL     1     -41.034  54.257 -54.929  1.00  0.00     0.001 A 
HETATM   23  H   UNL     1     -39.483  51.262 -51.450  1.00  0.00     0.165 HD
HETATM   24  C   UNL     1     -40.656  52.785 -50.566  1.00  0.00     0.100 A 
ENDBRANCH   5  15
TORSDOF 2
ENDMDL
MODEL 3
REMARK VINA RESULT:      -7.8      2.718      5.532
REMARK  2 active torsions:
REMARK  status: ('A' for Active; 'I' for Inactive)
REMARK    1  A    between atoms: C_5  and  O_6 
REMARK    2  A    between atoms: C_5  and  C_7 
ROOT
HETATM    1  C   UNL     1     -40.264  53.555 -50.642  1.00  0.00     0.050 C 
HETATM    2  C   UNL     1     -40.756  53.549 -52.054  1.00  0.00    -0.035 A 
HETATM    3  C   UNL     1     -41.750  54.404 -52.503  1.00  0.00     0.051 A 
HETATM    4  C   UNL     1     -42.195  54.420 -53.834  1.00  0.00     0.018 A 
HETATM    5  C   UNL     1     -43.295  55.438 -53.983  1.00  0.00     0.198 A 
HETATM    6  C   UNL     1     -43.390  56.012 -52.530  1.00  0.00     0.266 A 
HETATM    7  O   UNL     1     -44.195  56.834 -52.112  1.00  0.00    -0.269 OA
HETATM    8  N   UNL     1     -42.442  55.352 -51.757  1.00  0.00    -0.323 N 
HETATM    9  C   UNL     1     -41.647  53.553 -54.766  1.00  0.00     0.013 A 
HETATM   10  C   UNL     1     -40.626  52.697 -54.348  1.00  0.00     0.001 A 
HETATM   11  C   UNL     1     -40.183  52.698 -53.011  1.00  0.00     0.009 A 
HETATM   12  H   UNL     1     -42.328  55.528 -50.771  1.00  0.00     0.169 HD
ENDROOT
BRANCH   5  13
HETATM   13  O   UNL     1     -44.498  54.766 -54.343  1.00  0.00    -0.371 OA
HETATM   14  H   UNL     1     -44.375  54.528 -55.279  1.00  0.00     0.212 HD
ENDBRANCH   5  13
BRANCH   5  15
HETATM   15  C   UNL     1     -42.900  56.503 -54.980  1.00  0.00     0.018 A 
HETATM   16  C   UNL     1     -42.866  56.462 -56.426  1.00  0.00     0.002 A 
HETATM   17  C   UNL     1     -42.388  57.698 -56.875  1.00  0.00     0.043 A 
HETATM   18  C   UNL     1     -43.193  55.499 -57.409  1.00  0.00     0.014 A 
HETATM   19  C   UNL     1     -42.233  58.016 -58.229  1.00  0.00     0.030 A 
HETATM   20  N   UNL     1     -42.127  58.460 -55.765  1.00  0.00    -0.365 N 
HETATM   21  C   UNL     1     -42.581  57.047 -59.172  1.00  0.00     0.002 A 
HETATM   22  C   UNL     1     -43.055  55.805 -58.769  1.00  0.00     0.001 A 
HETATM   23  H   UNL     1     -41.757  59.401 -55.792  1.00  0.00     0.165 HD
HETATM   24  C   UNL     1     -42.432  57.765 -54.632  1.00  0.00     0.100 A 
ENDBRANCH   5  15
TORSDOF 2
ENDMDL
MODEL 4
REMARK VINA RESULT:      -7.8      1.951      5.190
REMARK  2 active torsions:
REMARK  status: ('A' for Active; 'I' for Inactive)
REMARK    1  A    between atoms: C_5  and  O_6 
REMARK    2  A    between atoms: C_5  and  C_7 
ROOT
HETATM    1  C   UNL     1     -39.766  52.391 -53.514  1.00  0.00     0.050 C 
HETATM    2  C   UNL     1     -41.050  53.152 -53.602  1.00  0.00    -0.035 A 
HETATM    3  C   UNL     1     -41.658  53.721 -52.494  1.00  0.00     0.051 A 
HETATM    4  C   UNL     1     -42.849  54.460 -52.577  1.00  0.00     0.018 A 
HETATM    5  C   UNL     1     -43.254  54.913 -51.199  1.00  0.00     0.198 A 
HETATM    6  C   UNL     1     -42.096  54.331 -50.323  1.00  0.00     0.266 A 
HETATM    7  O   UNL     1     -42.000  54.371 -49.104  1.00  0.00    -0.269 OA
HETATM    8  N   UNL     1     -41.218  53.670 -51.176  1.00  0.00    -0.323 N 
HETATM    9  C   UNL     1     -43.476  54.643 -53.799  1.00  0.00     0.013 A 
HETATM   10  C   UNL     1     -42.872  54.102 -54.936  1.00  0.00     0.001 A 
HETATM   11  C   UNL     1     -41.673  53.370 -54.840  1.00  0.00     0.009 A 
HETATM   12  H   UNL     1     -40.401  53.184 -50.842  1.00  0.00     0.169 HD
ENDROOT
BRANCH   5  13
HETATM   13  O   UNL     1     -44.498  54.306 -50.864  1.00  0.00    -0.371 OA
HETATM   14  H   UNL     1     -45.167  54.852 -51.313  1.00  0.00     0.212 HD
ENDBRANCH   5  13
BRANCH   5  15
HETATM   15  C   UNL     1     -43.304  56.422 -51.129  1.00  0.00     0.018 A 
HETATM   16  C   UNL     1     -42.232  57.388 -51.020  1.00  0.00     0.002 A 
HETATM   17  C   UNL     1     -42.812  58.659 -50.952  1.00  0.00     0.043 A 
HETATM   18  C   UNL     1     -40.820  57.317 -50.973  1.00  0.00     0.014 A 
HETATM   19  C   UNL     1     -42.066  59.840 -50.849  1.00  0.00     0.030 A 
HETATM   20  N   UNL     1     -44.172  58.490 -51.001  1.00  0.00    -0.365 N 
HETATM   21  C   UNL     1     -40.674  59.733 -50.821  1.00  0.00     0.002 A 
HETATM   22  C   UNL     1     -40.058  58.489 -50.883  1.00  0.00     0.001 A 
HETATM   23  H   UNL     1     -44.844  59.243 -50.957  1.00  0.00     0.165 HD
HETATM   24  C   UNL     1     -44.479  57.165 -51.113  1.00  0.00     0.100 A 
ENDBRANCH   5  15
TORSDOF 2
ENDMDL
MODEL 5
REMARK VINA RESULT:      -7.8      2.249      3.206
REMARK  2 active torsions:
REMARK  status: ('A' for Active; 'I' for Inactive)
REMARK    1  A    between atoms: C_5  and  O_6 
REMARK    2  A    between atoms: C_5  and  C_7 
ROOT
HETATM    1  C   UNL     1     -41.677  59.260 -52.395  1.00  0.00     0.050 C 
HETATM    2  C   UNL     1     -42.254  57.897 -52.184  1.00  0.00    -0.035 A 
HETATM    3  C   UNL     1     -41.782  56.776 -52.849  1.00  0.00     0.051 A 
HETATM    4  C   UNL     1     -42.303  55.490 -52.634  1.00  0.00     0.018 A 
HETATM    5  C   UNL     1     -41.594  54.506 -53.528  1.00  0.00     0.198 A 
HETATM    6  C   UNL     1     -40.576  55.434 -54.271  1.00  0.00     0.266 A 
HETATM    7  O   UNL     1     -39.805  55.116 -55.167  1.00  0.00    -0.269 OA
HETATM    8  N   UNL     1     -40.762  56.726 -53.792  1.00  0.00    -0.323 N 
HETATM    9  C   UNL     1     -43.336  55.295 -51.731  1.00  0.00     0.013 A 
HETATM   10  C   UNL     1     -43.814  56.403 -51.028  1.00  0.00     0.001 A 
HETATM   11  C   UNL     1     -43.277  57.686 -51.248  1.00  0.00     0.009 A 
HETATM   12  H   UNL     1     -40.239  57.514 -54.142  1.00  0.00     0.169 HD
ENDROOT
BRANCH   5  13
HETATM   13  O   UNL     1     -42.538  53.953 -54.441  1.00  0.00    -0.371 OA
HETATM   14  H   UNL     1     -43.323  53.764 -53.898  1.00  0.00     0.212 HD
ENDBRANCH   5  13
BRANCH   5  15
HETATM   15  C   UNL     1     -40.891  53.451 -52.705  1.00  0.00     0.018 A 
HETATM   16  C   UNL     1     -40.460  52.118 -53.067  1.00  0.00     0.002 A 
HETATM   17  C   UNL     1     -39.895  51.532 -51.930  1.00  0.00     0.043 A 
HETATM   18  C   UNL     1     -40.489  51.342 -54.249  1.00  0.00     0.014 A 
HETATM   19  C   UNL     1     -39.360  50.238 -51.918  1.00  0.00     0.030 A 
HETATM   20  N   UNL     1     -39.984  52.447 -50.913  1.00  0.00    -0.365 N 
HETATM   21  C   UNL     1     -39.391  49.506 -53.107  1.00  0.00     0.002 A 
HETATM   22  C   UNL     1     -39.947  50.050 -54.258  1.00  0.00     0.001 A 
HETATM   23  H   UNL     1     -39.663  52.285 -49.968  1.00  0.00     0.165 HD
HETATM   24  C   UNL     1     -40.569  53.595 -51.360  1.00  0.00     0.100 A 
ENDBRANCH   5  15
TORSDOF 2
ENDMDL
MODEL 6
REMARK VINA RESULT:      -7.7      1.824      2.283
REMARK  2 active torsions:
REMARK  status: ('A' for Active; 'I' for Inactive)
REMARK    1  A    between atoms: C_5  and  O_6 
REMARK    2  A    between atoms: C_5  and  C_7 
ROOT
HETATM    1  C   UNL     1     -45.035  59.457 -51.247  1.00  0.00     0.050 C 
HETATM    2  C   UNL     1     -43.706  58.802 -51.445  1.00  0.00    -0.035 A 
HETATM    3  C   UNL     1     -43.501  57.449 -51.228  1.00  0.00     0.051 A 
HETATM    4  C   UNL     1     -42.262  56.824 -51.439  1.00  0.00     0.018 A 
HETATM    5  C   UNL     1     -42.370  55.364 -51.086  1.00  0.00     0.198 A 
HETATM    6  C   UNL     1     -43.871  55.254 -50.660  1.00  0.00     0.266 A 
HETATM    7  O   UNL     1     -44.442  54.267 -50.214  1.00  0.00    -0.269 OA
HETATM    8  N   UNL     1     -44.437  56.517 -50.792  1.00  0.00    -0.323 N 
HETATM    9  C   UNL     1     -41.172  57.560 -51.876  1.00  0.00     0.013 A 
HETATM   10  C   UNL     1     -41.356  58.922 -52.127  1.00  0.00     0.001 A 
HETATM   11  C   UNL     1     -42.607  59.533 -51.919  1.00  0.00     0.009 A 
HETATM   12  H   UNL     1     -45.396  56.710 -50.548  1.00  0.00     0.169 HD
ENDROOT
BRANCH   5  13
HETATM   13  O   UNL     1     -41.508  55.093 -49.985  1.00  0.00    -0.371 OA
HETATM   14  H   UNL     1     -41.351  54.133 -50.026  1.00  0.00     0.212 HD
ENDBRANCH   5  13
BRANCH   5  15
HETATM   15  C   UNL     1     -42.066  54.503 -52.290  1.00  0.00     0.018 A 
HETATM   16  C   UNL     1     -41.113  53.425 -52.452  1.00  0.00     0.002 A 
HETATM   17  C   UNL     1     -41.196  52.981 -53.775  1.00  0.00     0.043 A 
HETATM   18  C   UNL     1     -40.184  52.775 -51.607  1.00  0.00     0.014 A 
HETATM   19  C   UNL     1     -40.417  51.934 -54.285  1.00  0.00     0.030 A 
HETATM   20  N   UNL     1     -42.139  53.751 -54.406  1.00  0.00    -0.365 N 
HETATM   21  C   UNL     1     -39.522  51.304 -53.419  1.00  0.00     0.002 A 
HETATM   22  C   UNL     1     -39.406  51.718 -52.097  1.00  0.00     0.001 A 
HETATM   23  H   UNL     1     -42.397  53.657 -55.379  1.00  0.00     0.165 HD
HETATM   24  C   UNL     1     -42.669  54.656 -53.533  1.00  0.00     0.100 A 
ENDBRANCH   5  15
TORSDOF 2
ENDMDL
MODEL 7
REMARK VINA RESULT:      -7.6      1.887      5.376
REMARK  2 active torsions:
REMARK  status: ('A' for Active; 'I' for Inactive)
REMARK    1  A    between atoms: C_5  and  O_6 
REMARK    2  A    between atoms: C_5  and  C_7 
ROOT
HETATM    1  C   UNL     1     -39.175  51.490 -52.402  1.00  0.00     0.050 C 
HETATM    2  C   UNL     1     -40.304  52.428 -52.686  1.00  0.00    -0.035 A 
HETATM    3  C   UNL     1     -40.869  53.234 -51.711  1.00  0.00     0.051 A 
HETATM    4  C   UNL     1     -41.911  54.135 -51.979  1.00  0.00     0.018 A 
HETATM    5  C   UNL     1     -42.312  54.832 -50.705  1.00  0.00     0.198 A 
HETATM    6  C   UNL     1     -41.321  54.198 -49.675  1.00  0.00     0.266 A 
HETATM    7  O   UNL     1     -41.289  54.388 -48.466  1.00  0.00    -0.269 OA
HETATM    8  N   UNL     1     -40.521  53.294 -50.366  1.00  0.00    -0.323 N 
HETATM    9  C   UNL     1     -42.427  54.247 -53.260  1.00  0.00     0.013 A 
HETATM   10  C   UNL     1     -41.860  53.466 -54.269  1.00  0.00     0.001 A 
HETATM   11  C   UNL     1     -40.809  52.572 -53.987  1.00  0.00     0.009 A 
HETATM   12  H   UNL     1     -39.818  52.734 -49.910  1.00  0.00     0.169 HD
ENDROOT
BRANCH   5  13
HETATM   13  O   UNL     1     -43.658  54.484 -50.396  1.00  0.00    -0.371 OA
HETATM   14  H   UNL     1     -44.005  54.092 -51.216  1.00  0.00     0.212 HD
ENDBRANCH   5  13
BRANCH   5  15
HETATM   15  C   UNL     1     -42.110  56.324 -50.830  1.00  0.00     0.018 A 
HETATM   16  C   UNL     1     -43.010  57.352 -51.307  1.00  0.00     0.002 A 
HETATM   17  C   UNL     1     -42.326  58.571 -51.258  1.00  0.00     0.043 A 
HETATM   18  C   UNL     1     -44.344  57.377 -51.778  1.00  0.00     0.014 A 
HETATM   19  C   UNL     1     -42.899  59.791 -51.641  1.00  0.00     0.030 A 
HETATM   20  N   UNL     1     -41.064  58.312 -50.790  1.00  0.00    -0.365 N 
HETATM   21  C   UNL     1     -44.223  59.779 -52.085  1.00  0.00     0.002 A 
HETATM   22  C   UNL     1     -44.937  58.590 -52.153  1.00  0.00     0.001 A 
HETATM   23  H   UNL     1     -40.345  59.011 -50.664  1.00  0.00     0.165 HD
HETATM   24  C   UNL     1     -40.923  56.980 -50.525  1.00  0.00     0.100 A 
ENDBRANCH   5  15
TORSDOF 2
ENDMDL
MODEL 8
REMARK VINA RESULT:      -7.3      2.874      3.695
REMARK  2 active torsions:
REMARK  status: ('A' for Active; 'I' for Inactive)
REMARK    1  A    between atoms: C_5  and  O_6 
REMARK    2  A    between atoms: C_5  and  C_7 
ROOT
HETATM    1  C   UNL     1     -43.299  61.367 -50.059  1.00  0.00     0.050 C 
HETATM    2  C   UNL     1     -43.644  60.148 -50.852  1.00  0.00    -0.035 A 
HETATM    3  C   UNL     1     -42.714  59.473 -51.627  1.00  0.00     0.051 A 
HETATM    4  C   UNL     1     -43.027  58.312 -52.352  1.00  0.00     0.018 A 
HETATM    5  C   UNL     1     -41.808  57.847 -53.104  1.00  0.00     0.198 A 
HETATM    6  C   UNL     1     -40.748  58.915 -52.677  1.00  0.00     0.266 A 
HETATM    7  O   UNL     1     -39.597  59.016 -53.080  1.00  0.00    -0.269 OA
HETATM    8  N   UNL     1     -41.376  59.803 -51.810  1.00  0.00    -0.323 N 
HETATM    9  C   UNL     1     -44.312  57.794 -52.322  1.00  0.00     0.013 A 
HETATM   10  C   UNL     1     -45.264  58.439 -51.530  1.00  0.00     0.001 A 
HETATM   11  C   UNL     1     -44.933  59.598 -50.801  1.00  0.00     0.009 A 
HETATM   12  H   UNL     1     -40.903  60.603 -51.418  1.00  0.00     0.169 HD
ENDROOT
BRANCH   5  13
HETATM   13  O   UNL     1     -42.074  57.924 -54.501  1.00  0.00    -0.371 OA
HETATM   14  H   UNL     1     -41.776  58.814 -54.759  1.00  0.00     0.212 HD
ENDBRANCH   5  13
BRANCH   5  15
HETATM   15  C   UNL     1     -41.411  56.457 -52.662  1.00  0.00     0.018 A 
HETATM   16  C   UNL     1     -40.985  55.315 -53.444  1.00  0.00     0.002 A 
HETATM   17  C   UNL     1     -40.772  54.252 -52.559  1.00  0.00     0.043 A 
HETATM   18  C   UNL     1     -40.757  55.069 -54.817  1.00  0.00     0.014 A 
HETATM   19  C   UNL     1     -40.342  52.985 -52.970  1.00  0.00     0.030 A 
HETATM   20  N   UNL     1     -41.063  54.707 -51.298  1.00  0.00    -0.365 N 
HETATM   21  C   UNL     1     -40.110  52.783 -54.332  1.00  0.00     0.002 A 
HETATM   22  C   UNL     1     -40.314  53.811 -55.244  1.00  0.00     0.001 A 
HETATM   23  H   UNL     1     -41.007  54.144 -50.460  1.00  0.00     0.165 HD
HETATM   24  C   UNL     1     -41.438  56.018 -51.344  1.00  0.00     0.100 A 
ENDBRANCH   5  15
TORSDOF 2
ENDMDL
MODEL 9
REMARK VINA RESULT:      -7.2     14.956     16.878
REMARK  2 active torsions:
REMARK  status: ('A' for Active; 'I' for Inactive)
REMARK    1  A    between atoms: C_5  and  O_6 
REMARK    2  A    between atoms: C_5  and  C_7 
ROOT
HETATM    1  C   UNL     1     -31.821  40.425 -51.424  1.00  0.00     0.050 C 
HETATM    2  C   UNL     1     -32.630  39.837 -52.535  1.00  0.00    -0.035 A 
HETATM    3  C   UNL     1     -33.824  40.395 -52.965  1.00  0.00     0.051 A 
HETATM    4  C   UNL     1     -34.574  39.862 -54.025  1.00  0.00     0.018 A 
HETATM    5  C   UNL     1     -35.821  40.683 -54.220  1.00  0.00     0.198 A 
HETATM    6  C   UNL     1     -35.652  41.778 -53.116  1.00  0.00     0.266 A 
HETATM    7  O   UNL     1     -36.450  42.657 -52.818  1.00  0.00    -0.269 OA
HETATM    8  N   UNL     1     -34.454  41.525 -52.456  1.00  0.00    -0.323 N 
HETATM    9  C   UNL     1     -34.138  38.726 -54.688  1.00  0.00     0.013 A 
HETATM   10  C   UNL     1     -32.926  38.156 -54.292  1.00  0.00     0.001 A 
HETATM   11  C   UNL     1     -32.180  38.707 -53.233  1.00  0.00     0.009 A 
HETATM   12  H   UNL     1     -34.135  42.082 -51.678  1.00  0.00     0.169 HD
ENDROOT
BRANCH   5  13
HETATM   13  O   UNL     1     -36.956  39.864 -53.953  1.00  0.00    -0.371 OA
HETATM   14  H   UNL     1     -37.454  40.349 -53.272  1.00  0.00     0.212 HD
ENDBRANCH   5  13
BRANCH   5  15
HETATM   15  C   UNL     1     -35.849  41.285 -55.605  1.00  0.00     0.018 A 
HETATM   16  C   UNL     1     -36.681  40.965 -56.746  1.00  0.00     0.002 A 
HETATM   17  C   UNL     1     -36.282  41.788 -57.805  1.00  0.00     0.043 A 
HETATM   18  C   UNL     1     -37.738  40.059 -56.993  1.00  0.00     0.014 A 
HETATM   19  C   UNL     1     -36.881  41.756 -59.071  1.00  0.00     0.030 A 
HETATM   20  N   UNL     1     -35.249  42.566 -57.350  1.00  0.00    -0.365 N 
HETATM   21  C   UNL     1     -37.932  40.860 -59.274  1.00  0.00     0.002 A 
HETATM   22  C   UNL     1     -38.356  40.023 -58.250  1.00  0.00     0.001 A 
HETATM   23  H   UNL     1     -34.757  43.249 -57.911  1.00  0.00     0.165 HD
HETATM   24  C   UNL     1     -34.985  42.282 -56.042  1.00  0.00     0.100 A 
ENDBRANCH   5  15
TORSDOF 2
ENDMDL
MODEL 10
REMARK VINA RESULT:      -7.2     15.015     16.100
REMARK  2 active torsions:
REMARK  status: ('A' for Active; 'I' for Inactive)
REMARK    1  A    between atoms: C_5  and  O_6 
REMARK    2  A    between atoms: C_5  and  C_7 
ROOT
HETATM    1  C   UNL     1     -38.841  40.785 -56.984  1.00  0.00     0.050 C 
HETATM    2  C   UNL     1     -37.492  41.325 -56.632  1.00  0.00    -0.035 A 
HETATM    3  C   UNL     1     -37.000  41.317 -55.337  1.00  0.00     0.051 A 
HETATM    4  C   UNL     1     -35.723  41.799 -55.006  1.00  0.00     0.018 A 
HETATM    5  C   UNL     1     -35.509  41.672 -53.521  1.00  0.00     0.198 A 
HETATM    6  C   UNL     1     -36.857  41.024 -53.063  1.00  0.00     0.266 A 
HETATM    7  O   UNL     1     -37.208  40.780 -51.916  1.00  0.00    -0.269 OA
HETATM    8  N   UNL     1     -37.644  40.850 -54.196  1.00  0.00    -0.323 N 
HETATM    9  C   UNL     1     -34.895  42.319 -55.988  1.00  0.00     0.013 A 
HETATM   10  C   UNL     1     -35.356  42.318 -57.306  1.00  0.00     0.001 A 
HETATM   11  C   UNL     1     -36.635  41.823 -57.625  1.00  0.00     0.009 A 
HETATM   12  H   UNL     1     -38.578  40.473 -54.156  1.00  0.00     0.169 HD
ENDROOT
BRANCH   5  13
HETATM   13  O   UNL     1     -35.357  42.975 -52.966  1.00  0.00    -0.371 OA
HETATM   14  H   UNL     1     -35.309  43.566 -53.737  1.00  0.00     0.212 HD
ENDBRANCH   5  13
BRANCH   5  15
HETATM   15  C   UNL     1     -34.330  40.773 -53.229  1.00  0.00     0.018 A 
HETATM   16  C   UNL     1     -33.659  40.488 -51.979  1.00  0.00     0.002 A 
HETATM   17  C   UNL     1     -32.597  39.620 -52.255  1.00  0.00     0.043 A 
HETATM   18  C   UNL     1     -33.843  40.876 -50.632  1.00  0.00     0.014 A 
HETATM   19  C   UNL     1     -31.733  39.124 -51.271  1.00  0.00     0.030 A 
HETATM   20  N   UNL     1     -32.600  39.390 -53.607  1.00  0.00    -0.365 N 
HETATM   21  C   UNL     1     -31.954  39.517 -49.950  1.00  0.00     0.002 A 
HETATM   22  C   UNL     1     -32.995  40.380 -49.632  1.00  0.00     0.001 A 
HETATM   23  H   UNL     1     -31.931  38.806 -54.090  1.00  0.00     0.165 HD
HETATM   24  C   UNL     1     -33.628  40.065 -54.198  1.00  0.00     0.100 A 
ENDBRANCH   5  15
TORSDOF 2
ENDMDL
