MODEL 1
REMARK VINA RESULT:      -8.0      0.000      0.000
REMARK  8 active torsions:
REMARK  status: ('A' for Active; 'I' for Inactive)
REMARK    1  A    between atoms: C_2  and  C_3 
REMARK    2  A    between atoms: C_3  and  O_4 
REMARK    3  A    between atoms: O_4  and  C_5 
REMARK    4  A    between atoms: C_6  and  C_7 
REMARK    5  A    between atoms: C_11  and  C_12 
REMARK       I    between atoms: C_12  and  N_13 
REMARK    6  A    between atoms: N_13  and  N_14 
REMARK    7  A    between atoms: C_15  and  C_16 
REMARK    8  A    between atoms: C_18  and  O_19 
ROOT
HETATM    1  C   UNL     1     -40.704  53.248 -54.434  1.00  0.00     0.092 A 
HETATM    2  N   UNL     1     -39.847  54.198 -54.833  1.00  0.00    -0.174 NA
HETATM    3  N   UNL     1     -40.615  55.099 -55.463  1.00  0.00    -0.272 N 
HETATM    4  H   UNL     1     -40.176  55.917 -55.877  1.00  0.00     0.189 HD
HETATM    5  C   UNL     1     -41.954  54.818 -55.433  1.00  0.00     0.121 A 
HETATM    6  C   UNL     1     -42.038  53.599 -54.790  1.00  0.00     0.071 A 
ENDROOT
BRANCH   5   7
HETATM    7  C   UNL     1     -42.924  55.726 -55.995  1.00  0.00     0.289 C 
HETATM    8  N   UNL     1     -42.820  55.903 -57.368  1.00  0.00    -0.242 N 
HETATM    9  H   UNL     1     -42.109  55.411 -57.892  1.00  0.00     0.192 HD
HETATM   10  O   UNL     1     -43.777  56.260 -55.291  1.00  0.00    -0.264 OA
BRANCH   8  11
HETATM   11  N   UNL     1     -43.743  56.655 -58.037  1.00  0.00    -0.184 NA
HETATM   12  C   UNL     1     -44.518  56.002 -58.842  1.00  0.00     0.150 C 
BRANCH  12  13
HETATM   13  C   UNL     1     -45.582  56.678 -59.611  1.00  0.00    -0.014 A 
HETATM   14  C   UNL     1     -46.170  56.052 -60.714  1.00  0.00     0.049 A 
HETATM   15  C   UNL     1     -47.158  56.724 -61.425  1.00  0.00     0.066 A 
HETATM   16  C   UNL     1     -47.565  58.001 -61.052  1.00  0.00     0.036 A 
HETATM   17  C   UNL     1     -46.976  58.623 -59.950  1.00  0.00     0.004 A 
HETATM   18  C   UNL     1     -45.982  57.962 -59.225  1.00  0.00     0.013 A 
BRANCH  15  19
HETATM   19  O   UNL     1     -47.761  56.157 -62.509  1.00  0.00    -0.361 OA
HETATM   20  H   UNL     1     -47.861  55.204 -62.346  1.00  0.00     0.217 HD
ENDBRANCH  15  19
ENDBRANCH  12  13
ENDBRANCH   8  11
ENDBRANCH   5   7
BRANCH   1  21
HETATM   21  C   UNL     1     -40.283  52.076 -53.666  1.00  0.00     0.028 A 
HETATM   22  C   UNL     1     -39.970  52.139 -52.295  1.00  0.00     0.081 A 
HETATM   23  C   UNL     1     -39.562  50.973 -51.631  1.00  0.00     0.038 A 
HETATM   24  C   UNL     1     -39.482  49.754 -52.310  1.00  0.00     0.003 A 
HETATM   25  C   UNL     1     -39.798  49.688 -53.663  1.00  0.00     0.001 A 
HETATM   26  C   UNL     1     -40.195  50.843 -54.337  1.00  0.00     0.017 A 
BRANCH  22  27
HETATM   27  O   UNL     1     -40.012  53.368 -51.683  1.00  0.00    -0.350 OA
BRANCH  27  28
HETATM   28  C   UNL     1     -40.995  53.535 -50.661  1.00  0.00     0.175 C 
BRANCH  28  29
HETATM   29  C   UNL     1     -42.023  54.551 -51.150  1.00  0.00     0.022 C 
HETATM   30  C   UNL     1     -41.359  55.754 -51.797  1.00  0.00     0.007 C 
ENDBRANCH  28  29
ENDBRANCH  27  28
ENDBRANCH  22  27
ENDBRANCH   1  21
TORSDOF 8
ENDMDL
MODEL 2
REMARK VINA RESULT:      -7.7      1.515      1.692
REMARK  8 active torsions:
REMARK  status: ('A' for Active; 'I' for Inactive)
REMARK    1  A    between atoms: C_2  and  C_3 
REMARK    2  A    between atoms: C_3  and  O_4 
REMARK    3  A    between atoms: O_4  and  C_5 
REMARK    4  A    between atoms: C_6  and  C_7 
REMARK    5  A    between atoms: C_11  and  C_12 
REMARK       I    between atoms: C_12  and  N_13 
REMARK    6  A    between atoms: N_13  and  N_14 
REMARK    7  A    between atoms: C_15  and  C_16 
REMARK    8  A    between atoms: C_18  and  O_19 
ROOT
HETATM    1  C   UNL     1     -40.716  53.261 -54.364  1.00  0.00     0.092 A 
HETATM    2  N   UNL     1     -39.864  54.064 -55.016  1.00  0.00    -0.174 NA
HETATM    3  N   UNL     1     -40.637  55.048 -55.500  1.00  0.00    -0.272 N 
HETATM    4  H   UNL     1     -40.209  55.782 -56.058  1.00  0.00     0.189 HD
HETATM    5  C   UNL     1     -41.953  54.965 -55.133  1.00  0.00     0.121 A 
HETATM    6  C   UNL     1     -42.037  53.790 -54.412  1.00  0.00     0.071 A 
ENDROOT
BRANCH   5   7
HETATM    7  C   UNL     1     -42.901  55.987 -55.503  1.00  0.00     0.289 C 
HETATM    8  N   UNL     1     -42.630  56.614 -56.711  1.00  0.00    -0.242 N 
HETATM    9  H   UNL     1     -41.824  56.341 -57.257  1.00  0.00     0.192 HD
HETATM   10  O   UNL     1     -43.875  56.236 -54.797  1.00  0.00    -0.264 OA
BRANCH   8  11
HETATM   11  N   UNL     1     -43.507  57.525 -57.226  1.00  0.00    -0.184 NA
HETATM   12  C   UNL     1     -44.207  57.119 -58.236  1.00  0.00     0.150 C 
BRANCH  12  13
HETATM   13  C   UNL     1     -45.216  57.985 -58.878  1.00  0.00    -0.014 A 
HETATM   14  C   UNL     1     -44.956  58.583 -60.114  1.00  0.00     0.049 A 
HETATM   15  C   UNL     1     -45.922  59.406 -60.683  1.00  0.00     0.066 A 
HETATM   16  C   UNL     1     -47.134  59.637 -60.040  1.00  0.00     0.036 A 
HETATM   17  C   UNL     1     -47.390  59.037 -58.806  1.00  0.00     0.004 A 
HETATM   18  C   UNL     1     -46.431  58.208 -58.221  1.00  0.00     0.013 A 
BRANCH  15  19
HETATM   19  O   UNL     1     -45.717  60.015 -61.886  1.00  0.00    -0.361 OA
HETATM   20  H   UNL     1     -45.040  60.704 -61.773  1.00  0.00     0.217 HD
ENDBRANCH  15  19
ENDBRANCH  12  13
ENDBRANCH   8  11
ENDBRANCH   5   7
BRANCH   1  21
HETATM   21  C   UNL     1     -40.279  52.063 -53.646  1.00  0.00     0.028 A 
HETATM   22  C   UNL     1     -39.906  52.085 -52.289  1.00  0.00     0.081 A 
HETATM   23  C   UNL     1     -39.486  50.896 -51.674  1.00  0.00     0.038 A 
HETATM   24  C   UNL     1     -39.452  49.695 -52.389  1.00  0.00     0.003 A 
HETATM   25  C   UNL     1     -39.827  49.670 -53.727  1.00  0.00     0.001 A 
HETATM   26  C   UNL     1     -40.236  50.847 -54.353  1.00  0.00     0.017 A 
BRANCH  22  27
HETATM   27  O   UNL     1     -39.904  53.297 -51.644  1.00  0.00    -0.350 OA
BRANCH  27  28
HETATM   28  C   UNL     1     -40.652  53.371 -50.430  1.00  0.00     0.175 C 
BRANCH  28  29
HETATM   29  C   UNL     1     -39.886  54.256 -49.452  1.00  0.00     0.022 C 
HETATM   30  C   UNL     1     -40.334  54.027 -48.018  1.00  0.00     0.007 C 
ENDBRANCH  28  29
ENDBRANCH  27  28
ENDBRANCH  22  27
ENDBRANCH   1  21
TORSDOF 8
ENDMDL
MODEL 3
REMARK VINA RESULT:      -7.5      3.440      3.806
REMARK  8 active torsions:
REMARK  status: ('A' for Active; 'I' for Inactive)
REMARK    1  A    between atoms: C_2  and  C_3 
REMARK    2  A    between atoms: C_3  and  O_4 
REMARK    3  A    between atoms: O_4  and  C_5 
REMARK    4  A    between atoms: C_6  and  C_7 
REMARK    5  A    between atoms: C_11  and  C_12 
REMARK       I    between atoms: C_12  and  N_13 
REMARK    6  A    between atoms: N_13  and  N_14 
REMARK    7  A    between atoms: C_15  and  C_16 
REMARK    8  A    between atoms: C_18  and  O_19 
ROOT
HETATM    1  C   UNL     1     -41.813  53.966 -54.501  1.00  0.00     0.092 A 
HETATM    2  N   UNL     1     -43.137  54.082 -54.335  1.00  0.00    -0.174 NA
HETATM    3  N   UNL     1     -43.522  54.928 -55.302  1.00  0.00    -0.272 N 
HETATM    4  H   UNL     1     -44.503  55.189 -55.367  1.00  0.00     0.189 HD
HETATM    5  C   UNL     1     -42.517  55.317 -56.145  1.00  0.00     0.121 A 
HETATM    6  C   UNL     1     -41.383  54.724 -55.627  1.00  0.00     0.071 A 
ENDROOT
BRANCH   5   7
HETATM    7  C   UNL     1     -42.778  56.161 -57.286  1.00  0.00     0.289 C 
HETATM    8  N   UNL     1     -42.103  57.374 -57.271  1.00  0.00    -0.242 N 
HETATM    9  H   UNL     1     -41.485  57.603 -56.506  1.00  0.00     0.192 HD
HETATM   10  O   UNL     1     -43.521  55.793 -58.192  1.00  0.00    -0.264 OA
BRANCH   8  11
HETATM   11  N   UNL     1     -42.181  58.217 -58.342  1.00  0.00    -0.184 NA
HETATM   12  C   UNL     1     -41.783  59.430 -58.129  1.00  0.00     0.150 C 
BRANCH  12  13
HETATM   13  C   UNL     1     -41.785  60.445 -59.202  1.00  0.00    -0.014 A 
HETATM   14  C   UNL     1     -41.913  60.065 -60.541  1.00  0.00     0.049 A 
HETATM   15  C   UNL     1     -41.895  61.046 -61.526  1.00  0.00     0.066 A 
HETATM   16  C   UNL     1     -41.753  62.390 -61.196  1.00  0.00     0.036 A 
HETATM   17  C   UNL     1     -41.628  62.766 -59.858  1.00  0.00     0.004 A 
HETATM   18  C   UNL     1     -41.643  61.794 -58.856  1.00  0.00     0.013 A 
BRANCH  15  19
HETATM   19  O   UNL     1     -42.013  60.727 -62.847  1.00  0.00    -0.361 OA
HETATM   20  H   UNL     1     -41.219  60.237 -63.120  1.00  0.00     0.217 HD
ENDBRANCH  15  19
ENDBRANCH  12  13
ENDBRANCH   8  11
ENDBRANCH   5   7
BRANCH   1  21
HETATM   21  C   UNL     1     -40.985  53.096 -53.665  1.00  0.00     0.028 A 
HETATM   22  C   UNL     1     -40.642  53.420 -52.339  1.00  0.00     0.081 A 
HETATM   23  C   UNL     1     -39.834  52.539 -51.604  1.00  0.00     0.038 A 
HETATM   24  C   UNL     1     -39.385  51.342 -52.170  1.00  0.00     0.003 A 
HETATM   25  C   UNL     1     -39.729  51.016 -53.477  1.00  0.00     0.001 A 
HETATM   26  C   UNL     1     -40.523  51.889 -54.221  1.00  0.00     0.017 A 
BRANCH  22  27
HETATM   27  O   UNL     1     -41.062  54.630 -51.845  1.00  0.00    -0.350 OA
BRANCH  27  28
HETATM   28  C   UNL     1     -41.989  54.587 -50.760  1.00  0.00     0.175 C 
BRANCH  28  29
HETATM   29  C   UNL     1     -41.397  55.374 -49.595  1.00  0.00     0.022 C 
HETATM   30  C   UNL     1     -40.721  54.461 -48.586  1.00  0.00     0.007 C 
ENDBRANCH  28  29
ENDBRANCH  27  28
ENDBRANCH  22  27
ENDBRANCH   1  21
TORSDOF 8
ENDMDL
MODEL 4
REMARK VINA RESULT:      -7.5      2.721      2.985
REMARK  8 active torsions:
REMARK  status: ('A' for Active; 'I' for Inactive)
REMARK    1  A    between atoms: C_2  and  C_3 
REMARK    2  A    between atoms: C_3  and  O_4 
REMARK    3  A    between atoms: O_4  and  C_5 
REMARK    4  A    between atoms: C_6  and  C_7 
REMARK    5  A    between atoms: C_11  and  C_12 
REMARK       I    between atoms: C_12  and  N_13 
REMARK    6  A    between atoms: N_13  and  N_14 
REMARK    7  A    between atoms: C_15  and  C_16 
REMARK    8  A    between atoms: C_18  and  O_19 
ROOT
HETATM    1  C   UNL     1     -41.298  53.669 -53.866  1.00  0.00     0.092 A 
HETATM    2  N   UNL     1     -42.484  54.025 -53.354  1.00  0.00    -0.174 NA
HETATM    3  N   UNL     1     -42.738  55.223 -53.900  1.00  0.00    -0.272 N 
HETATM    4  H   UNL     1     -43.591  55.712 -53.642  1.00  0.00     0.189 HD
HETATM    5  C   UNL     1     -41.802  55.639 -54.808  1.00  0.00     0.121 A 
HETATM    6  C   UNL     1     -40.836  54.654 -54.785  1.00  0.00     0.071 A 
ENDROOT
BRANCH   5   7
HETATM    7  C   UNL     1     -41.967  56.869 -55.545  1.00  0.00     0.289 C 
HETATM    8  N   UNL     1     -42.090  56.704 -56.919  1.00  0.00    -0.242 N 
HETATM    9  H   UNL     1     -42.066  55.779 -57.325  1.00  0.00     0.192 HD
HETATM   10  O   UNL     1     -42.018  57.953 -54.971  1.00  0.00    -0.264 OA
BRANCH   8  11
HETATM   11  N   UNL     1     -42.356  57.778 -57.719  1.00  0.00    -0.184 NA
HETATM   12  C   UNL     1     -42.645  57.500 -58.949  1.00  0.00     0.150 C 
BRANCH  12  13
HETATM   13  C   UNL     1     -42.981  58.558 -59.923  1.00  0.00    -0.014 A 
HETATM   14  C   UNL     1     -41.973  59.241 -60.608  1.00  0.00     0.049 A 
HETATM   15  C   UNL     1     -42.325  60.242 -61.507  1.00  0.00     0.066 A 
HETATM   16  C   UNL     1     -43.659  60.567 -61.730  1.00  0.00     0.036 A 
HETATM   17  C   UNL     1     -44.664  59.881 -61.045  1.00  0.00     0.004 A 
HETATM   18  C   UNL     1     -44.328  58.873 -60.139  1.00  0.00     0.013 A 
BRANCH  15  19
HETATM   19  O   UNL     1     -41.379  60.940 -62.198  1.00  0.00    -0.361 OA
HETATM   20  H   UNL     1     -40.515  60.793 -61.777  1.00  0.00     0.217 HD
ENDBRANCH  15  19
ENDBRANCH  12  13
ENDBRANCH   8  11
ENDBRANCH   5   7
BRANCH   1  21
HETATM   21  C   UNL     1     -40.655  52.392 -53.556  1.00  0.00     0.028 A 
HETATM   22  C   UNL     1     -39.952  52.166 -52.357  1.00  0.00     0.081 A 
HETATM   23  C   UNL     1     -39.353  50.917 -52.138  1.00  0.00     0.038 A 
HETATM   24  C   UNL     1     -39.462  49.896 -53.086  1.00  0.00     0.003 A 
HETATM   25  C   UNL     1     -40.162  50.114 -54.268  1.00  0.00     0.001 A 
HETATM   26  C   UNL     1     -40.754  51.355 -54.502  1.00  0.00     0.017 A 
BRANCH  22  27
HETATM   27  O   UNL     1     -39.827  53.216 -51.481  1.00  0.00    -0.350 OA
BRANCH  27  28
HETATM   28  C   UNL     1     -40.564  53.116 -50.261  1.00  0.00     0.175 C 
BRANCH  28  29
HETATM   29  C   UNL     1     -40.229  54.332 -49.402  1.00  0.00     0.022 C 
HETATM   30  C   UNL     1     -40.299  54.007 -47.919  1.00  0.00     0.007 C 
ENDBRANCH  28  29
ENDBRANCH  27  28
ENDBRANCH  22  27
ENDBRANCH   1  21
TORSDOF 8
ENDMDL
MODEL 5
REMARK VINA RESULT:      -7.2      1.790      9.778
REMARK  8 active torsions:
REMARK  status: ('A' for Active; 'I' for Inactive)
REMARK    1  A    between atoms: C_2  and  C_3 
REMARK    2  A    between atoms: C_3  and  O_4 
REMARK    3  A    between atoms: O_4  and  C_5 
REMARK    4  A    between atoms: C_6  and  C_7 
REMARK    5  A    between atoms: C_11  and  C_12 
REMARK       I    between atoms: C_12  and  N_13 
REMARK    6  A    between atoms: N_13  and  N_14 
REMARK    7  A    between atoms: C_15  and  C_16 
REMARK    8  A    between atoms: C_18  and  O_19 
ROOT
HETATM    1  C   UNL     1     -44.386  58.423 -58.090  1.00  0.00     0.092 A 
HETATM    2  N   UNL     1     -43.164  58.658 -58.585  1.00  0.00    -0.174 NA
HETATM    3  N   UNL     1     -42.331  58.063 -57.718  1.00  0.00    -0.272 N 
HETATM    4  H   UNL     1     -41.329  58.123 -57.876  1.00  0.00     0.189 HD
HETATM    5  C   UNL     1     -42.959  57.383 -56.710  1.00  0.00     0.121 A 
HETATM    6  C   UNL     1     -44.303  57.625 -56.914  1.00  0.00     0.071 A 
ENDROOT
BRANCH   5   7
HETATM    7  C   UNL     1     -42.211  56.622 -55.739  1.00  0.00     0.289 C 
HETATM    8  N   UNL     1     -41.800  55.371 -56.182  1.00  0.00    -0.242 N 
HETATM    9  H   UNL     1     -42.024  55.063 -57.118  1.00  0.00     0.192 HD
HETATM   10  O   UNL     1     -41.952  57.083 -54.631  1.00  0.00    -0.264 OA
BRANCH   8  11
HETATM   11  N   UNL     1     -40.995  54.595 -55.398  1.00  0.00    -0.184 NA
HETATM   12  C   UNL     1     -41.599  53.682 -54.708  1.00  0.00     0.150 C 
BRANCH  12  13
HETATM   13  C   UNL     1     -40.854  52.750 -53.837  1.00  0.00    -0.014 A 
HETATM   14  C   UNL     1     -40.465  51.493 -54.309  1.00  0.00     0.049 A 
HETATM   15  C   UNL     1     -39.779  50.635 -53.457  1.00  0.00     0.066 A 
HETATM   16  C   UNL     1     -39.478  51.011 -52.152  1.00  0.00     0.036 A 
HETATM   17  C   UNL     1     -39.867  52.268 -51.685  1.00  0.00     0.004 A 
HETATM   18  C   UNL     1     -40.557  53.142 -52.527  1.00  0.00     0.013 A 
BRANCH  15  19
HETATM   19  O   UNL     1     -39.379  49.398 -53.868  1.00  0.00    -0.361 OA
HETATM   20  H   UNL     1     -38.769  49.502 -54.618  1.00  0.00     0.217 HD
ENDBRANCH  15  19
ENDBRANCH  12  13
ENDBRANCH   8  11
ENDBRANCH   5   7
BRANCH   1  21
HETATM   21  C   UNL     1     -45.608  58.875 -58.756  1.00  0.00     0.028 A 
HETATM   22  C   UNL     1     -46.133  58.236 -59.895  1.00  0.00     0.081 A 
HETATM   23  C   UNL     1     -47.304  58.737 -60.484  1.00  0.00     0.038 A 
HETATM   24  C   UNL     1     -47.958  59.846 -59.942  1.00  0.00     0.003 A 
HETATM   25  C   UNL     1     -47.446  60.475 -58.812  1.00  0.00     0.001 A 
HETATM   26  C   UNL     1     -46.277  59.993 -58.224  1.00  0.00     0.017 A 
BRANCH  22  27
HETATM   27  O   UNL     1     -45.427  57.183 -60.422  1.00  0.00    -0.350 OA
BRANCH  27  28
HETATM   28  C   UNL     1     -46.066  55.907 -60.384  1.00  0.00     0.175 C 
BRANCH  28  29
HETATM   29  C   UNL     1     -44.995  54.833 -60.552  1.00  0.00     0.022 C 
HETATM   30  C   UNL     1     -43.869  55.000 -59.547  1.00  0.00     0.007 C 
ENDBRANCH  28  29
ENDBRANCH  27  28
ENDBRANCH  22  27
ENDBRANCH   1  21
TORSDOF 8
ENDMDL
MODEL 6
REMARK VINA RESULT:      -7.2      6.341      8.866
REMARK  8 active torsions:
REMARK  status: ('A' for Active; 'I' for Inactive)
REMARK    1  A    between atoms: C_2  and  C_3 
REMARK    2  A    between atoms: C_3  and  O_4 
REMARK    3  A    between atoms: O_4  and  C_5 
REMARK    4  A    between atoms: C_6  and  C_7 
REMARK    5  A    between atoms: C_11  and  C_12 
REMARK       I    between atoms: C_12  and  N_13 
REMARK    6  A    between atoms: N_13  and  N_14 
REMARK    7  A    between atoms: C_15  and  C_16 
REMARK    8  A    between atoms: C_18  and  O_19 
ROOT
HETATM    1  C   UNL     1     -41.971  56.145 -52.178  1.00  0.00     0.092 A 
HETATM    2  N   UNL     1     -43.145  55.985 -51.552  1.00  0.00    -0.174 NA
HETATM    3  N   UNL     1     -43.382  57.173 -50.976  1.00  0.00    -0.272 N 
HETATM    4  H   UNL     1     -44.224  57.292 -50.419  1.00  0.00     0.189 HD
HETATM    5  C   UNL     1     -42.448  58.133 -51.257  1.00  0.00     0.121 A 
HETATM    6  C   UNL     1     -41.500  57.479 -52.019  1.00  0.00     0.071 A 
ENDROOT
BRANCH   5   7
HETATM    7  C   UNL     1     -42.597  59.487 -50.782  1.00  0.00     0.289 C 
HETATM    8  N   UNL     1     -43.881  59.814 -50.369  1.00  0.00    -0.242 N 
HETATM    9  H   UNL     1     -44.620  59.126 -50.410  1.00  0.00     0.192 HD
HETATM   10  O   UNL     1     -41.638  60.253 -50.734  1.00  0.00    -0.264 OA
BRANCH   8  11
HETATM   11  N   UNL     1     -44.131  61.030 -49.800  1.00  0.00    -0.184 NA
HETATM   12  C   UNL     1     -45.125  61.065 -48.970  1.00  0.00     0.150 C 
BRANCH  12  13
HETATM   13  C   UNL     1     -45.495  62.305 -48.258  1.00  0.00    -0.014 A 
HETATM   14  C   UNL     1     -46.766  62.448 -47.694  1.00  0.00     0.049 A 
HETATM   15  C   UNL     1     -47.086  63.634 -47.044  1.00  0.00     0.066 A 
HETATM   16  C   UNL     1     -46.163  64.671 -46.950  1.00  0.00     0.036 A 
HETATM   17  C   UNL     1     -44.895  64.524 -47.514  1.00  0.00     0.004 A 
HETATM   18  C   UNL     1     -44.556  63.339 -48.170  1.00  0.00     0.013 A 
BRANCH  15  19
HETATM   19  O   UNL     1     -48.313  63.825 -46.478  1.00  0.00    -0.361 OA
HETATM   20  H   UNL     1     -48.950  63.235 -46.915  1.00  0.00     0.217 HD
ENDBRANCH  15  19
ENDBRANCH  12  13
ENDBRANCH   8  11
ENDBRANCH   5   7
BRANCH   1  21
HETATM   21  C   UNL     1     -41.349  55.086 -52.973  1.00  0.00     0.028 A 
HETATM   22  C   UNL     1     -41.187  53.773 -52.494  1.00  0.00     0.081 A 
HETATM   23  C   UNL     1     -40.570  52.816 -53.313  1.00  0.00     0.038 A 
HETATM   24  C   UNL     1     -40.134  53.150 -54.599  1.00  0.00     0.003 A 
HETATM   25  C   UNL     1     -40.300  54.445 -55.077  1.00  0.00     0.001 A 
HETATM   26  C   UNL     1     -40.903  55.408 -54.268  1.00  0.00     0.017 A 
BRANCH  22  27
HETATM   27  O   UNL     1     -41.582  53.506 -51.207  1.00  0.00    -0.350 OA
BRANCH  27  28
HETATM   28  C   UNL     1     -40.576  53.011 -50.323  1.00  0.00     0.175 C 
BRANCH  28  29
HETATM   29  C   UNL     1     -39.977  54.196 -49.571  1.00  0.00     0.022 C 
HETATM   30  C   UNL     1     -41.029  54.936 -48.761  1.00  0.00     0.007 C 
ENDBRANCH  28  29
ENDBRANCH  27  28
ENDBRANCH  22  27
ENDBRANCH   1  21
TORSDOF 8
ENDMDL
MODEL 7
REMARK VINA RESULT:      -7.0      2.316     10.054
REMARK  8 active torsions:
REMARK  status: ('A' for Active; 'I' for Inactive)
REMARK    1  A    between atoms: C_2  and  C_3 
REMARK    2  A    between atoms: C_3  and  O_4 
REMARK    3  A    between atoms: O_4  and  C_5 
REMARK    4  A    between atoms: C_6  and  C_7 
REMARK    5  A    between atoms: C_11  and  C_12 
REMARK       I    between atoms: C_12  and  N_13 
REMARK    6  A    between atoms: N_13  and  N_14 
REMARK    7  A    between atoms: C_15  and  C_16 
REMARK    8  A    between atoms: C_18  and  O_19 
ROOT
HETATM    1  C   UNL     1     -43.158  57.485 -59.002  1.00  0.00     0.092 A 
HETATM    2  N   UNL     1     -43.630  56.283 -59.358  1.00  0.00    -0.174 NA
HETATM    3  N   UNL     1     -43.452  55.518 -58.270  1.00  0.00    -0.272 N 
HETATM    4  H   UNL     1     -43.723  54.539 -58.305  1.00  0.00     0.189 HD
HETATM    5  C   UNL     1     -42.948  56.187 -57.187  1.00  0.00     0.121 A 
HETATM    6  C   UNL     1     -42.721  57.469 -57.647  1.00  0.00     0.071 A 
ENDROOT
BRANCH   5   7
HETATM    7  C   UNL     1     -42.772  55.530 -55.915  1.00  0.00     0.289 C 
HETATM    8  N   UNL     1     -41.552  54.884 -55.764  1.00  0.00    -0.242 N 
HETATM    9  H   UNL     1     -40.870  54.903 -56.510  1.00  0.00     0.192 HD
HETATM   10  O   UNL     1     -43.639  55.581 -55.047  1.00  0.00    -0.264 OA
BRANCH   8  11
HETATM   11  N   UNL     1     -41.219  54.314 -54.569  1.00  0.00    -0.184 NA
HETATM   12  C   UNL     1     -40.820  53.084 -54.628  1.00  0.00     0.150 C 
BRANCH  12  13
HETATM   13  C   UNL     1     -40.401  52.347 -53.419  1.00  0.00    -0.014 A 
HETATM   14  C   UNL     1     -40.540  52.922 -52.152  1.00  0.00     0.049 A 
HETATM   15  C   UNL     1     -40.121  52.206 -51.036  1.00  0.00     0.066 A 
HETATM   16  C   UNL     1     -39.570  50.934 -51.166  1.00  0.00     0.036 A 
HETATM   17  C   UNL     1     -39.434  50.364 -52.433  1.00  0.00     0.004 A 
HETATM   18  C   UNL     1     -39.850  51.069 -53.564  1.00  0.00     0.013 A 
BRANCH  15  19
HETATM   19  O   UNL     1     -40.233  52.722 -49.779  1.00  0.00    -0.361 OA
HETATM   20  H   UNL     1     -39.374  52.637 -49.331  1.00  0.00     0.217 HD
ENDBRANCH  15  19
ENDBRANCH  12  13
ENDBRANCH   8  11
ENDBRANCH   5   7
BRANCH   1  21
HETATM   21  C   UNL     1     -43.192  58.643 -59.896  1.00  0.00     0.028 A 
HETATM   22  C   UNL     1     -44.327  59.465 -60.032  1.00  0.00     0.081 A 
HETATM   23  C   UNL     1     -44.285  60.550 -60.919  1.00  0.00     0.038 A 
HETATM   24  C   UNL     1     -43.128  60.830 -61.652  1.00  0.00     0.003 A 
HETATM   25  C   UNL     1     -42.003  60.024 -61.514  1.00  0.00     0.001 A 
HETATM   26  C   UNL     1     -42.036  58.936 -60.643  1.00  0.00     0.017 A 
BRANCH  22  27
HETATM   27  O   UNL     1     -45.456  59.119 -59.332  1.00  0.00    -0.350 OA
BRANCH  27  28
HETATM   28  C   UNL     1     -46.568  58.665 -60.105  1.00  0.00     0.175 C 
BRANCH  28  29
HETATM   29  C   UNL     1     -46.950  57.270 -59.616  1.00  0.00     0.022 C 
HETATM   30  C   UNL     1     -47.035  56.277 -60.762  1.00  0.00     0.007 C 
ENDBRANCH  28  29
ENDBRANCH  27  28
ENDBRANCH  22  27
ENDBRANCH   1  21
TORSDOF 8
ENDMDL
MODEL 8
REMARK VINA RESULT:      -7.0      3.229      9.999
REMARK  8 active torsions:
REMARK  status: ('A' for Active; 'I' for Inactive)
REMARK    1  A    between atoms: C_2  and  C_3 
REMARK    2  A    between atoms: C_3  and  O_4 
REMARK    3  A    between atoms: O_4  and  C_5 
REMARK    4  A    between atoms: C_6  and  C_7 
REMARK    5  A    between atoms: C_11  and  C_12 
REMARK       I    between atoms: C_12  and  N_13 
REMARK    6  A    between atoms: N_13  and  N_14 
REMARK    7  A    between atoms: C_15  and  C_16 
REMARK    8  A    between atoms: C_18  and  O_19 
ROOT
HETATM    1  C   UNL     1     -43.205  58.003 -58.802  1.00  0.00     0.092 A 
HETATM    2  N   UNL     1     -42.599  56.943 -59.354  1.00  0.00    -0.174 NA
HETATM    3  N   UNL     1     -42.296  56.152 -58.314  1.00  0.00    -0.272 N 
HETATM    4  H   UNL     1     -41.805  55.279 -58.485  1.00  0.00     0.189 HD
HETATM    5  C   UNL     1     -42.742  56.614 -57.105  1.00  0.00     0.121 A 
HETATM    6  C   UNL     1     -43.316  57.836 -57.393  1.00  0.00     0.071 A 
ENDROOT
BRANCH   5   7
HETATM    7  C   UNL     1     -42.570  55.844 -55.898  1.00  0.00     0.289 C 
HETATM    8  N   UNL     1     -41.355  55.177 -55.809  1.00  0.00    -0.242 N 
HETATM    9  H   UNL     1     -40.675  55.257 -56.552  1.00  0.00     0.192 HD
HETATM   10  O   UNL     1     -43.435  55.825 -55.026  1.00  0.00    -0.264 OA
BRANCH   8  11
HETATM   11  N   UNL     1     -41.025  54.499 -54.671  1.00  0.00    -0.184 NA
HETATM   12  C   UNL     1     -40.687  53.260 -54.836  1.00  0.00     0.150 C 
BRANCH  12  13
HETATM   13  C   UNL     1     -40.278  52.411 -53.699  1.00  0.00    -0.014 A 
HETATM   14  C   UNL     1     -39.967  51.063 -53.894  1.00  0.00     0.049 A 
HETATM   15  C   UNL     1     -39.600  50.288 -52.799  1.00  0.00     0.066 A 
HETATM   16  C   UNL     1     -39.540  50.837 -51.522  1.00  0.00     0.036 A 
HETATM   17  C   UNL     1     -39.851  52.185 -51.331  1.00  0.00     0.004 A 
HETATM   18  C   UNL     1     -40.221  52.977 -52.420  1.00  0.00     0.013 A 
BRANCH  15  19
HETATM   19  O   UNL     1     -39.289  48.968 -52.936  1.00  0.00    -0.361 OA
HETATM   20  H   UNL     1     -40.104  48.476 -53.137  1.00  0.00     0.217 HD
ENDBRANCH  15  19
ENDBRANCH  12  13
ENDBRANCH   8  11
ENDBRANCH   5   7
BRANCH   1  21
HETATM   21  C   UNL     1     -43.736  59.111 -59.597  1.00  0.00     0.028 A 
HETATM   22  C   UNL     1     -42.989  60.269 -59.882  1.00  0.00     0.081 A 
HETATM   23  C   UNL     1     -43.574  61.293 -60.641  1.00  0.00     0.038 A 
HETATM   24  C   UNL     1     -44.877  61.166 -61.128  1.00  0.00     0.003 A 
HETATM   25  C   UNL     1     -45.616  60.020 -60.855  1.00  0.00     0.001 A 
HETATM   26  C   UNL     1     -45.049  58.999 -60.092  1.00  0.00     0.017 A 
BRANCH  22  27
HETATM   27  O   UNL     1     -41.732  60.371 -59.337  1.00  0.00    -0.350 OA
BRANCH  27  28
HETATM   28  C   UNL     1     -41.568  61.336 -58.297  1.00  0.00     0.175 C 
BRANCH  28  29
HETATM   29  C   UNL     1     -40.257  62.079 -58.540  1.00  0.00     0.022 C 
HETATM   30  C   UNL     1     -40.317  62.927 -59.798  1.00  0.00     0.007 C 
ENDBRANCH  28  29
ENDBRANCH  27  28
ENDBRANCH  22  27
ENDBRANCH   1  21
TORSDOF 8
ENDMDL
MODEL 9
REMARK VINA RESULT:      -7.0      4.529      6.439
REMARK  8 active torsions:
REMARK  status: ('A' for Active; 'I' for Inactive)
REMARK    1  A    between atoms: C_2  and  C_3 
REMARK    2  A    between atoms: C_3  and  O_4 
REMARK    3  A    between atoms: O_4  and  C_5 
REMARK    4  A    between atoms: C_6  and  C_7 
REMARK    5  A    between atoms: C_11  and  C_12 
REMARK       I    between atoms: C_12  and  N_13 
REMARK    6  A    between atoms: N_13  and  N_14 
REMARK    7  A    between atoms: C_15  and  C_16 
REMARK    8  A    between atoms: C_18  and  O_19 
ROOT
HETATM    1  C   UNL     1     -41.632  53.882 -53.829  1.00  0.00     0.092 A 
HETATM    2  N   UNL     1     -41.332  54.661 -54.877  1.00  0.00    -0.174 NA
HETATM    3  N   UNL     1     -42.247  55.641 -54.838  1.00  0.00    -0.272 N 
HETATM    4  H   UNL     1     -42.234  56.357 -55.559  1.00  0.00     0.189 HD
HETATM    5  C   UNL     1     -43.093  55.581 -53.764  1.00  0.00     0.121 A 
HETATM    6  C   UNL     1     -42.730  54.424 -53.102  1.00  0.00     0.071 A 
ENDROOT
BRANCH   5   7
HETATM    7  C   UNL     1     -44.082  56.604 -53.529  1.00  0.00     0.289 C 
HETATM    8  N   UNL     1     -44.259  56.938 -52.193  1.00  0.00    -0.242 N 
HETATM    9  H   UNL     1     -43.713  56.479 -51.477  1.00  0.00     0.192 HD
HETATM   10  O   UNL     1     -44.680  57.136 -54.460  1.00  0.00    -0.264 OA
BRANCH   8  11
HETATM   11  N   UNL     1     -45.088  57.966 -51.845  1.00  0.00    -0.184 NA
HETATM   12  C   UNL     1     -44.510  59.000 -51.324  1.00  0.00     0.150 C 
BRANCH  12  13
HETATM   13  C   UNL     1     -45.277  60.197 -50.925  1.00  0.00    -0.014 A 
HETATM   14  C   UNL     1     -45.192  60.694 -49.622  1.00  0.00     0.049 A 
HETATM   15  C   UNL     1     -45.939  61.814 -49.276  1.00  0.00     0.066 A 
HETATM   16  C   UNL     1     -46.763  62.441 -50.206  1.00  0.00     0.036 A 
HETATM   17  C   UNL     1     -46.844  61.942 -51.507  1.00  0.00     0.004 A 
HETATM   18  C   UNL     1     -46.100  60.818 -51.872  1.00  0.00     0.013 A 
BRANCH  15  19
HETATM   19  O   UNL     1     -45.893  62.337 -48.017  1.00  0.00    -0.361 OA
HETATM   20  H   UNL     1     -45.004  62.192 -47.653  1.00  0.00     0.217 HD
ENDBRANCH  15  19
ENDBRANCH  12  13
ENDBRANCH   8  11
ENDBRANCH   5   7
BRANCH   1  21
HETATM   21  C   UNL     1     -40.849  52.697 -53.476  1.00  0.00     0.028 A 
HETATM   22  C   UNL     1     -40.147  52.584 -52.262  1.00  0.00     0.081 A 
HETATM   23  C   UNL     1     -39.409  51.419 -52.002  1.00  0.00     0.038 A 
HETATM   24  C   UNL     1     -39.380  50.371 -52.926  1.00  0.00     0.003 A 
HETATM   25  C   UNL     1     -40.079  50.477 -54.123  1.00  0.00     0.001 A 
HETATM   26  C   UNL     1     -40.808  51.634 -54.398  1.00  0.00     0.017 A 
BRANCH  22  27
HETATM   27  O   UNL     1     -40.162  53.661 -51.410  1.00  0.00    -0.350 OA
BRANCH  27  28
HETATM   28  C   UNL     1     -40.253  53.366 -50.016  1.00  0.00     0.175 C 
BRANCH  28  29
HETATM   29  C   UNL     1     -40.768  54.611 -49.298  1.00  0.00     0.022 C 
HETATM   30  C   UNL     1     -40.881  55.796 -50.242  1.00  0.00     0.007 C 
ENDBRANCH  28  29
ENDBRANCH  27  28
ENDBRANCH  22  27
ENDBRANCH   1  21
TORSDOF 8
ENDMDL
MODEL 10
REMARK VINA RESULT:      -6.9      2.385      3.673
REMARK  8 active torsions:
REMARK  status: ('A' for Active; 'I' for Inactive)
REMARK    1  A    between atoms: C_2  and  C_3 
REMARK    2  A    between atoms: C_3  and  O_4 
REMARK    3  A    between atoms: O_4  and  C_5 
REMARK    4  A    between atoms: C_6  and  C_7 
REMARK    5  A    between atoms: C_11  and  C_12 
REMARK       I    between atoms: C_12  and  N_13 
REMARK    6  A    between atoms: N_13  and  N_14 
REMARK    7  A    between atoms: C_15  and  C_16 
REMARK    8  A    between atoms: C_18  and  O_19 
ROOT
HETATM    1  C   UNL     1     -41.041  54.491 -53.541  1.00  0.00     0.092 A 
HETATM    2  N   UNL     1     -40.115  54.268 -54.483  1.00  0.00    -0.174 NA
HETATM    3  N   UNL     1     -40.687  54.687 -55.621  1.00  0.00    -0.272 N 
HETATM    4  H   UNL     1     -40.173  54.600 -56.494  1.00  0.00     0.189 HD
HETATM    5  C   UNL     1     -41.927  55.244 -55.458  1.00  0.00     0.121 A 
HETATM    6  C   UNL     1     -42.194  55.104 -54.110  1.00  0.00     0.071 A 
ENDROOT
BRANCH   5   7
HETATM    7  C   UNL     1     -42.645  55.817 -56.570  1.00  0.00     0.289 C 
HETATM    8  N   UNL     1     -42.629  57.205 -56.612  1.00  0.00    -0.242 N 
HETATM    9  H   UNL     1     -42.137  57.730 -55.903  1.00  0.00     0.192 HD
HETATM   10  O   UNL     1     -43.190  55.106 -57.409  1.00  0.00    -0.264 OA
BRANCH   8  11
HETATM   11  N   UNL     1     -43.181  57.867 -57.671  1.00  0.00    -0.184 NA
HETATM   12  C   UNL     1     -42.346  58.492 -58.437  1.00  0.00     0.150 C 
BRANCH  12  13
HETATM   13  C   UNL     1     -42.796  59.228 -59.636  1.00  0.00    -0.014 A 
HETATM   14  C   UNL     1     -44.124  59.147 -60.063  1.00  0.00     0.049 A 
HETATM   15  C   UNL     1     -44.510  59.841 -61.204  1.00  0.00     0.066 A 
HETATM   16  C   UNL     1     -43.596  60.610 -61.919  1.00  0.00     0.036 A 
HETATM   17  C   UNL     1     -42.271  60.690 -61.487  1.00  0.00     0.004 A 
HETATM   18  C   UNL     1     -41.866  59.999 -60.343  1.00  0.00     0.013 A 
BRANCH  15  19
HETATM   19  O   UNL     1     -45.793  59.792 -61.665  1.00  0.00    -0.361 OA
HETATM   20  H   UNL     1     -45.985  60.621 -62.136  1.00  0.00     0.217 HD
ENDBRANCH  15  19
ENDBRANCH  12  13
ENDBRANCH   8  11
ENDBRANCH   5   7
BRANCH   1  21
HETATM   21  C   UNL     1     -40.812  54.205 -52.125  1.00  0.00     0.028 A 
HETATM   22  C   UNL     1     -40.265  52.988 -51.674  1.00  0.00     0.081 A 
HETATM   23  C   UNL     1     -40.087  52.785 -50.298  1.00  0.00     0.038 A 
HETATM   24  C   UNL     1     -40.430  53.780 -49.378  1.00  0.00     0.003 A 
HETATM   25  C   UNL     1     -40.963  54.985 -49.821  1.00  0.00     0.001 A 
HETATM   26  C   UNL     1     -41.155  55.196 -51.186  1.00  0.00     0.017 A 
BRANCH  22  27
HETATM   27  O   UNL     1     -39.995  52.022 -52.611  1.00  0.00    -0.350 OA
BRANCH  27  28
HETATM   28  C   UNL     1     -39.589  50.748 -52.109  1.00  0.00     0.175 C 
BRANCH  28  29
HETATM   29  C   UNL     1     -39.606  49.753 -53.267  1.00  0.00     0.022 C 
HETATM   30  C   UNL     1     -40.420  50.270 -54.440  1.00  0.00     0.007 C 
ENDBRANCH  28  29
ENDBRANCH  27  28
ENDBRANCH  22  27
ENDBRANCH   1  21
TORSDOF 8
ENDMDL
