MODEL 1
REMARK VINA RESULT:      -7.9      0.000      0.000
REMARK  8 active torsions:
REMARK  status: ('A' for Active; 'I' for Inactive)
REMARK    1  A    between atoms: C_2  and  C_3 
REMARK    2  A    between atoms: C_3  and  N_4 
REMARK    3  A    between atoms: N_9  and  C_11 
REMARK    4  A    between atoms: C_11  and  C_12 
REMARK    5  A    between atoms: C_14  and  C_15 
REMARK    6  A    between atoms: C_15  and  C_16 
REMARK    7  A    between atoms: C_16  and  C_17 
REMARK    8  A    between atoms: C_17  and  O_18 
ROOT
HETATM    1  N   UNL     1     -41.729  55.669 -51.488  1.00  0.00    -0.066 N 
HETATM    2  H   UNL     1     -40.885  55.649 -52.075  1.00  0.00     0.280 HD
HETATM    3  C   UNL     1     -42.811  56.463 -52.187  1.00  0.00     0.246 C 
HETATM    4  C   UNL     1     -42.332  57.897 -52.476  1.00  0.00     0.009 C 
HETATM    5  C   UNL     1     -43.451  58.705 -53.160  1.00  0.00     0.246 C 
HETATM    6  N   UNL     1     -42.725  59.803 -53.905  1.00  0.00    -0.066 N 
HETATM    7  H   UNL     1     -42.710  60.643 -53.303  1.00  0.00     0.280 HD
HETATM    8  C   UNL     1     -41.298  59.368 -54.124  1.00  0.00     0.236 C 
HETATM    9  C   UNL     1     -41.240  57.952 -53.560  1.00  0.00     0.040 C 
HETATM   10  C   UNL     1     -41.882  58.556 -51.153  1.00  0.00     0.014 C 
HETATM   11  C   UNL     1     -40.865  57.707 -50.384  1.00  0.00     0.029 C 
HETATM   12  C   UNL     1     -41.345  56.278 -50.158  1.00  0.00     0.235 C 
ENDROOT
BRANCH   1  13
HETATM   13  C   UNL     1     -42.095  54.192 -51.316  1.00  0.00     0.273 C 
BRANCH  13  14
HETATM   14  C   UNL     1     -41.190  53.280 -52.104  1.00  0.00    -0.032 A 
HETATM   15  C   UNL     1     -41.323  53.166 -53.500  1.00  0.00     0.012 A 
HETATM   16  C   UNL     1     -40.531  52.264 -54.212  1.00  0.00     0.043 A 
HETATM   17  C   UNL     1     -39.598  51.485 -53.538  1.00  0.00     0.116 A 
HETATM   18  C   UNL     1     -39.433  51.599 -52.165  1.00  0.00     0.043 A 
HETATM   19  F   UNL     1     -38.854  50.609 -54.222  1.00  0.00    -0.206 F 
HETATM   20  C   UNL     1     -40.225  52.497 -51.445  1.00  0.00     0.012 A 
ENDBRANCH  13  14
ENDBRANCH   1  13
BRANCH   6  21
HETATM   21  C   UNL     1     -43.422  60.277 -55.168  1.00  0.00     0.280 C 
BRANCH  21  22
HETATM   22  C   UNL     1     -43.212  59.342 -56.310  1.00  0.00     0.009 A 
HETATM   23  S   UNL     1     -44.353  58.095 -56.605  1.00  0.00    -0.084 SA
HETATM   24  C   UNL     1     -43.480  57.515 -57.950  1.00  0.00     0.058 A 
HETATM   25  C   UNL     1     -42.342  58.255 -58.179  1.00  0.00     0.029 A 
HETATM   26  C   UNL     1     -42.186  59.315 -57.234  1.00  0.00     0.018 A 
BRANCH  24  27
HETATM   27  C   UNL     1     -43.901  56.396 -58.724  1.00  0.00    -0.057 C 
BRANCH  27  28
HETATM   28  C   UNL     1     -44.270  55.443 -59.356  1.00  0.00    -0.075 C 
BRANCH  28  29
HETATM   29  C   UNL     1     -44.709  54.261 -60.095  1.00  0.00     0.258 C 
BRANCH  29  30
HETATM   30  O   UNL     1     -45.030  53.227 -59.178  1.00  0.00    -0.389 OA
HETATM   31  H   UNL     1     -44.618  53.466 -58.330  1.00  0.00     0.210 HD
ENDBRANCH  29  30
ENDBRANCH  28  29
ENDBRANCH  27  28
ENDBRANCH  24  27
ENDBRANCH  21  22
ENDBRANCH   6  21
TORSDOF 8
ENDMDL
MODEL 2
REMARK VINA RESULT:      -7.4     15.903     18.551
REMARK  8 active torsions:
REMARK  status: ('A' for Active; 'I' for Inactive)
REMARK    1  A    between atoms: C_2  and  C_3 
REMARK    2  A    between atoms: C_3  and  N_4 
REMARK    3  A    between atoms: N_9  and  C_11 
REMARK    4  A    between atoms: C_11  and  C_12 
REMARK    5  A    between atoms: C_14  and  C_15 
REMARK    6  A    between atoms: C_15  and  C_16 
REMARK    7  A    between atoms: C_16  and  C_17 
REMARK    8  A    between atoms: C_17  and  O_18 
ROOT
HETATM    1  N   UNL     1     -33.134  38.531 -48.334  1.00  0.00    -0.066 N 
HETATM    2  H   UNL     1     -33.054  39.523 -48.078  1.00  0.00     0.280 HD
HETATM    3  C   UNL     1     -33.016  38.387 -49.836  1.00  0.00     0.246 C 
HETATM    4  C   UNL     1     -34.105  39.209 -50.548  1.00  0.00     0.009 C 
HETATM    5  C   UNL     1     -33.994  39.031 -52.074  1.00  0.00     0.246 C 
HETATM    6  N   UNL     1     -34.646  40.268 -52.650  1.00  0.00    -0.066 N 
HETATM    7  H   UNL     1     -35.632  40.042 -52.859  1.00  0.00     0.280 HD
HETATM    8  C   UNL     1     -34.635  41.347 -51.595  1.00  0.00     0.236 C 
HETATM    9  C   UNL     1     -33.881  40.727 -50.424  1.00  0.00     0.040 C 
HETATM   10  C   UNL     1     -35.491  38.773 -50.025  1.00  0.00     0.014 C 
HETATM   11  C   UNL     1     -35.587  38.813 -48.497  1.00  0.00     0.029 C 
HETATM   12  C   UNL     1     -34.466  38.034 -47.818  1.00  0.00     0.235 C 
ENDROOT
BRANCH   1  13
HETATM   13  C   UNL     1     -31.982  37.860 -47.581  1.00  0.00     0.273 C 
BRANCH  13  14
HETATM   14  C   UNL     1     -31.320  38.790 -46.597  1.00  0.00    -0.032 A 
HETATM   15  C   UNL     1     -31.492  38.612 -45.212  1.00  0.00     0.012 A 
HETATM   16  C   UNL     1     -30.937  39.522 -44.311  1.00  0.00     0.043 A 
HETATM   17  C   UNL     1     -30.201  40.601 -44.786  1.00  0.00     0.116 A 
HETATM   18  C   UNL     1     -29.999  40.781 -46.147  1.00  0.00     0.043 A 
HETATM   19  F   UNL     1     -29.687  41.480 -43.920  1.00  0.00    -0.206 F 
HETATM   20  C   UNL     1     -30.554  39.877 -47.055  1.00  0.00     0.012 A 
ENDBRANCH  13  14
ENDBRANCH   1  13
BRANCH   6  21
HETATM   21  C   UNL     1     -34.085  40.714 -53.988  1.00  0.00     0.280 C 
BRANCH  21  22
HETATM   22  C   UNL     1     -35.157  41.144 -54.932  1.00  0.00     0.009 A 
HETATM   23  S   UNL     1     -34.784  41.362 -56.592  1.00  0.00    -0.084 SA
HETATM   24  C   UNL     1     -36.385  41.817 -56.965  1.00  0.00     0.058 A 
HETATM   25  C   UNL     1     -37.195  41.800 -55.851  1.00  0.00     0.029 A 
HETATM   26  C   UNL     1     -36.487  41.408 -54.674  1.00  0.00     0.018 A 
BRANCH  24  27
HETATM   27  C   UNL     1     -36.805  42.169 -58.280  1.00  0.00    -0.057 C 
BRANCH  27  28
HETATM   28  C   UNL     1     -37.136  42.456 -59.399  1.00  0.00    -0.075 C 
BRANCH  28  29
HETATM   29  C   UNL     1     -37.517  42.776 -60.773  1.00  0.00     0.258 C 
BRANCH  29  30
HETATM   30  O   UNL     1     -36.723  43.856 -61.239  1.00  0.00    -0.389 OA
HETATM   31  H   UNL     1     -36.391  44.320 -60.453  1.00  0.00     0.210 HD
ENDBRANCH  29  30
ENDBRANCH  28  29
ENDBRANCH  27  28
ENDBRANCH  24  27
ENDBRANCH  21  22
ENDBRANCH   6  21
TORSDOF 8
ENDMDL
MODEL 3
REMARK VINA RESULT:      -7.3      2.213      3.066
REMARK  8 active torsions:
REMARK  status: ('A' for Active; 'I' for Inactive)
REMARK    1  A    between atoms: C_2  and  C_3 
REMARK    2  A    between atoms: C_3  and  N_4 
REMARK    3  A    between atoms: N_9  and  C_11 
REMARK    4  A    between atoms: C_11  and  C_12 
REMARK    5  A    between atoms: C_14  and  C_15 
REMARK    6  A    between atoms: C_15  and  C_16 
REMARK    7  A    between atoms: C_16  and  C_17 
REMARK    8  A    between atoms: C_17  and  O_18 
ROOT
HETATM    1  N   UNL     1     -41.162  54.767 -51.222  1.00  0.00    -0.066 N 
HETATM    2  H   UNL     1     -40.992  55.732 -50.912  1.00  0.00     0.280 HD
HETATM    3  C   UNL     1     -41.193  54.720 -52.734  1.00  0.00     0.246 C 
HETATM    4  C   UNL     1     -42.286  55.655 -53.284  1.00  0.00     0.009 C 
HETATM    5  C   UNL     1     -42.329  55.577 -54.822  1.00  0.00     0.246 C 
HETATM    6  N   UNL     1     -42.948  56.889 -55.251  1.00  0.00    -0.066 N 
HETATM    7  H   UNL     1     -43.962  56.739 -55.378  1.00  0.00     0.280 HD
HETATM    8  C   UNL     1     -42.766  57.889 -54.137  1.00  0.00     0.236 C 
HETATM    9  C   UNL     1     -41.950  57.144 -53.085  1.00  0.00     0.040 C 
HETATM   10  C   UNL     1     -43.644  55.269 -52.657  1.00  0.00     0.014 C 
HETATM   11  C   UNL     1     -43.594  55.208 -51.127  1.00  0.00     0.029 C 
HETATM   12  C   UNL     1     -42.471  54.317 -50.611  1.00  0.00     0.235 C 
ENDROOT
BRANCH   1  13
HETATM   13  C   UNL     1     -39.993  53.976 -50.628  1.00  0.00     0.273 C 
BRANCH  13  14
HETATM   14  C   UNL     1     -39.920  52.569 -51.165  1.00  0.00    -0.032 A 
HETATM   15  C   UNL     1     -40.130  51.466 -50.318  1.00  0.00     0.012 A 
HETATM   16  C   UNL     1     -39.988  50.166 -50.806  1.00  0.00     0.043 A 
HETATM   17  C   UNL     1     -39.647  49.963 -52.138  1.00  0.00     0.116 A 
HETATM   18  C   UNL     1     -39.459  51.038 -52.997  1.00  0.00     0.043 A 
HETATM   19  F   UNL     1     -39.494  48.717 -52.597  1.00  0.00    -0.206 F 
HETATM   20  C   UNL     1     -39.597  52.341 -52.514  1.00  0.00     0.012 A 
ENDBRANCH  13  14
ENDBRANCH   1  13
BRANCH   6  21
HETATM   21  C   UNL     1     -42.485  57.392 -56.607  1.00  0.00     0.280 C 
BRANCH  21  22
HETATM   22  C   UNL     1     -43.286  56.815 -57.724  1.00  0.00     0.009 A 
HETATM   23  S   UNL     1     -44.680  57.645 -58.282  1.00  0.00    -0.084 SA
HETATM   24  C   UNL     1     -45.008  56.452 -59.457  1.00  0.00     0.058 A 
HETATM   25  C   UNL     1     -44.073  55.441 -59.434  1.00  0.00     0.029 A 
HETATM   26  C   UNL     1     -43.074  55.650 -58.434  1.00  0.00     0.018 A 
BRANCH  24  27
HETATM   27  C   UNL     1     -46.122  56.520 -60.342  1.00  0.00    -0.057 C 
BRANCH  27  28
HETATM   28  C   UNL     1     -47.076  56.590 -61.069  1.00  0.00    -0.075 C 
BRANCH  28  29
HETATM   29  C   UNL     1     -48.256  56.651 -61.929  1.00  0.00     0.258 C 
BRANCH  29  30
HETATM   30  O   UNL     1     -47.876  56.364 -63.266  1.00  0.00    -0.389 OA
HETATM   31  H   UNL     1     -48.484  55.678 -63.590  1.00  0.00     0.210 HD
ENDBRANCH  29  30
ENDBRANCH  28  29
ENDBRANCH  27  28
ENDBRANCH  24  27
ENDBRANCH  21  22
ENDBRANCH   6  21
TORSDOF 8
ENDMDL
MODEL 4
REMARK VINA RESULT:      -7.3      4.874      7.226
REMARK  8 active torsions:
REMARK  status: ('A' for Active; 'I' for Inactive)
REMARK    1  A    between atoms: C_2  and  C_3 
REMARK    2  A    between atoms: C_3  and  N_4 
REMARK    3  A    between atoms: N_9  and  C_11 
REMARK    4  A    between atoms: C_11  and  C_12 
REMARK    5  A    between atoms: C_14  and  C_15 
REMARK    6  A    between atoms: C_15  and  C_16 
REMARK    7  A    between atoms: C_16  and  C_17 
REMARK    8  A    between atoms: C_17  and  O_18 
ROOT
HETATM    1  N   UNL     1     -41.646  54.738 -52.748  1.00  0.00    -0.066 N 
HETATM    2  H   UNL     1     -40.795  54.791 -52.173  1.00  0.00     0.280 HD
HETATM    3  C   UNL     1     -42.109  56.136 -53.094  1.00  0.00     0.246 C 
HETATM    4  C   UNL     1     -42.382  56.950 -51.815  1.00  0.00     0.009 C 
HETATM    5  C   UNL     1     -42.881  58.361 -52.177  1.00  0.00     0.246 C 
HETATM    6  N   UNL     1     -42.541  59.206 -50.971  1.00  0.00    -0.066 N 
HETATM    7  H   UNL     1     -43.374  59.245 -50.361  1.00  0.00     0.280 HD
HETATM    8  C   UNL     1     -41.441  58.518 -50.201  1.00  0.00     0.236 C 
HETATM    9  C   UNL     1     -41.095  57.295 -51.044  1.00  0.00     0.040 C 
HETATM   10  C   UNL     1     -43.406  56.191 -50.942  1.00  0.00     0.014 C 
HETATM   11  C   UNL     1     -42.997  54.739 -50.676  1.00  0.00     0.029 C 
HETATM   12  C   UNL     1     -42.684  53.974 -51.956  1.00  0.00     0.235 C 
ENDROOT
BRANCH   1  13
HETATM   13  C   UNL     1     -41.212  53.936 -53.979  1.00  0.00     0.273 C 
BRANCH  13  14
HETATM   14  C   UNL     1     -40.610  52.604 -53.613  1.00  0.00    -0.032 A 
HETATM   15  C   UNL     1     -40.713  51.505 -54.484  1.00  0.00     0.012 A 
HETATM   16  C   UNL     1     -40.218  50.256 -54.106  1.00  0.00     0.043 A 
HETATM   17  C   UNL     1     -39.610  50.103 -52.866  1.00  0.00     0.116 A 
HETATM   18  C   UNL     1     -39.475  51.180 -52.000  1.00  0.00     0.043 A 
HETATM   19  F   UNL     1     -39.153  48.901 -52.499  1.00  0.00    -0.206 F 
HETATM   20  C   UNL     1     -39.972  52.432 -52.371  1.00  0.00     0.012 A 
ENDBRANCH  13  14
ENDBRANCH   1  13
BRANCH   6  21
HETATM   21  C   UNL     1     -42.252  60.664 -51.281  1.00  0.00     0.280 C 
BRANCH  21  22
HETATM   22  C   UNL     1     -43.021  61.590 -50.401  1.00  0.00     0.009 A 
HETATM   23  S   UNL     1     -44.164  60.950 -49.293  1.00  0.00    -0.084 SA
HETATM   24  C   UNL     1     -44.582  62.500 -48.718  1.00  0.00     0.058 A 
HETATM   25  C   UNL     1     -43.864  63.491 -49.350  1.00  0.00     0.029 A 
HETATM   26  C   UNL     1     -42.958  62.966 -50.322  1.00  0.00     0.018 A 
BRANCH  24  27
HETATM   27  C   UNL     1     -45.560  62.714 -47.705  1.00  0.00    -0.057 C 
BRANCH  27  28
HETATM   28  C   UNL     1     -46.368  62.911 -46.837  1.00  0.00    -0.075 C 
BRANCH  28  29
HETATM   29  C   UNL     1     -47.355  63.186 -45.795  1.00  0.00     0.258 C 
BRANCH  29  30
HETATM   30  O   UNL     1     -48.395  63.986 -46.336  1.00  0.00    -0.389 OA
HETATM   31  H   UNL     1     -49.193  63.800 -45.813  1.00  0.00     0.210 HD
ENDBRANCH  29  30
ENDBRANCH  28  29
ENDBRANCH  27  28
ENDBRANCH  24  27
ENDBRANCH  21  22
ENDBRANCH   6  21
TORSDOF 8
ENDMDL
MODEL 5
REMARK VINA RESULT:      -7.3      4.697      6.852
REMARK  8 active torsions:
REMARK  status: ('A' for Active; 'I' for Inactive)
REMARK    1  A    between atoms: C_2  and  C_3 
REMARK    2  A    between atoms: C_3  and  N_4 
REMARK    3  A    between atoms: N_9  and  C_11 
REMARK    4  A    between atoms: C_11  and  C_12 
REMARK    5  A    between atoms: C_14  and  C_15 
REMARK    6  A    between atoms: C_15  and  C_16 
REMARK    7  A    between atoms: C_16  and  C_17 
REMARK    8  A    between atoms: C_17  and  O_18 
ROOT
HETATM    1  N   UNL     1     -41.710  54.354 -54.060  1.00  0.00    -0.066 N 
HETATM    2  H   UNL     1     -42.063  53.919 -53.199  1.00  0.00     0.280 HD
HETATM    3  C   UNL     1     -41.413  55.815 -53.801  1.00  0.00     0.246 C 
HETATM    4  C   UNL     1     -42.676  56.549 -53.315  1.00  0.00     0.009 C 
HETATM    5  C   UNL     1     -42.370  58.040 -53.083  1.00  0.00     0.246 C 
HETATM    6  N   UNL     1     -43.417  58.494 -52.091  1.00  0.00    -0.066 N 
HETATM    7  H   UNL     1     -44.204  58.905 -52.619  1.00  0.00     0.280 HD
HETATM    8  C   UNL     1     -43.938  57.281 -51.360  1.00  0.00     0.236 C 
HETATM    9  C   UNL     1     -43.102  56.124 -51.898  1.00  0.00     0.040 C 
HETATM   10  C   UNL     1     -43.805  56.354 -54.352  1.00  0.00     0.014 C 
HETATM   11  C   UNL     1     -44.040  54.882 -54.701  1.00  0.00     0.029 C 
HETATM   12  C   UNL     1     -42.763  54.168 -55.130  1.00  0.00     0.235 C 
ENDROOT
BRANCH   1  13
HETATM   13  C   UNL     1     -40.454  53.544 -54.397  1.00  0.00     0.273 C 
BRANCH  13  14
HETATM   14  C   UNL     1     -40.193  52.448 -53.396  1.00  0.00    -0.032 A 
HETATM   15  C   UNL     1     -40.184  52.722 -52.016  1.00  0.00     0.012 A 
HETATM   16  C   UNL     1     -39.867  51.718 -51.100  1.00  0.00     0.043 A 
HETATM   17  C   UNL     1     -39.570  50.439 -51.556  1.00  0.00     0.116 A 
HETATM   18  C   UNL     1     -39.596  50.141 -52.911  1.00  0.00     0.043 A 
HETATM   19  F   UNL     1     -39.249  49.484 -50.676  1.00  0.00    -0.206 F 
HETATM   20  C   UNL     1     -39.910  51.142 -53.833  1.00  0.00     0.012 A 
ENDBRANCH  13  14
ENDBRANCH   1  13
BRANCH   6  21
HETATM   21  C   UNL     1     -42.973  59.618 -51.172  1.00  0.00     0.280 C 
BRANCH  21  22
HETATM   22  C   UNL     1     -43.991  60.702 -51.077  1.00  0.00     0.009 A 
HETATM   23  S   UNL     1     -44.900  60.885 -49.634  1.00  0.00    -0.084 SA
HETATM   24  C   UNL     1     -45.767  62.213 -50.263  1.00  0.00     0.058 A 
HETATM   25  C   UNL     1     -45.372  62.520 -51.546  1.00  0.00     0.029 A 
HETATM   26  C   UNL     1     -44.342  61.649 -52.018  1.00  0.00     0.018 A 
BRANCH  24  27
HETATM   27  C   UNL     1     -46.773  62.902 -49.527  1.00  0.00    -0.057 C 
BRANCH  27  28
HETATM   28  C   UNL     1     -47.641  63.475 -48.925  1.00  0.00    -0.075 C 
BRANCH  28  29
HETATM   29  C   UNL     1     -48.721  64.146 -48.205  1.00  0.00     0.258 C 
BRANCH  29  30
HETATM   30  O   UNL     1     -49.967  63.751 -48.757  1.00  0.00    -0.389 OA
HETATM   31  H   UNL     1     -50.413  64.563 -49.054  1.00  0.00     0.210 HD
ENDBRANCH  29  30
ENDBRANCH  28  29
ENDBRANCH  27  28
ENDBRANCH  24  27
ENDBRANCH  21  22
ENDBRANCH   6  21
TORSDOF 8
ENDMDL
MODEL 6
REMARK VINA RESULT:      -7.2      3.711      7.948
REMARK  8 active torsions:
REMARK  status: ('A' for Active; 'I' for Inactive)
REMARK    1  A    between atoms: C_2  and  C_3 
REMARK    2  A    between atoms: C_3  and  N_4 
REMARK    3  A    between atoms: N_9  and  C_11 
REMARK    4  A    between atoms: C_11  and  C_12 
REMARK    5  A    between atoms: C_14  and  C_15 
REMARK    6  A    between atoms: C_15  and  C_16 
REMARK    7  A    between atoms: C_16  and  C_17 
REMARK    8  A    between atoms: C_17  and  O_18 
ROOT
HETATM    1  N   UNL     1     -42.964  57.371 -57.150  1.00  0.00    -0.066 N 
HETATM    2  H   UNL     1     -43.950  57.654 -57.081  1.00  0.00     0.280 HD
HETATM    3  C   UNL     1     -42.562  56.634 -55.891  1.00  0.00     0.246 C 
HETATM    4  C   UNL     1     -42.774  57.521 -54.651  1.00  0.00     0.009 C 
HETATM    5  C   UNL     1     -42.334  56.773 -53.378  1.00  0.00     0.246 C 
HETATM    6  N   UNL     1     -43.109  57.435 -52.261  1.00  0.00    -0.066 N 
HETATM    7  H   UNL     1     -42.508  58.164 -51.843  1.00  0.00     0.280 HD
HETATM    8  C   UNL     1     -44.315  58.117 -52.856  1.00  0.00     0.236 C 
HETATM    9  C   UNL     1     -44.263  57.759 -54.338  1.00  0.00     0.040 C 
HETATM   10  C   UNL     1     -41.992  58.841 -54.833  1.00  0.00     0.014 C 
HETATM   11  C   UNL     1     -42.313  59.541 -56.157  1.00  0.00     0.029 C 
HETATM   12  C   UNL     1     -42.144  58.624 -57.363  1.00  0.00     0.235 C 
ENDROOT
BRANCH   1  13
HETATM   13  C   UNL     1     -42.920  56.482 -58.397  1.00  0.00     0.273 C 
BRANCH  13  14
HETATM   14  C   UNL     1     -44.237  56.455 -59.129  1.00  0.00    -0.032 A 
HETATM   15  C   UNL     1     -45.297  57.289 -58.732  1.00  0.00     0.012 A 
HETATM   16  C   UNL     1     -46.537  57.204 -59.368  1.00  0.00     0.043 A 
HETATM   17  C   UNL     1     -46.718  56.298 -60.406  1.00  0.00     0.116 A 
HETATM   18  C   UNL     1     -45.677  55.483 -60.830  1.00  0.00     0.043 A 
HETATM   19  F   UNL     1     -47.912  56.207 -61.000  1.00  0.00    -0.206 F 
HETATM   20  C   UNL     1     -44.435  55.561 -60.196  1.00  0.00     0.012 A 
ENDBRANCH  13  14
ENDBRANCH   1  13
BRANCH   6  21
HETATM   21  C   UNL     1     -43.436  56.523 -51.092  1.00  0.00     0.280 C 
BRANCH  21  22
HETATM   22  C   UNL     1     -42.331  55.565 -50.800  1.00  0.00     0.009 A 
HETATM   23  S   UNL     1     -42.459  53.939 -51.334  1.00  0.00    -0.084 SA
HETATM   24  C   UNL     1     -40.943  53.527 -50.669  1.00  0.00     0.058 A 
HETATM   25  C   UNL     1     -40.343  54.604 -50.055  1.00  0.00     0.029 A 
HETATM   26  C   UNL     1     -41.144  55.785 -50.132  1.00  0.00     0.018 A 
BRANCH  24  27
HETATM   27  C   UNL     1     -40.389  52.217 -50.752  1.00  0.00    -0.057 C 
BRANCH  27  28
HETATM   28  C   UNL     1     -39.926  51.109 -50.796  1.00  0.00    -0.075 C 
BRANCH  28  29
HETATM   29  C   UNL     1     -39.329  49.776 -50.839  1.00  0.00     0.258 C 
BRANCH  29  30
HETATM   30  O   UNL     1     -39.576  49.194 -52.110  1.00  0.00    -0.389 OA
HETATM   31  H   UNL     1     -39.267  49.831 -52.776  1.00  0.00     0.210 HD
ENDBRANCH  29  30
ENDBRANCH  28  29
ENDBRANCH  27  28
ENDBRANCH  24  27
ENDBRANCH  21  22
ENDBRANCH   6  21
TORSDOF 8
ENDMDL
MODEL 7
REMARK VINA RESULT:      -7.1      2.289      2.978
REMARK  8 active torsions:
REMARK  status: ('A' for Active; 'I' for Inactive)
REMARK    1  A    between atoms: C_2  and  C_3 
REMARK    2  A    between atoms: C_3  and  N_4 
REMARK    3  A    between atoms: N_9  and  C_11 
REMARK    4  A    between atoms: C_11  and  C_12 
REMARK    5  A    between atoms: C_14  and  C_15 
REMARK    6  A    between atoms: C_15  and  C_16 
REMARK    7  A    between atoms: C_16  and  C_17 
REMARK    8  A    between atoms: C_17  and  O_18 
ROOT
HETATM    1  N   UNL     1     -43.027  55.845 -51.845  1.00  0.00    -0.066 N 
HETATM    2  H   UNL     1     -42.175  56.403 -51.709  1.00  0.00     0.280 HD
HETATM    3  C   UNL     1     -43.229  55.584 -53.322  1.00  0.00     0.246 C 
HETATM    4  C   UNL     1     -43.333  56.910 -54.098  1.00  0.00     0.009 C 
HETATM    5  C   UNL     1     -43.568  56.635 -55.595  1.00  0.00     0.246 C 
HETATM    6  N   UNL     1     -43.063  57.877 -56.294  1.00  0.00    -0.066 N 
HETATM    7  H   UNL     1     -43.868  58.506 -56.450  1.00  0.00     0.280 HD
HETATM    8  C   UNL     1     -42.100  58.584 -55.374  1.00  0.00     0.236 C 
HETATM    9  C   UNL     1     -41.995  57.670 -54.157  1.00  0.00     0.040 C 
HETATM   10  C   UNL     1     -44.468  57.764 -53.492  1.00  0.00     0.014 C 
HETATM   11  C   UNL     1     -44.331  57.943 -51.977  1.00  0.00     0.029 C 
HETATM   12  C   UNL     1     -44.178  56.617 -51.240  1.00  0.00     0.235 C 
ENDROOT
BRANCH   1  13
HETATM   13  C   UNL     1     -42.763  54.564 -51.048  1.00  0.00     0.273 C 
BRANCH  13  14
HETATM   14  C   UNL     1     -41.700  53.703 -51.680  1.00  0.00    -0.032 A 
HETATM   15  C   UNL     1     -41.666  53.509 -53.073  1.00  0.00     0.012 A 
HETATM   16  C   UNL     1     -40.724  52.651 -53.642  1.00  0.00     0.043 A 
HETATM   17  C   UNL     1     -39.808  51.996 -52.828  1.00  0.00     0.116 A 
HETATM   18  C   UNL     1     -39.808  52.192 -51.454  1.00  0.00     0.043 A 
HETATM   19  F   UNL     1     -38.919  51.161 -53.376  1.00  0.00    -0.206 F 
HETATM   20  C   UNL     1     -40.750  53.046 -50.877  1.00  0.00     0.012 A 
ENDBRANCH  13  14
ENDBRANCH   1  13
BRANCH   6  21
HETATM   21  C   UNL     1     -42.515  57.639 -57.689  1.00  0.00     0.280 C 
BRANCH  21  22
HETATM   22  C   UNL     1     -43.515  56.987 -58.583  1.00  0.00     0.009 A 
HETATM   23  S   UNL     1     -44.872  57.884 -59.130  1.00  0.00    -0.084 SA
HETATM   24  C   UNL     1     -45.480  56.559 -60.016  1.00  0.00     0.058 A 
HETATM   25  C   UNL     1     -44.666  55.453 -59.906  1.00  0.00     0.029 A 
HETATM   26  C   UNL     1     -43.527  55.699 -59.080  1.00  0.00     0.018 A 
BRANCH  24  27
HETATM   27  C   UNL     1     -46.687  56.618 -60.770  1.00  0.00    -0.057 C 
BRANCH  27  28
HETATM   28  C   UNL     1     -47.696  56.648 -61.422  1.00  0.00    -0.075 C 
BRANCH  28  29
HETATM   29  C   UNL     1     -48.922  56.646 -62.217  1.00  0.00     0.258 C 
BRANCH  29  30
HETATM   30  O   UNL     1     -48.629  56.189 -63.528  1.00  0.00    -0.389 OA
HETATM   31  H   UNL     1     -47.960  55.489 -63.439  1.00  0.00     0.210 HD
ENDBRANCH  29  30
ENDBRANCH  28  29
ENDBRANCH  27  28
ENDBRANCH  24  27
ENDBRANCH  21  22
ENDBRANCH   6  21
TORSDOF 8
ENDMDL
MODEL 8
REMARK VINA RESULT:      -7.1      3.233      7.022
REMARK  8 active torsions:
REMARK  status: ('A' for Active; 'I' for Inactive)
REMARK    1  A    between atoms: C_2  and  C_3 
REMARK    2  A    between atoms: C_3  and  N_4 
REMARK    3  A    between atoms: N_9  and  C_11 
REMARK    4  A    between atoms: C_11  and  C_12 
REMARK    5  A    between atoms: C_14  and  C_15 
REMARK    6  A    between atoms: C_15  and  C_16 
REMARK    7  A    between atoms: C_16  and  C_17 
REMARK    8  A    between atoms: C_17  and  O_18 
ROOT
HETATM    1  N   UNL     1     -44.176  59.270 -56.935  1.00  0.00    -0.066 N 
HETATM    2  H   UNL     1     -44.792  58.449 -56.881  1.00  0.00     0.280 HD
HETATM    3  C   UNL     1     -42.971  59.056 -56.044  1.00  0.00     0.246 C 
HETATM    4  C   UNL     1     -43.409  58.814 -54.588  1.00  0.00     0.009 C 
HETATM    5  C   UNL     1     -42.175  58.628 -53.684  1.00  0.00     0.246 C 
HETATM    6  N   UNL     1     -42.686  57.836 -52.501  1.00  0.00    -0.066 N 
HETATM    7  H   UNL     1     -42.931  58.503 -51.752  1.00  0.00     0.280 HD
HETATM    8  C   UNL     1     -43.950  57.124 -52.914  1.00  0.00     0.236 C 
HETATM    9  C   UNL     1     -44.108  57.457 -54.394  1.00  0.00     0.040 C 
HETATM   10  C   UNL     1     -44.283  59.999 -54.119  1.00  0.00     0.014 C 
HETATM   11  C   UNL     1     -45.444  60.292 -55.073  1.00  0.00     0.029 C 
HETATM   12  C   UNL     1     -44.987  60.476 -56.515  1.00  0.00     0.235 C 
ENDROOT
BRANCH   1  13
HETATM   13  C   UNL     1     -43.807  59.361 -58.418  1.00  0.00     0.273 C 
BRANCH  13  14
HETATM   14  C   UNL     1     -43.992  58.049 -59.137  1.00  0.00    -0.032 A 
HETATM   15  C   UNL     1     -45.238  57.701 -59.688  1.00  0.00     0.012 A 
HETATM   16  C   UNL     1     -45.421  56.452 -60.286  1.00  0.00     0.043 A 
HETATM   17  C   UNL     1     -44.361  55.556 -60.347  1.00  0.00     0.116 A 
HETATM   18  C   UNL     1     -43.115  55.889 -59.832  1.00  0.00     0.043 A 
HETATM   19  F   UNL     1     -44.545  54.355 -60.904  1.00  0.00    -0.206 F 
HETATM   20  C   UNL     1     -42.927  57.135 -59.229  1.00  0.00     0.012 A 
ENDBRANCH  13  14
ENDBRANCH   1  13
BRANCH   6  21
HETATM   21  C   UNL     1     -41.655  56.929 -51.855  1.00  0.00     0.280 C 
BRANCH  21  22
HETATM   22  C   UNL     1     -41.184  55.861 -52.783  1.00  0.00     0.009 A 
HETATM   23  S   UNL     1     -41.158  54.230 -52.252  1.00  0.00    -0.084 SA
HETATM   24  C   UNL     1     -40.550  53.679 -53.747  1.00  0.00     0.058 A 
HETATM   25  C   UNL     1     -40.373  54.712 -54.640  1.00  0.00     0.029 A 
HETATM   26  C   UNL     1     -40.742  55.975 -54.085  1.00  0.00     0.018 A 
BRANCH  24  27
HETATM   27  C   UNL     1     -40.267  52.308 -54.011  1.00  0.00    -0.057 C 
BRANCH  27  28
HETATM   28  C   UNL     1     -40.014  51.150 -54.211  1.00  0.00    -0.075 C 
BRANCH  28  29
HETATM   29  C   UNL     1     -39.740  49.739 -54.472  1.00  0.00     0.258 C 
BRANCH  29  30
HETATM   30  O   UNL     1     -39.487  49.076 -53.243  1.00  0.00    -0.389 OA
HETATM   31  H   UNL     1     -39.920  48.207 -53.298  1.00  0.00     0.210 HD
ENDBRANCH  29  30
ENDBRANCH  28  29
ENDBRANCH  27  28
ENDBRANCH  24  27
ENDBRANCH  21  22
ENDBRANCH   6  21
TORSDOF 8
ENDMDL
MODEL 9
REMARK VINA RESULT:      -7.0      3.068      6.727
REMARK  8 active torsions:
REMARK  status: ('A' for Active; 'I' for Inactive)
REMARK    1  A    between atoms: C_2  and  C_3 
REMARK    2  A    between atoms: C_3  and  N_4 
REMARK    3  A    between atoms: N_9  and  C_11 
REMARK    4  A    between atoms: C_11  and  C_12 
REMARK    5  A    between atoms: C_14  and  C_15 
REMARK    6  A    between atoms: C_15  and  C_16 
REMARK    7  A    between atoms: C_16  and  C_17 
REMARK    8  A    between atoms: C_17  and  O_18 
ROOT
HETATM    1  N   UNL     1     -44.421  59.756 -54.977  1.00  0.00    -0.066 N 
HETATM    2  H   UNL     1     -45.000  58.919 -55.121  1.00  0.00     0.280 HD
HETATM    3  C   UNL     1     -43.203  59.391 -54.157  1.00  0.00     0.246 C 
HETATM    4  C   UNL     1     -43.621  58.793 -52.801  1.00  0.00     0.009 C 
HETATM    5  C   UNL     1     -42.374  58.453 -51.962  1.00  0.00     0.246 C 
HETATM    6  N   UNL     1     -42.843  57.383 -51.001  1.00  0.00    -0.066 N 
HETATM    7  H   UNL     1     -43.112  57.843 -50.116  1.00  0.00     0.280 HD
HETATM    8  C   UNL     1     -44.077  56.733 -51.576  1.00  0.00     0.236 C 
HETATM    9  C   UNL     1     -44.259  57.399 -52.937  1.00  0.00     0.040 C 
HETATM   10  C   UNL     1     -44.542  59.794 -52.069  1.00  0.00     0.014 C 
HETATM   11  C   UNL     1     -45.722  60.253 -52.932  1.00  0.00     0.029 C 
HETATM   12  C   UNL     1     -45.282  60.792 -54.288  1.00  0.00     0.235 C 
ENDROOT
BRANCH   1  13
HETATM   13  C   UNL     1     -44.066  60.211 -56.396  1.00  0.00     0.273 C 
BRANCH  13  14
HETATM   14  C   UNL     1     -43.561  59.078 -57.252  1.00  0.00    -0.032 A 
HETATM   15  C   UNL     1     -42.403  59.231 -58.035  1.00  0.00     0.012 A 
HETATM   16  C   UNL     1     -41.983  58.204 -58.882  1.00  0.00     0.043 A 
HETATM   17  C   UNL     1     -42.710  57.020 -58.941  1.00  0.00     0.116 A 
HETATM   18  C   UNL     1     -43.842  56.839 -58.159  1.00  0.00     0.043 A 
HETATM   19  F   UNL     1     -42.315  56.046 -59.767  1.00  0.00    -0.206 F 
HETATM   20  C   UNL     1     -44.269  57.864 -57.312  1.00  0.00     0.012 A 
ENDBRANCH  13  14
ENDBRANCH   1  13
BRANCH   6  21
HETATM   21  C   UNL     1     -41.769  56.395 -50.583  1.00  0.00     0.280 C 
BRANCH  21  22
HETATM   22  C   UNL     1     -41.325  55.533 -51.716  1.00  0.00     0.009 A 
HETATM   23  S   UNL     1     -41.260  53.831 -51.509  1.00  0.00    -0.084 SA
HETATM   24  C   UNL     1     -40.708  53.587 -53.104  1.00  0.00     0.058 A 
HETATM   25  C   UNL     1     -40.577  54.775 -53.789  1.00  0.00     0.029 A 
HETATM   26  C   UNL     1     -40.937  55.902 -52.988  1.00  0.00     0.018 A 
BRANCH  24  27
HETATM   27  C   UNL     1     -40.422  52.297 -53.637  1.00  0.00    -0.057 C 
BRANCH  27  28
HETATM   28  C   UNL     1     -40.166  51.203 -54.064  1.00  0.00    -0.075 C 
BRANCH  28  29
HETATM   29  C   UNL     1     -39.887  49.875 -54.606  1.00  0.00     0.258 C 
BRANCH  29  30
HETATM   30  O   UNL     1     -39.319  49.065 -53.588  1.00  0.00    -0.389 OA
HETATM   31  H   UNL     1     -38.810  48.368 -54.036  1.00  0.00     0.210 HD
ENDBRANCH  29  30
ENDBRANCH  28  29
ENDBRANCH  27  28
ENDBRANCH  24  27
ENDBRANCH  21  22
ENDBRANCH   6  21
TORSDOF 8
ENDMDL
MODEL 10
REMARK VINA RESULT:      -7.0      2.528      3.152
REMARK  8 active torsions:
REMARK  status: ('A' for Active; 'I' for Inactive)
REMARK    1  A    between atoms: C_2  and  C_3 
REMARK    2  A    between atoms: C_3  and  N_4 
REMARK    3  A    between atoms: N_9  and  C_11 
REMARK    4  A    between atoms: C_11  and  C_12 
REMARK    5  A    between atoms: C_14  and  C_15 
REMARK    6  A    between atoms: C_15  and  C_16 
REMARK    7  A    between atoms: C_16  and  C_17 
REMARK    8  A    between atoms: C_17  and  O_18 
ROOT
HETATM    1  N   UNL     1     -41.127  55.239 -51.310  1.00  0.00    -0.066 N 
HETATM    2  H   UNL     1     -40.327  55.371 -51.942  1.00  0.00     0.280 HD
HETATM    3  C   UNL     1     -42.415  55.396 -52.088  1.00  0.00     0.246 C 
HETATM    4  C   UNL     1     -42.485  56.785 -52.749  1.00  0.00     0.009 C 
HETATM    5  C   UNL     1     -43.812  56.946 -53.513  1.00  0.00     0.246 C 
HETATM    6  N   UNL     1     -43.526  58.003 -54.555  1.00  0.00    -0.066 N 
HETATM    7  H   UNL     1     -43.822  58.917 -54.175  1.00  0.00     0.280 HD
HETATM    8  C   UNL     1     -42.035  58.060 -54.779  1.00  0.00     0.236 C 
HETATM    9  C   UNL     1     -41.475  56.947 -53.900  1.00  0.00     0.040 C 
HETATM   10  C   UNL     1     -42.318  57.871 -51.663  1.00  0.00     0.014 C 
HETATM   11  C   UNL     1     -41.071  57.659 -50.799  1.00  0.00     0.029 C 
HETATM   12  C   UNL     1     -41.003  56.259 -50.200  1.00  0.00     0.235 C 
ENDROOT
BRANCH   1  13
HETATM   13  C   UNL     1     -40.935  53.822 -50.761  1.00  0.00     0.273 C 
BRANCH  13  14
HETATM   14  C   UNL     1     -40.429  52.864 -51.809  1.00  0.00    -0.032 A 
HETATM   15  C   UNL     1     -40.549  53.166 -53.177  1.00  0.00     0.012 A 
HETATM   16  C   UNL     1     -40.147  52.241 -54.141  1.00  0.00     0.043 A 
HETATM   17  C   UNL     1     -39.614  51.020 -53.745  1.00  0.00     0.116 A 
HETATM   18  C   UNL     1     -39.464  50.711 -52.400  1.00  0.00     0.043 A 
HETATM   19  F   UNL     1     -39.246  50.129 -54.672  1.00  0.00    -0.206 F 
HETATM   20  C   UNL     1     -39.868  51.631 -51.430  1.00  0.00     0.012 A 
ENDBRANCH  13  14
ENDBRANCH   1  13
BRANCH   6  21
HETATM   21  C   UNL     1     -44.332  57.865 -55.834  1.00  0.00     0.280 C 
BRANCH  21  22
HETATM   22  C   UNL     1     -43.522  58.175 -57.046  1.00  0.00     0.009 A 
HETATM   23  S   UNL     1     -43.526  59.768 -57.683  1.00  0.00    -0.084 SA
HETATM   24  C   UNL     1     -42.461  59.342 -58.946  1.00  0.00     0.058 A 
HETATM   25  C   UNL     1     -42.102  58.014 -58.887  1.00  0.00     0.029 A 
HETATM   26  C   UNL     1     -42.712  57.337 -57.787  1.00  0.00     0.018 A 
BRANCH  24  27
HETATM   27  C   UNL     1     -42.016  60.270 -59.931  1.00  0.00    -0.057 C 
BRANCH  27  28
HETATM   28  C   UNL     1     -41.664  61.051 -60.774  1.00  0.00    -0.075 C 
BRANCH  28  29
HETATM   29  C   UNL     1     -41.229  62.026 -61.771  1.00  0.00     0.258 C 
BRANCH  29  30
HETATM   30  O   UNL     1     -41.506  61.524 -63.069  1.00  0.00    -0.389 OA
HETATM   31  H   UNL     1     -40.876  61.949 -63.676  1.00  0.00     0.210 HD
ENDBRANCH  29  30
ENDBRANCH  28  29
ENDBRANCH  27  28
ENDBRANCH  24  27
ENDBRANCH  21  22
ENDBRANCH   6  21
TORSDOF 8
ENDMDL
