MODEL 1
REMARK VINA RESULT:      -8.8      0.000      0.000
REMARK  9 active torsions:
REMARK  status: ('A' for Active; 'I' for Inactive)
REMARK    1  A    between atoms: C_2  and  O_3 
REMARK    2  A    between atoms: O_3  and  C_4 
REMARK    3  A    between atoms: C_7  and  C_8 
REMARK       I    between atoms: C_8  and  N_9 
REMARK    4  A    between atoms: N_9  and  C_10 
REMARK    5  A    between atoms: C_10  and  N_11 
REMARK    6  A    between atoms: N_11  and  C_12 
REMARK    7  A    between atoms: C_15  and  N_16 
REMARK    8  A    between atoms: N_19  and  C_21 
REMARK    9  A    between atoms: C_21  and  C_22 
ROOT
HETATM    1  C   UNL     1     -42.855  59.918 -52.931  1.00  0.00     0.034 C 
HETATM    2  C   UNL     1     -41.854  59.545 -52.039  1.00  0.00     0.032 C 
HETATM    3  C   UNL     1     -41.964  58.367 -51.294  1.00  0.00     0.031 C 
HETATM    4  C   UNL     1     -43.052  57.500 -51.454  1.00  0.00     0.030 C 
HETATM    5  C   UNL     1     -44.113  57.975 -52.247  1.00  0.00     0.031 C 
HETATM    6  C   UNL     1     -44.027  59.175 -52.971  1.00  0.00     0.032 C 
ENDROOT
BRANCH   1   7
HETATM    7  N   UNL     1     -42.719  61.036 -53.775  1.00  0.00    -0.333 N 
HETATM    8  H   UNL     1     -42.278  61.861 -53.381  1.00  0.00     0.168 HD
BRANCH   7   9
HETATM    9  C   UNL     1     -43.061  61.121 -55.092  1.00  0.00     0.179 C 
HETATM   10  S   UNL     1     -43.687  62.538 -55.709  1.00  0.00    -0.040 SA
BRANCH   9  11
HETATM   11  N   UNL     1     -42.921  60.033 -55.913  1.00  0.00    -0.299 N 
HETATM   12  C   UNL     1     -42.034  59.931 -56.974  1.00  0.00     0.257 C 
HETATM   13  O   UNL     1     -41.149  60.722 -57.281  1.00  0.00    -0.267 OA
HETATM   14  H   UNL     1     -43.208  59.156 -55.495  1.00  0.00     0.171 HD
BRANCH  12  15
HETATM   15  C   UNL     1     -42.150  58.704 -57.782  1.00  0.00     0.032 A 
HETATM   16  C   UNL     1     -42.597  57.518 -57.195  1.00  0.00     0.020 A 
HETATM   17  C   UNL     1     -42.903  56.428 -58.012  1.00  0.00     0.038 A 
HETATM   18  C   UNL     1     -42.761  56.512 -59.403  1.00  0.00     0.069 A 
HETATM   19  C   UNL     1     -42.252  57.680 -59.971  1.00  0.00     0.038 A 
HETATM   20  C   UNL     1     -41.966  58.785 -59.164  1.00  0.00     0.020 A 
BRANCH  18  21
HETATM   21  O   UNL     1     -43.189  55.405 -60.079  1.00  0.00    -0.347 OA
BRANCH  21  22
HETATM   22  C   UNL     1     -44.561  54.999 -59.969  1.00  0.00     0.120 C 
HETATM   23  C   UNL     1     -44.663  53.557 -59.473  1.00  0.00     0.040 C 
HETATM   24  C   UNL     1     -45.157  55.094 -61.373  1.00  0.00     0.040 C 
ENDBRANCH  21  22
ENDBRANCH  18  21
ENDBRANCH  12  15
ENDBRANCH   9  11
ENDBRANCH   7   9
ENDBRANCH   1   7
BRANCH   4  25
HETATM   25  N   UNL     1     -43.112  56.223 -50.870  1.00  0.00    -0.378 N 
HETATM   26  C   UNL     1     -41.952  55.715 -50.107  1.00  0.00     0.150 C 
HETATM   27  C   UNL     1     -40.848  55.160 -51.039  1.00  0.00     0.255 C 
HETATM   28  N   UNL     1     -41.406  54.142 -52.039  1.00  0.00    -0.064 N 
HETATM   29  H   UNL     1     -41.688  53.318 -51.496  1.00  0.00     0.280 HD
HETATM   30  C   UNL     1     -42.652  54.672 -52.758  1.00  0.00     0.255 C 
HETATM   31  C   UNL     1     -43.699  55.172 -51.739  1.00  0.00     0.150 C 
BRANCH  28  32
HETATM   32  C   UNL     1     -40.365  53.688 -53.039  1.00  0.00     0.273 C 
BRANCH  32  33
HETATM   33  C   UNL     1     -40.077  52.214 -52.962  1.00  0.00    -0.033 A 
HETATM   34  C   UNL     1     -40.254  51.393 -54.087  1.00  0.00     0.009 A 
HETATM   35  C   UNL     1     -40.018  50.020 -54.003  1.00  0.00     0.001 A 
HETATM   36  C   UNL     1     -39.608  49.453 -52.797  1.00  0.00     0.000 A 
HETATM   37  C   UNL     1     -39.425  50.258 -51.675  1.00  0.00     0.001 A 
HETATM   38  C   UNL     1     -39.654  51.633 -51.756  1.00  0.00     0.009 A 
ENDBRANCH  32  33
ENDBRANCH  28  32
ENDBRANCH   4  25
TORSDOF 9
ENDMDL
MODEL 2
REMARK VINA RESULT:      -8.8      5.668      9.461
REMARK  9 active torsions:
REMARK  status: ('A' for Active; 'I' for Inactive)
REMARK    1  A    between atoms: C_2  and  O_3 
REMARK    2  A    between atoms: O_3  and  C_4 
REMARK    3  A    between atoms: C_7  and  C_8 
REMARK       I    between atoms: C_8  and  N_9 
REMARK    4  A    between atoms: N_9  and  C_10 
REMARK    5  A    between atoms: C_10  and  N_11 
REMARK    6  A    between atoms: N_11  and  C_12 
REMARK    7  A    between atoms: C_15  and  N_16 
REMARK    8  A    between atoms: N_19  and  C_21 
REMARK    9  A    between atoms: C_21  and  C_22 
ROOT
HETATM    1  C   UNL     1     -43.182  59.717 -51.990  1.00  0.00     0.034 C 
HETATM    2  C   UNL     1     -44.129  58.706 -51.849  1.00  0.00     0.032 C 
HETATM    3  C   UNL     1     -44.172  57.638 -52.751  1.00  0.00     0.031 C 
HETATM    4  C   UNL     1     -43.240  57.520 -53.789  1.00  0.00     0.030 C 
HETATM    5  C   UNL     1     -42.395  58.627 -53.994  1.00  0.00     0.031 C 
HETATM    6  C   UNL     1     -42.370  59.721 -53.116  1.00  0.00     0.032 C 
ENDROOT
BRANCH   1   7
HETATM    7  N   UNL     1     -43.043  60.742 -51.036  1.00  0.00    -0.333 N 
HETATM    8  H   UNL     1     -42.163  60.788 -50.531  1.00  0.00     0.168 HD
BRANCH   7   9
HETATM    9  C   UNL     1     -43.940  61.728 -50.750  1.00  0.00     0.179 C 
HETATM   10  S   UNL     1     -44.760  62.501 -51.979  1.00  0.00    -0.040 SA
BRANCH   9  11
HETATM   11  N   UNL     1     -44.153  62.114 -49.453  1.00  0.00    -0.299 N 
HETATM   12  C   UNL     1     -45.003  61.488 -48.553  1.00  0.00     0.257 C 
HETATM   13  O   UNL     1     -45.602  60.430 -48.710  1.00  0.00    -0.267 OA
HETATM   14  H   UNL     1     -43.388  62.636 -49.042  1.00  0.00     0.171 HD
BRANCH  12  15
HETATM   15  C   UNL     1     -45.150  62.157 -47.248  1.00  0.00     0.032 A 
HETATM   16  C   UNL     1     -45.033  61.423 -46.067  1.00  0.00     0.020 A 
HETATM   17  C   UNL     1     -44.963  62.101 -44.848  1.00  0.00     0.038 A 
HETATM   18  C   UNL     1     -45.014  63.500 -44.802  1.00  0.00     0.069 A 
HETATM   19  C   UNL     1     -45.196  64.218 -45.983  1.00  0.00     0.038 A 
HETATM   20  C   UNL     1     -45.243  63.550 -47.211  1.00  0.00     0.020 A 
BRANCH  18  21
HETATM   21  O   UNL     1     -44.836  64.028 -43.555  1.00  0.00    -0.347 OA
BRANCH  21  22
HETATM   22  C   UNL     1     -44.121  63.274 -42.566  1.00  0.00     0.120 C 
HETATM   23  C   UNL     1     -44.778  63.417 -41.193  1.00  0.00     0.040 C 
HETATM   24  C   UNL     1     -42.709  63.854 -42.513  1.00  0.00     0.040 C 
ENDBRANCH  21  22
ENDBRANCH  18  21
ENDBRANCH  12  15
ENDBRANCH   9  11
ENDBRANCH   7   9
ENDBRANCH   1   7
BRANCH   4  25
HETATM   25  N   UNL     1     -43.128  56.375 -54.598  1.00  0.00    -0.378 N 
HETATM   26  C   UNL     1     -43.702  55.095 -54.132  1.00  0.00     0.150 C 
HETATM   27  C   UNL     1     -42.775  54.382 -53.118  1.00  0.00     0.255 C 
HETATM   28  N   UNL     1     -41.346  54.245 -53.653  1.00  0.00    -0.064 N 
HETATM   29  H   UNL     1     -41.386  53.584 -54.436  1.00  0.00     0.280 HD
HETATM   30  C   UNL     1     -40.809  55.575 -54.197  1.00  0.00     0.255 C 
HETATM   31  C   UNL     1     -41.794  56.184 -55.219  1.00  0.00     0.150 C 
BRANCH  28  32
HETATM   32  C   UNL     1     -40.398  53.669 -52.624  1.00  0.00     0.273 C 
BRANCH  32  33
HETATM   33  C   UNL     1     -40.098  52.213 -52.849  1.00  0.00    -0.033 A 
HETATM   34  C   UNL     1     -40.222  51.648 -54.128  1.00  0.00     0.009 A 
HETATM   35  C   UNL     1     -39.976  50.288 -54.327  1.00  0.00     0.001 A 
HETATM   36  C   UNL     1     -39.608  49.480 -53.253  1.00  0.00     0.000 A 
HETATM   37  C   UNL     1     -39.477  50.029 -51.980  1.00  0.00     0.001 A 
HETATM   38  C   UNL     1     -39.716  51.390 -51.777  1.00  0.00     0.009 A 
ENDBRANCH  32  33
ENDBRANCH  28  32
ENDBRANCH   4  25
TORSDOF 9
ENDMDL
MODEL 3
REMARK VINA RESULT:      -8.5      5.361      9.158
REMARK  9 active torsions:
REMARK  status: ('A' for Active; 'I' for Inactive)
REMARK    1  A    between atoms: C_2  and  O_3 
REMARK    2  A    between atoms: O_3  and  C_4 
REMARK    3  A    between atoms: C_7  and  C_8 
REMARK       I    between atoms: C_8  and  N_9 
REMARK    4  A    between atoms: N_9  and  C_10 
REMARK    5  A    between atoms: C_10  and  N_11 
REMARK    6  A    between atoms: N_11  and  C_12 
REMARK    7  A    between atoms: C_15  and  N_16 
REMARK    8  A    between atoms: N_19  and  C_21 
REMARK    9  A    between atoms: C_21  and  C_22 
ROOT
HETATM    1  C   UNL     1     -43.419  59.844 -51.849  1.00  0.00     0.034 C 
HETATM    2  C   UNL     1     -44.509  58.986 -51.971  1.00  0.00     0.032 C 
HETATM    3  C   UNL     1     -44.402  57.640 -51.606  1.00  0.00     0.031 C 
HETATM    4  C   UNL     1     -43.221  57.122 -51.061  1.00  0.00     0.030 C 
HETATM    5  C   UNL     1     -42.099  57.972 -51.089  1.00  0.00     0.031 C 
HETATM    6  C   UNL     1     -42.188  59.315 -51.488  1.00  0.00     0.032 C 
ENDROOT
BRANCH   1   7
HETATM    7  N   UNL     1     -43.530  61.224 -52.101  1.00  0.00    -0.333 N 
HETATM    8  H   UNL     1     -42.960  61.604 -52.850  1.00  0.00     0.168 HD
BRANCH   7   9
HETATM    9  C   UNL     1     -44.367  62.109 -51.488  1.00  0.00     0.179 C 
HETATM   10  S   UNL     1     -45.424  63.029 -52.390  1.00  0.00    -0.040 SA
BRANCH   9  11
HETATM   11  N   UNL     1     -44.325  62.272 -50.128  1.00  0.00    -0.299 N 
HETATM   12  C   UNL     1     -45.342  61.944 -49.244  1.00  0.00     0.257 C 
HETATM   13  O   UNL     1     -46.383  61.348 -49.497  1.00  0.00    -0.267 OA
HETATM   14  H   UNL     1     -43.390  62.278 -49.738  1.00  0.00     0.171 HD
BRANCH  12  15
HETATM   15  C   UNL     1     -45.106  62.318 -47.838  1.00  0.00     0.032 A 
HETATM   16  C   UNL     1     -45.114  63.662 -47.460  1.00  0.00     0.020 A 
HETATM   17  C   UNL     1     -45.101  63.988 -46.102  1.00  0.00     0.038 A 
HETATM   18  C   UNL     1     -45.076  62.985 -45.125  1.00  0.00     0.069 A 
HETATM   19  C   UNL     1     -45.003  61.648 -45.516  1.00  0.00     0.038 A 
HETATM   20  C   UNL     1     -45.040  61.312 -46.873  1.00  0.00     0.020 A 
BRANCH  18  21
HETATM   21  O   UNL     1     -45.165  63.448 -43.843  1.00  0.00    -0.347 OA
BRANCH  21  22
HETATM   22  C   UNL     1     -43.994  63.963 -43.196  1.00  0.00     0.120 C 
HETATM   23  C   UNL     1     -43.084  62.825 -42.733  1.00  0.00     0.040 C 
HETATM   24  C   UNL     1     -44.478  64.750 -41.979  1.00  0.00     0.040 C 
ENDBRANCH  21  22
ENDBRANCH  18  21
ENDBRANCH  12  15
ENDBRANCH   9  11
ENDBRANCH   7   9
ENDBRANCH   1   7
BRANCH   4  25
HETATM   25  N   UNL     1     -43.127  55.833 -50.509  1.00  0.00    -0.378 N 
HETATM   26  C   UNL     1     -41.867  55.407 -49.863  1.00  0.00     0.150 C 
HETATM   27  C   UNL     1     -40.809  54.962 -50.901  1.00  0.00     0.255 C 
HETATM   28  N   UNL     1     -41.371  53.922 -51.875  1.00  0.00    -0.064 N 
HETATM   29  H   UNL     1     -41.537  53.067 -51.332  1.00  0.00     0.280 HD
HETATM   30  C   UNL     1     -42.714  54.362 -52.469  1.00  0.00     0.255 C 
HETATM   31  C   UNL     1     -43.703  54.755 -51.351  1.00  0.00     0.150 C 
BRANCH  28  32
HETATM   32  C   UNL     1     -40.390  53.573 -52.974  1.00  0.00     0.273 C 
BRANCH  32  33
HETATM   33  C   UNL     1     -40.113  52.098 -53.071  1.00  0.00    -0.033 A 
HETATM   34  C   UNL     1     -39.623  51.390 -51.963  1.00  0.00     0.009 A 
HETATM   35  C   UNL     1     -39.334  50.028 -52.067  1.00  0.00     0.001 A 
HETATM   36  C   UNL     1     -39.528  49.362 -53.276  1.00  0.00     0.000 A 
HETATM   37  C   UNL     1     -40.018  50.053 -54.382  1.00  0.00     0.001 A 
HETATM   38  C   UNL     1     -40.314  51.414 -54.281  1.00  0.00     0.009 A 
ENDBRANCH  32  33
ENDBRANCH  28  32
ENDBRANCH   4  25
TORSDOF 9
ENDMDL
MODEL 4
REMARK VINA RESULT:      -8.4      1.211      1.578
REMARK  9 active torsions:
REMARK  status: ('A' for Active; 'I' for Inactive)
REMARK    1  A    between atoms: C_2  and  O_3 
REMARK    2  A    between atoms: O_3  and  C_4 
REMARK    3  A    between atoms: C_7  and  C_8 
REMARK       I    between atoms: C_8  and  N_9 
REMARK    4  A    between atoms: N_9  and  C_10 
REMARK    5  A    between atoms: C_10  and  N_11 
REMARK    6  A    between atoms: N_11  and  C_12 
REMARK    7  A    between atoms: C_15  and  N_16 
REMARK    8  A    between atoms: N_19  and  C_21 
REMARK    9  A    between atoms: C_21  and  C_22 
ROOT
HETATM    1  C   UNL     1     -43.797  61.307 -54.213  1.00  0.00     0.034 C 
HETATM    2  C   UNL     1     -42.520  60.994 -53.757  1.00  0.00     0.032 C 
HETATM    3  C   UNL     1     -42.332  60.007 -52.784  1.00  0.00     0.031 C 
HETATM    4  C   UNL     1     -43.407  59.269 -52.274  1.00  0.00     0.030 C 
HETATM    5  C   UNL     1     -44.692  59.709 -52.642  1.00  0.00     0.031 C 
HETATM    6  C   UNL     1     -44.892  60.724 -53.591  1.00  0.00     0.032 C 
ENDROOT
BRANCH   1   7
HETATM    7  N   UNL     1     -44.006  62.214 -55.269  1.00  0.00    -0.333 N 
HETATM    8  H   UNL     1     -44.497  63.075 -55.050  1.00  0.00     0.168 HD
BRANCH   7   9
HETATM    9  C   UNL     1     -43.568  62.095 -56.555  1.00  0.00     0.179 C 
HETATM   10  S   UNL     1     -43.289  63.455 -57.478  1.00  0.00    -0.040 SA
BRANCH   9  11
HETATM   11  N   UNL     1     -43.382  60.856 -57.110  1.00  0.00    -0.299 N 
HETATM   12  C   UNL     1     -42.161  60.311 -57.480  1.00  0.00     0.257 C 
HETATM   13  O   UNL     1     -41.046  60.774 -57.266  1.00  0.00    -0.267 OA
HETATM   14  H   UNL     1     -44.111  60.188 -56.892  1.00  0.00     0.171 HD
BRANCH  12  15
HETATM   15  C   UNL     1     -42.229  59.007 -58.163  1.00  0.00     0.032 A 
HETATM   16  C   UNL     1     -42.516  57.850 -57.436  1.00  0.00     0.020 A 
HETATM   17  C   UNL     1     -42.786  56.664 -58.122  1.00  0.00     0.038 A 
HETATM   18  C   UNL     1     -42.765  56.626 -59.523  1.00  0.00     0.069 A 
HETATM   19  C   UNL     1     -42.414  57.772 -60.234  1.00  0.00     0.038 A 
HETATM   20  C   UNL     1     -42.166  58.970 -59.557  1.00  0.00     0.020 A 
BRANCH  18  21
HETATM   21  O   UNL     1     -43.144  55.427 -60.057  1.00  0.00    -0.347 OA
BRANCH  21  22
HETATM   22  C   UNL     1     -44.515  55.016 -59.965  1.00  0.00     0.120 C 
HETATM   23  C   UNL     1     -44.622  53.600 -59.401  1.00  0.00     0.040 C 
HETATM   24  C   UNL     1     -45.071  55.036 -61.389  1.00  0.00     0.040 C 
ENDBRANCH  21  22
ENDBRANCH  18  21
ENDBRANCH  12  15
ENDBRANCH   9  11
ENDBRANCH   7   9
ENDBRANCH   1   7
BRANCH   4  25
HETATM   25  N   UNL     1     -43.247  58.148 -51.441  1.00  0.00    -0.378 N 
HETATM   26  C   UNL     1     -41.894  57.771 -50.979  1.00  0.00     0.150 C 
HETATM   27  C   UNL     1     -41.110  56.990 -52.061  1.00  0.00     0.255 C 
HETATM   28  N   UNL     1     -41.916  55.805 -52.602  1.00  0.00    -0.064 N 
HETATM   29  H   UNL     1     -41.993  55.126 -51.836  1.00  0.00     0.280 HD
HETATM   30  C   UNL     1     -43.338  56.215 -53.002  1.00  0.00     0.255 C 
HETATM   31  C   UNL     1     -44.039  56.959 -51.844  1.00  0.00     0.150 C 
BRANCH  28  32
HETATM   32  C   UNL     1     -41.218  55.111 -53.751  1.00  0.00     0.273 C 
BRANCH  32  33
HETATM   33  C   UNL     1     -40.649  53.771 -53.372  1.00  0.00    -0.033 A 
HETATM   34  C   UNL     1     -40.410  52.795 -54.352  1.00  0.00     0.009 A 
HETATM   35  C   UNL     1     -39.913  51.541 -53.993  1.00  0.00     0.001 A 
HETATM   36  C   UNL     1     -39.655  51.247 -52.656  1.00  0.00     0.000 A 
HETATM   37  C   UNL     1     -39.885  52.209 -51.674  1.00  0.00     0.001 A 
HETATM   38  C   UNL     1     -40.375  53.467 -52.029  1.00  0.00     0.009 A 
ENDBRANCH  32  33
ENDBRANCH  28  32
ENDBRANCH   4  25
TORSDOF 9
ENDMDL
MODEL 5
REMARK VINA RESULT:      -8.4      2.450      7.088
REMARK  9 active torsions:
REMARK  status: ('A' for Active; 'I' for Inactive)
REMARK    1  A    between atoms: C_2  and  O_3 
REMARK    2  A    between atoms: O_3  and  C_4 
REMARK    3  A    between atoms: C_7  and  C_8 
REMARK       I    between atoms: C_8  and  N_9 
REMARK    4  A    between atoms: N_9  and  C_10 
REMARK    5  A    between atoms: C_10  and  N_11 
REMARK    6  A    between atoms: N_11  and  C_12 
REMARK    7  A    between atoms: C_15  and  N_16 
REMARK    8  A    between atoms: N_19  and  C_21 
REMARK    9  A    between atoms: C_21  and  C_22 
ROOT
HETATM    1  C   UNL     1     -43.445  60.128 -52.526  1.00  0.00     0.034 C 
HETATM    2  C   UNL     1     -44.613  59.525 -52.983  1.00  0.00     0.032 C 
HETATM    3  C   UNL     1     -45.103  59.798 -54.264  1.00  0.00     0.031 C 
HETATM    4  C   UNL     1     -44.415  60.641 -55.146  1.00  0.00     0.030 C 
HETATM    5  C   UNL     1     -43.325  61.348 -54.604  1.00  0.00     0.031 C 
HETATM    6  C   UNL     1     -42.848  61.108 -53.307  1.00  0.00     0.032 C 
ENDROOT
BRANCH   1   7
HETATM    7  N   UNL     1     -42.869  59.787 -51.288  1.00  0.00    -0.333 N 
HETATM    8  H   UNL     1     -43.337  60.124 -50.452  1.00  0.00     0.168 HD
BRANCH   7   9
HETATM    9  C   UNL     1     -41.778  58.998 -51.076  1.00  0.00     0.179 C 
HETATM   10  S   UNL     1     -40.501  59.557 -50.162  1.00  0.00    -0.040 SA
BRANCH   9  11
HETATM   11  N   UNL     1     -41.707  57.751 -51.639  1.00  0.00    -0.299 N 
HETATM   12  C   UNL     1     -41.079  57.438 -52.835  1.00  0.00     0.257 C 
HETATM   13  O   UNL     1     -40.382  58.176 -53.523  1.00  0.00    -0.267 OA
HETATM   14  H   UNL     1     -41.791  56.990 -50.976  1.00  0.00     0.171 HD
BRANCH  12  15
HETATM   15  C   UNL     1     -41.237  56.046 -53.290  1.00  0.00     0.032 A 
HETATM   16  C   UNL     1     -40.521  55.584 -54.396  1.00  0.00     0.020 A 
HETATM   17  C   UNL     1     -40.518  54.218 -54.684  1.00  0.00     0.038 A 
HETATM   18  C   UNL     1     -41.225  53.314 -53.881  1.00  0.00     0.069 A 
HETATM   19  C   UNL     1     -41.988  53.796 -52.817  1.00  0.00     0.038 A 
HETATM   20  C   UNL     1     -41.978  55.159 -52.507  1.00  0.00     0.020 A 
BRANCH  18  21
HETATM   21  O   UNL     1     -41.052  52.004 -54.223  1.00  0.00    -0.347 OA
BRANCH  21  22
HETATM   22  C   UNL     1     -39.777  51.383 -54.008  1.00  0.00     0.120 C 
HETATM   23  C   UNL     1     -39.788  49.934 -54.498  1.00  0.00     0.040 C 
HETATM   24  C   UNL     1     -39.530  51.404 -52.500  1.00  0.00     0.040 C 
ENDBRANCH  21  22
ENDBRANCH  18  21
ENDBRANCH  12  15
ENDBRANCH   9  11
ENDBRANCH   7   9
ENDBRANCH   1   7
BRANCH   4  25
HETATM   25  N   UNL     1     -44.766  60.794 -56.498  1.00  0.00    -0.378 N 
HETATM   26  C   UNL     1     -45.620  59.777 -57.149  1.00  0.00     0.150 C 
HETATM   27  C   UNL     1     -44.808  58.530 -57.575  1.00  0.00     0.255 C 
HETATM   28  N   UNL     1     -43.578  58.909 -58.406  1.00  0.00    -0.064 N 
HETATM   29  H   UNL     1     -43.926  59.276 -59.299  1.00  0.00     0.280 HD
HETATM   30  C   UNL     1     -42.757  60.018 -57.738  1.00  0.00     0.255 C 
HETATM   31  C   UNL     1     -43.654  61.224 -57.382  1.00  0.00     0.150 C 
BRANCH  28  32
HETATM   32  C   UNL     1     -42.704  57.714 -58.719  1.00  0.00     0.273 C 
BRANCH  32  33
HETATM   33  C   UNL     1     -43.472  56.558 -59.299  1.00  0.00    -0.033 A 
HETATM   34  C   UNL     1     -44.236  56.723 -60.465  1.00  0.00     0.009 A 
HETATM   35  C   UNL     1     -44.975  55.656 -60.982  1.00  0.00     0.001 A 
HETATM   36  C   UNL     1     -44.962  54.420 -60.338  1.00  0.00     0.000 A 
HETATM   37  C   UNL     1     -44.205  54.243 -59.183  1.00  0.00     0.001 A 
HETATM   38  C   UNL     1     -43.459  55.305 -58.666  1.00  0.00     0.009 A 
ENDBRANCH  32  33
ENDBRANCH  28  32
ENDBRANCH   4  25
TORSDOF 9
ENDMDL
MODEL 6
REMARK VINA RESULT:      -8.1      6.367     10.089
REMARK  9 active torsions:
REMARK  status: ('A' for Active; 'I' for Inactive)
REMARK    1  A    between atoms: C_2  and  O_3 
REMARK    2  A    between atoms: O_3  and  C_4 
REMARK    3  A    between atoms: C_7  and  C_8 
REMARK       I    between atoms: C_8  and  N_9 
REMARK    4  A    between atoms: N_9  and  C_10 
REMARK    5  A    between atoms: C_10  and  N_11 
REMARK    6  A    between atoms: N_11  and  C_12 
REMARK    7  A    between atoms: C_15  and  N_16 
REMARK    8  A    between atoms: N_19  and  C_21 
REMARK    9  A    between atoms: C_21  and  C_22 
ROOT
HETATM    1  C   UNL     1     -44.701  61.200 -51.175  1.00  0.00     0.034 C 
HETATM    2  C   UNL     1     -44.216  61.115 -52.476  1.00  0.00     0.032 C 
HETATM    3  C   UNL     1     -42.951  60.576 -52.732  1.00  0.00     0.031 C 
HETATM    4  C   UNL     1     -42.153  60.062 -51.703  1.00  0.00     0.030 C 
HETATM    5  C   UNL     1     -42.605  60.298 -50.391  1.00  0.00     0.031 C 
HETATM    6  C   UNL     1     -43.857  60.871 -50.123  1.00  0.00     0.032 C 
ENDROOT
BRANCH   1   7
HETATM    7  N   UNL     1     -46.012  61.632 -50.898  1.00  0.00    -0.333 N 
HETATM    8  H   UNL     1     -46.756  60.951 -51.011  1.00  0.00     0.168 HD
BRANCH   7   9
HETATM    9  C   UNL     1     -46.395  62.855 -50.434  1.00  0.00     0.179 C 
HETATM   10  S   UNL     1     -47.242  63.901 -51.419  1.00  0.00    -0.040 SA
BRANCH   9  11
HETATM   11  N   UNL     1     -46.063  63.248 -49.164  1.00  0.00    -0.299 N 
HETATM   12  C   UNL     1     -46.896  63.192 -48.057  1.00  0.00     0.257 C 
HETATM   13  O   UNL     1     -48.006  62.677 -47.988  1.00  0.00    -0.267 OA
HETATM   14  H   UNL     1     -45.070  63.222 -48.967  1.00  0.00     0.171 HD
BRANCH  12  15
HETATM   15  C   UNL     1     -46.349  63.780 -46.821  1.00  0.00     0.032 A 
HETATM   16  C   UNL     1     -47.004  63.586 -45.604  1.00  0.00     0.020 A 
HETATM   17  C   UNL     1     -46.367  63.964 -44.420  1.00  0.00     0.038 A 
HETATM   18  C   UNL     1     -45.088  64.536 -44.445  1.00  0.00     0.069 A 
HETATM   19  C   UNL     1     -44.472  64.782 -45.671  1.00  0.00     0.038 A 
HETATM   20  C   UNL     1     -45.092  64.386 -46.860  1.00  0.00     0.020 A 
BRANCH  18  21
HETATM   21  O   UNL     1     -44.551  64.763 -43.210  1.00  0.00    -0.347 OA
BRANCH  21  22
HETATM   22  C   UNL     1     -44.413  63.672 -42.290  1.00  0.00     0.120 C 
HETATM   23  C   UNL     1     -44.167  64.185 -40.871  1.00  0.00     0.040 C 
HETATM   24  C   UNL     1     -43.201  62.863 -42.752  1.00  0.00     0.040 C 
ENDBRANCH  21  22
ENDBRANCH  18  21
ENDBRANCH  12  15
ENDBRANCH   9  11
ENDBRANCH   7   9
ENDBRANCH   1   7
BRANCH   4  25
HETATM   25  N   UNL     1     -40.966  59.345 -51.932  1.00  0.00    -0.378 N 
HETATM   26  C   UNL     1     -40.684  58.815 -53.283  1.00  0.00     0.150 C 
HETATM   27  C   UNL     1     -41.448  57.497 -53.557  1.00  0.00     0.255 C 
HETATM   28  N   UNL     1     -41.222  56.468 -52.444  1.00  0.00    -0.064 N 
HETATM   29  H   UNL     1     -40.239  56.182 -52.501  1.00  0.00     0.280 HD
HETATM   30  C   UNL     1     -41.450  57.071 -51.053  1.00  0.00     0.255 C 
HETATM   31  C   UNL     1     -40.621  58.362 -50.875  1.00  0.00     0.150 C 
BRANCH  28  32
HETATM   32  C   UNL     1     -42.064  55.225 -52.631  1.00  0.00     0.273 C 
BRANCH  32  33
HETATM   33  C   UNL     1     -41.244  53.987 -52.867  1.00  0.00    -0.033 A 
HETATM   34  C   UNL     1     -41.209  53.386 -54.135  1.00  0.00     0.009 A 
HETATM   35  C   UNL     1     -40.474  52.217 -54.342  1.00  0.00     0.001 A 
HETATM   36  C   UNL     1     -39.772  51.636 -53.288  1.00  0.00     0.000 A 
HETATM   37  C   UNL     1     -39.796  52.225 -52.026  1.00  0.00     0.001 A 
HETATM   38  C   UNL     1     -40.524  53.398 -51.815  1.00  0.00     0.009 A 
ENDBRANCH  32  33
ENDBRANCH  28  32
ENDBRANCH   4  25
TORSDOF 9
ENDMDL
MODEL 7
REMARK VINA RESULT:      -8.1      3.105      4.989
REMARK  9 active torsions:
REMARK  status: ('A' for Active; 'I' for Inactive)
REMARK    1  A    between atoms: C_2  and  O_3 
REMARK    2  A    between atoms: O_3  and  C_4 
REMARK    3  A    between atoms: C_7  and  C_8 
REMARK       I    between atoms: C_8  and  N_9 
REMARK    4  A    between atoms: N_9  and  C_10 
REMARK    5  A    between atoms: C_10  and  N_11 
REMARK    6  A    between atoms: N_11  and  C_12 
REMARK    7  A    between atoms: C_15  and  N_16 
REMARK    8  A    between atoms: N_19  and  C_21 
REMARK    9  A    between atoms: C_21  and  C_22 
ROOT
HETATM    1  C   UNL     1     -42.671  55.738 -56.342  1.00  0.00     0.034 C 
HETATM    2  C   UNL     1     -42.542  56.876 -55.551  1.00  0.00     0.032 C 
HETATM    3  C   UNL     1     -42.811  56.824 -54.179  1.00  0.00     0.031 C 
HETATM    4  C   UNL     1     -43.167  55.626 -53.548  1.00  0.00     0.030 C 
HETATM    5  C   UNL     1     -43.432  54.534 -54.395  1.00  0.00     0.031 C 
HETATM    6  C   UNL     1     -43.200  54.586 -55.778  1.00  0.00     0.032 C 
ENDROOT
BRANCH   1   7
HETATM    7  N   UNL     1     -42.299  55.733 -57.700  1.00  0.00    -0.333 N 
HETATM    8  H   UNL     1     -41.482  55.186 -57.954  1.00  0.00     0.168 HD
BRANCH   7   9
HETATM    9  C   UNL     1     -42.952  56.335 -58.734  1.00  0.00     0.179 C 
HETATM   10  S   UNL     1     -44.165  55.530 -59.546  1.00  0.00    -0.040 SA
BRANCH   9  11
HETATM   11  N   UNL     1     -42.596  57.596 -59.136  1.00  0.00    -0.299 N 
HETATM   12  C   UNL     1     -43.273  58.765 -58.821  1.00  0.00     0.257 C 
HETATM   13  O   UNL     1     -44.212  58.893 -58.044  1.00  0.00    -0.267 OA
HETATM   14  H   UNL     1     -41.612  57.704 -59.348  1.00  0.00     0.171 HD
BRANCH  12  15
HETATM   15  C   UNL     1     -42.761  59.988 -59.465  1.00  0.00     0.032 A 
HETATM   16  C   UNL     1     -42.621  61.163 -58.726  1.00  0.00     0.020 A 
HETATM   17  C   UNL     1     -41.940  62.245 -59.289  1.00  0.00     0.038 A 
HETATM   18  C   UNL     1     -41.407  62.162 -60.582  1.00  0.00     0.069 A 
HETATM   19  C   UNL     1     -41.610  61.005 -61.333  1.00  0.00     0.038 A 
HETATM   20  C   UNL     1     -42.269  59.908 -60.770  1.00  0.00     0.020 A 
BRANCH  18  21
HETATM   21  O   UNL     1     -40.685  63.257 -60.963  1.00  0.00    -0.347 OA
BRANCH  21  22
HETATM   22  C   UNL     1     -39.252  63.195 -60.955  1.00  0.00     0.120 C 
HETATM   23  C   UNL     1     -38.675  64.077 -59.848  1.00  0.00     0.040 C 
HETATM   24  C   UNL     1     -38.787  63.718 -62.313  1.00  0.00     0.040 C 
ENDBRANCH  21  22
ENDBRANCH  18  21
ENDBRANCH  12  15
ENDBRANCH   9  11
ENDBRANCH   7   9
ENDBRANCH   1   7
BRANCH   4  25
HETATM   25  N   UNL     1     -43.261  55.488 -52.152  1.00  0.00    -0.378 N 
HETATM   26  C   UNL     1     -42.318  56.223 -51.282  1.00  0.00     0.150 C 
HETATM   27  C   UNL     1     -40.946  55.513 -51.188  1.00  0.00     0.255 C 
HETATM   28  N   UNL     1     -41.095  54.037 -50.807  1.00  0.00    -0.064 N 
HETATM   29  H   UNL     1     -41.435  54.014 -49.839  1.00  0.00     0.280 HD
HETATM   30  C   UNL     1     -42.135  53.323 -51.679  1.00  0.00     0.255 C 
HETATM   31  C   UNL     1     -43.471  54.097 -51.680  1.00  0.00     0.150 C 
BRANCH  28  32
HETATM   32  C   UNL     1     -39.775  53.298 -50.838  1.00  0.00     0.273 C 
BRANCH  32  33
HETATM   33  C   UNL     1     -39.793  52.095 -51.741  1.00  0.00    -0.033 A 
HETATM   34  C   UNL     1     -39.709  50.800 -51.206  1.00  0.00     0.009 A 
HETATM   35  C   UNL     1     -39.692  49.688 -52.049  1.00  0.00     0.001 A 
HETATM   36  C   UNL     1     -39.753  49.856 -53.431  1.00  0.00     0.000 A 
HETATM   37  C   UNL     1     -39.841  51.136 -53.974  1.00  0.00     0.001 A 
HETATM   38  C   UNL     1     -39.865  52.252 -53.135  1.00  0.00     0.009 A 
ENDBRANCH  32  33
ENDBRANCH  28  32
ENDBRANCH   4  25
TORSDOF 9
ENDMDL
MODEL 8
REMARK VINA RESULT:      -7.9      5.526      9.313
REMARK  9 active torsions:
REMARK  status: ('A' for Active; 'I' for Inactive)
REMARK    1  A    between atoms: C_2  and  O_3 
REMARK    2  A    between atoms: O_3  and  C_4 
REMARK    3  A    between atoms: C_7  and  C_8 
REMARK       I    between atoms: C_8  and  N_9 
REMARK    4  A    between atoms: N_9  and  C_10 
REMARK    5  A    between atoms: C_10  and  N_11 
REMARK    6  A    between atoms: N_11  and  C_12 
REMARK    7  A    between atoms: C_15  and  N_16 
REMARK    8  A    between atoms: N_19  and  C_21 
REMARK    9  A    between atoms: C_21  and  C_22 
ROOT
HETATM    1  C   UNL     1     -45.228  59.702 -51.786  1.00  0.00     0.034 C 
HETATM    2  C   UNL     1     -44.169  60.317 -51.125  1.00  0.00     0.032 C 
HETATM    3  C   UNL     1     -44.335  61.568 -50.522  1.00  0.00     0.031 C 
HETATM    4  C   UNL     1     -45.575  62.219 -50.517  1.00  0.00     0.030 C 
HETATM    5  C   UNL     1     -46.580  61.644 -51.318  1.00  0.00     0.031 C 
HETATM    6  C   UNL     1     -46.411  60.407 -51.957  1.00  0.00     0.032 C 
ENDROOT
BRANCH   1   7
HETATM    7  N   UNL     1     -45.122  58.397 -52.303  1.00  0.00    -0.333 N 
HETATM    8  H   UNL     1     -45.519  57.646 -51.747  1.00  0.00     0.168 HD
BRANCH   7   9
HETATM    9  C   UNL     1     -44.596  58.027 -53.505  1.00  0.00     0.179 C 
HETATM   10  S   UNL     1     -45.052  58.818 -54.901  1.00  0.00    -0.040 SA
BRANCH   9  11
HETATM   11  N   UNL     1     -43.711  56.984 -53.582  1.00  0.00    -0.299 N 
HETATM   12  C   UNL     1     -42.482  56.919 -52.943  1.00  0.00     0.257 C 
HETATM   13  O   UNL     1     -42.032  57.704 -52.116  1.00  0.00    -0.267 OA
HETATM   14  H   UNL     1     -44.137  56.092 -53.804  1.00  0.00     0.171 HD
BRANCH  12  15
HETATM   15  C   UNL     1     -41.658  55.742 -53.271  1.00  0.00     0.032 A 
HETATM   16  C   UNL     1     -41.815  54.555 -52.552  1.00  0.00     0.020 A 
HETATM   17  C   UNL     1     -41.186  53.395 -53.009  1.00  0.00     0.038 A 
HETATM   18  C   UNL     1     -40.401  53.413 -54.169  1.00  0.00     0.069 A 
HETATM   19  C   UNL     1     -40.201  54.619 -54.841  1.00  0.00     0.038 A 
HETATM   20  C   UNL     1     -40.845  55.781 -54.406  1.00  0.00     0.020 A 
BRANCH  18  21
HETATM   21  O   UNL     1     -39.931  52.189 -54.548  1.00  0.00    -0.347 OA
BRANCH  21  22
HETATM   22  C   UNL     1     -40.144  51.056 -53.694  1.00  0.00     0.120 C 
HETATM   23  C   UNL     1     -39.240  51.126 -52.463  1.00  0.00     0.040 C 
HETATM   24  C   UNL     1     -39.785  49.818 -54.515  1.00  0.00     0.040 C 
ENDBRANCH  21  22
ENDBRANCH  18  21
ENDBRANCH  12  15
ENDBRANCH   9  11
ENDBRANCH   7   9
ENDBRANCH   1   7
BRANCH   4  25
HETATM   25  N   UNL     1     -45.834  63.379 -49.767  1.00  0.00    -0.378 N 
HETATM   26  C   UNL     1     -44.762  63.961 -48.932  1.00  0.00     0.150 C 
HETATM   27  C   UNL     1     -44.608  63.211 -47.586  1.00  0.00     0.255 C 
HETATM   28  N   UNL     1     -45.945  63.084 -46.851  1.00  0.00    -0.064 N 
HETATM   29  H   UNL     1     -46.215  64.030 -46.560  1.00  0.00     0.280 HD
HETATM   30  C   UNL     1     -47.053  62.548 -47.766  1.00  0.00     0.255 C 
HETATM   31  C   UNL     1     -47.140  63.383 -49.063  1.00  0.00     0.150 C 
BRANCH  28  32
HETATM   32  C   UNL     1     -45.836  62.242 -45.598  1.00  0.00     0.273 C 
BRANCH  32  33
HETATM   33  C   UNL     1     -44.916  62.835 -44.567  1.00  0.00    -0.033 A 
HETATM   34  C   UNL     1     -44.882  64.223 -44.356  1.00  0.00     0.009 A 
HETATM   35  C   UNL     1     -44.002  64.774 -43.422  1.00  0.00     0.001 A 
HETATM   36  C   UNL     1     -43.148  63.948 -42.695  1.00  0.00     0.000 A 
HETATM   37  C   UNL     1     -43.175  62.570 -42.892  1.00  0.00     0.001 A 
HETATM   38  C   UNL     1     -44.057  62.013 -43.820  1.00  0.00     0.009 A 
ENDBRANCH  32  33
ENDBRANCH  28  32
ENDBRANCH   4  25
TORSDOF 9
ENDMDL
MODEL 9
REMARK VINA RESULT:      -7.9      2.778      6.967
REMARK  9 active torsions:
REMARK  status: ('A' for Active; 'I' for Inactive)
REMARK    1  A    between atoms: C_2  and  O_3 
REMARK    2  A    between atoms: O_3  and  C_4 
REMARK    3  A    between atoms: C_7  and  C_8 
REMARK       I    between atoms: C_8  and  N_9 
REMARK    4  A    between atoms: N_9  and  C_10 
REMARK    5  A    between atoms: C_10  and  N_11 
REMARK    6  A    between atoms: N_11  and  C_12 
REMARK    7  A    between atoms: C_15  and  N_16 
REMARK    8  A    between atoms: N_19  and  C_21 
REMARK    9  A    between atoms: C_21  and  C_22 
ROOT
HETATM    1  C   UNL     1     -42.881  59.064 -58.043  1.00  0.00     0.034 C 
HETATM    2  C   UNL     1     -42.067  59.801 -57.188  1.00  0.00     0.032 C 
HETATM    3  C   UNL     1     -42.611  60.788 -56.359  1.00  0.00     0.031 C 
HETATM    4  C   UNL     1     -43.989  61.033 -56.321  1.00  0.00     0.030 C 
HETATM    5  C   UNL     1     -44.763  60.379 -57.298  1.00  0.00     0.031 C 
HETATM    6  C   UNL     1     -44.219  59.414 -58.160  1.00  0.00     0.032 C 
ENDROOT
BRANCH   1   7
HETATM    7  N   UNL     1     -42.380  57.991 -58.804  1.00  0.00    -0.333 N 
HETATM    8  H   UNL     1     -41.560  58.173 -59.374  1.00  0.00     0.168 HD
BRANCH   7   9
HETATM    9  C   UNL     1     -42.837  56.707 -58.817  1.00  0.00     0.179 C 
HETATM   10  S   UNL     1     -43.864  56.193 -60.025  1.00  0.00    -0.040 SA
BRANCH   9  11
HETATM   11  N   UNL     1     -42.480  55.836 -57.821  1.00  0.00    -0.299 N 
HETATM   12  C   UNL     1     -42.823  55.955 -56.483  1.00  0.00     0.257 C 
HETATM   13  O   UNL     1     -43.593  56.767 -55.983  1.00  0.00    -0.267 OA
HETATM   14  H   UNL     1     -42.283  54.895 -58.142  1.00  0.00     0.171 HD
BRANCH  12  15
HETATM   15  C   UNL     1     -42.224  54.953 -55.583  1.00  0.00     0.032 A 
HETATM   16  C   UNL     1     -40.851  54.704 -55.626  1.00  0.00     0.020 A 
HETATM   17  C   UNL     1     -40.270  53.915 -54.631  1.00  0.00     0.038 A 
HETATM   18  C   UNL     1     -41.049  53.372 -53.601  1.00  0.00     0.069 A 
HETATM   19  C   UNL     1     -42.428  53.575 -53.606  1.00  0.00     0.038 A 
HETATM   20  C   UNL     1     -43.016  54.383 -54.584  1.00  0.00     0.020 A 
BRANCH  18  21
HETATM   21  O   UNL     1     -40.333  52.706 -52.647  1.00  0.00    -0.347 OA
BRANCH  21  22
HETATM   22  C   UNL     1     -39.541  51.571 -53.025  1.00  0.00     0.120 C 
HETATM   23  C   UNL     1     -40.219  50.785 -54.147  1.00  0.00     0.040 C 
HETATM   24  C   UNL     1     -39.430  50.686 -51.784  1.00  0.00     0.040 C 
ENDBRANCH  21  22
ENDBRANCH  18  21
ENDBRANCH  12  15
ENDBRANCH   9  11
ENDBRANCH   7   9
ENDBRANCH   1   7
BRANCH   4  25
HETATM   25  N   UNL     1     -44.596  61.875 -55.374  1.00  0.00    -0.378 N 
HETATM   26  C   UNL     1     -43.779  62.883 -54.664  1.00  0.00     0.150 C 
HETATM   27  C   UNL     1     -42.983  62.258 -53.493  1.00  0.00     0.255 C 
HETATM   28  N   UNL     1     -43.888  61.447 -52.560  1.00  0.00    -0.064 N 
HETATM   29  H   UNL     1     -44.505  62.119 -52.089  1.00  0.00     0.280 HD
HETATM   30  C   UNL     1     -44.775  60.466 -53.334  1.00  0.00     0.255 C 
HETATM   31  C   UNL     1     -45.545  61.195 -54.457  1.00  0.00     0.150 C 
BRANCH  28  32
HETATM   32  C   UNL     1     -43.106  60.725 -51.484  1.00  0.00     0.273 C 
BRANCH  32  33
HETATM   33  C   UNL     1     -42.447  59.466 -51.979  1.00  0.00    -0.033 A 
HETATM   34  C   UNL     1     -42.898  58.209 -51.547  1.00  0.00     0.009 A 
HETATM   35  C   UNL     1     -42.263  57.044 -51.981  1.00  0.00     0.001 A 
HETATM   36  C   UNL     1     -41.171  57.123 -52.844  1.00  0.00     0.000 A 
HETATM   37  C   UNL     1     -40.717  58.364 -53.282  1.00  0.00     0.001 A 
HETATM   38  C   UNL     1     -41.353  59.532 -52.856  1.00  0.00     0.009 A 
ENDBRANCH  32  33
ENDBRANCH  28  32
ENDBRANCH   4  25
TORSDOF 9
ENDMDL
MODEL 10
REMARK VINA RESULT:      -7.7      3.212      8.922
REMARK  9 active torsions:
REMARK  status: ('A' for Active; 'I' for Inactive)
REMARK    1  A    between atoms: C_2  and  O_3 
REMARK    2  A    between atoms: O_3  and  C_4 
REMARK    3  A    between atoms: C_7  and  C_8 
REMARK       I    between atoms: C_8  and  N_9 
REMARK    4  A    between atoms: N_9  and  C_10 
REMARK    5  A    between atoms: C_10  and  N_11 
REMARK    6  A    between atoms: N_11  and  C_12 
REMARK    7  A    between atoms: C_15  and  N_16 
REMARK    8  A    between atoms: N_19  and  C_21 
REMARK    9  A    between atoms: C_21  and  C_22 
ROOT
HETATM    1  C   UNL     1     -43.314  59.079 -55.589  1.00  0.00     0.034 C 
HETATM    2  C   UNL     1     -42.188  59.192 -56.400  1.00  0.00     0.032 C 
HETATM    3  C   UNL     1     -42.228  58.780 -57.736  1.00  0.00     0.031 C 
HETATM    4  C   UNL     1     -43.405  58.291 -58.316  1.00  0.00     0.030 C 
HETATM    5  C   UNL     1     -44.477  58.050 -57.436  1.00  0.00     0.031 C 
HETATM    6  C   UNL     1     -44.434  58.426 -56.084  1.00  0.00     0.032 C 
ENDROOT
BRANCH   1   7
HETATM    7  N   UNL     1     -43.336  59.587 -54.276  1.00  0.00    -0.333 N 
HETATM    8  H   UNL     1     -43.502  60.583 -54.170  1.00  0.00     0.168 HD
BRANCH   7   9
HETATM    9  C   UNL     1     -43.219  58.880 -53.117  1.00  0.00     0.179 C 
HETATM   10  S   UNL     1     -43.711  59.549 -51.671  1.00  0.00    -0.040 SA
BRANCH   9  11
HETATM   11  N   UNL     1     -42.668  57.625 -53.125  1.00  0.00    -0.299 N 
HETATM   12  C   UNL     1     -41.334  57.330 -53.363  1.00  0.00     0.257 C 
HETATM   13  O   UNL     1     -40.407  58.124 -53.479  1.00  0.00    -0.267 OA
HETATM   14  H   UNL     1     -43.176  56.944 -52.574  1.00  0.00     0.171 HD
BRANCH  12  15
HETATM   15  C   UNL     1     -41.004  55.896 -53.432  1.00  0.00     0.032 A 
HETATM   16  C   UNL     1     -41.424  55.031 -52.420  1.00  0.00     0.020 A 
HETATM   17  C   UNL     1     -41.291  53.653 -52.604  1.00  0.00     0.038 A 
HETATM   18  C   UNL     1     -40.739  53.136 -53.783  1.00  0.00     0.069 A 
HETATM   19  C   UNL     1     -40.265  54.013 -54.758  1.00  0.00     0.038 A 
HETATM   20  C   UNL     1     -40.416  55.393 -54.595  1.00  0.00     0.020 A 
BRANCH  18  21
HETATM   21  O   UNL     1     -40.761  51.773 -53.864  1.00  0.00    -0.347 OA
BRANCH  21  22
HETATM   22  C   UNL     1     -39.546  51.035 -53.673  1.00  0.00     0.120 C 
HETATM   23  C   UNL     1     -39.534  49.775 -54.538  1.00  0.00     0.040 C 
HETATM   24  C   UNL     1     -39.505  50.637 -52.199  1.00  0.00     0.040 C 
ENDBRANCH  21  22
ENDBRANCH  18  21
ENDBRANCH  12  15
ENDBRANCH   9  11
ENDBRANCH   7   9
ENDBRANCH   1   7
BRANCH   4  25
HETATM   25  N   UNL     1     -43.542  58.045 -59.693  1.00  0.00    -0.378 N 
HETATM   26  C   UNL     1     -42.344  58.068 -60.560  1.00  0.00     0.150 C 
HETATM   27  C   UNL     1     -41.929  59.512 -60.931  1.00  0.00     0.255 C 
HETATM   28  N   UNL     1     -43.104  60.312 -61.502  1.00  0.00    -0.064 N 
HETATM   29  H   UNL     1     -43.332  59.895 -62.411  1.00  0.00     0.280 HD
HETATM   30  C   UNL     1     -44.352  60.205 -60.617  1.00  0.00     0.255 C 
HETATM   31  C   UNL     1     -44.694  58.726 -60.333  1.00  0.00     0.150 C 
BRANCH  28  32
HETATM   32  C   UNL     1     -42.748  61.762 -61.748  1.00  0.00     0.273 C 
BRANCH  32  33
HETATM   33  C   UNL     1     -41.547  62.216 -60.966  1.00  0.00    -0.033 A 
HETATM   34  C   UNL     1     -41.549  62.167 -59.563  1.00  0.00     0.009 A 
HETATM   35  C   UNL     1     -40.445  62.621 -58.839  1.00  0.00     0.001 A 
HETATM   36  C   UNL     1     -39.333  63.131 -59.506  1.00  0.00     0.000 A 
HETATM   37  C   UNL     1     -39.317  63.181 -60.898  1.00  0.00     0.001 A 
HETATM   38  C   UNL     1     -40.416  62.722 -61.627  1.00  0.00     0.009 A 
ENDBRANCH  32  33
ENDBRANCH  28  32
ENDBRANCH   4  25
TORSDOF 9
ENDMDL
