MODEL 1
REMARK VINA RESULT:      -8.3      0.000      0.000
REMARK  2 active torsions:
REMARK  status: ('A' for Active; 'I' for Inactive)
REMARK    1  A    between atoms: C_2  and  C_3 
REMARK    2  A    between atoms: C_7  and  C_8 
REMARK       I    between atoms: C_8  and  N_9 
ROOT
HETATM    1  C   UNL     1     -42.131  58.932 -53.300  1.00  0.00     0.271 C 
HETATM    2  N   UNL     1     -42.183  58.624 -54.673  1.00  0.00    -0.346 N 
HETATM    3  C   UNL     1     -42.201  59.769 -55.581  1.00  0.00     0.130 C 
HETATM    4  C   UNL     1     -41.790  59.383 -56.996  1.00  0.00     0.068 C 
HETATM    5  C   UNL     1     -42.586  58.184 -57.538  1.00  0.00     0.094 C 
HETATM    6  N   UNL     1     -42.001  57.767 -58.795  1.00  0.00    -0.334 N 
HETATM    7  C   UNL     1     -42.650  56.946 -59.677  1.00  0.00     0.255 C 
HETATM    8  O   UNL     1     -42.037  56.294 -60.513  1.00  0.00    -0.268 OA
HETATM    9  C   UNL     1     -44.121  56.910 -59.569  1.00  0.00     0.053 A 
HETATM   10  C   UNL     1     -44.724  57.751 -58.625  1.00  0.00     0.026 A 
HETATM   11  N   UNL     1     -43.958  58.607 -57.821  1.00  0.00    -0.265 NA
HETATM   12  C   UNL     1     -44.879  56.083 -60.405  1.00  0.00     0.019 A 
HETATM   13  C   UNL     1     -46.269  56.113 -60.318  1.00  0.00     0.001 A 
HETATM   14  C   UNL     1     -46.888  56.980 -59.418  1.00  0.00     0.002 A 
HETATM   15  C   UNL     1     -46.121  57.805 -58.588  1.00  0.00     0.024 A 
HETATM   16  C   UNL     1     -42.547  57.027 -56.521  1.00  0.00     0.068 C 
HETATM   17  C   UNL     1     -42.964  57.472 -55.129  1.00  0.00     0.130 C 
HETATM   18  O   UNL     1     -42.228  60.091 -52.899  1.00  0.00    -0.266 OA
HETATM   19  H   UNL     1     -40.995  57.700 -58.865  1.00  0.00     0.164 HD
HETATM   20  H   UNL     1     -44.476  58.955 -57.021  1.00  0.00     0.130 HD
ENDROOT
BRANCH   1  21
HETATM   21  C   UNL     1     -41.925  57.834 -52.392  1.00  0.00     0.119 A 
HETATM   22  N   UNL     1     -42.321  57.809 -51.085  1.00  0.00    -0.273 N 
HETATM   23  N   UNL     1     -41.990  56.686 -50.434  1.00  0.00    -0.178 NA
HETATM   24  H   UNL     1     -42.805  58.538 -50.572  1.00  0.00     0.189 HD
HETATM   25  C   UNL     1     -41.440  55.905 -51.376  1.00  0.00     0.064 A 
HETATM   26  C   UNL     1     -41.408  56.577 -52.626  1.00  0.00     0.066 A 
BRANCH  25  27
HETATM   27  C   UNL     1     -40.959  54.507 -51.023  1.00  0.00    -0.005 C 
HETATM   28  C   UNL     1     -40.417  53.802 -52.282  1.00  0.00     0.021 C 
HETATM   29  C   UNL     1     -42.122  53.674 -50.442  1.00  0.00     0.021 C 
HETATM   30  C   UNL     1     -39.831  54.538 -49.971  1.00  0.00     0.021 C 
ENDBRANCH  25  27
ENDBRANCH   1  21
TORSDOF 2
ENDMDL
MODEL 2
REMARK VINA RESULT:      -8.3      2.182      3.007
REMARK  2 active torsions:
REMARK  status: ('A' for Active; 'I' for Inactive)
REMARK    1  A    between atoms: C_2  and  C_3 
REMARK    2  A    between atoms: C_7  and  C_8 
REMARK       I    between atoms: C_8  and  N_9 
ROOT
HETATM    1  C   UNL     1     -43.870  57.029 -51.617  1.00  0.00     0.271 C 
HETATM    2  N   UNL     1     -43.561  57.679 -52.827  1.00  0.00    -0.346 N 
HETATM    3  C   UNL     1     -44.653  58.434 -53.438  1.00  0.00     0.130 C 
HETATM    4  C   UNL     1     -44.146  59.459 -54.444  1.00  0.00     0.068 C 
HETATM    5  C   UNL     1     -43.193  58.849 -55.485  1.00  0.00     0.094 C 
HETATM    6  N   UNL     1     -42.612  59.918 -56.269  1.00  0.00    -0.334 N 
HETATM    7  C   UNL     1     -41.978  59.700 -57.462  1.00  0.00     0.255 C 
HETATM    8  O   UNL     1     -41.171  60.505 -57.912  1.00  0.00    -0.268 OA
HETATM    9  C   UNL     1     -42.337  58.458 -58.171  1.00  0.00     0.053 A 
HETATM   10  C   UNL     1     -43.325  57.646 -57.601  1.00  0.00     0.026 A 
HETATM   11  N   UNL     1     -43.960  58.009 -56.404  1.00  0.00    -0.265 NA
HETATM   12  C   UNL     1     -41.727  58.127 -59.385  1.00  0.00     0.019 A 
HETATM   13  C   UNL     1     -42.128  56.976 -60.060  1.00  0.00     0.001 A 
HETATM   14  C   UNL     1     -43.145  56.181 -59.531  1.00  0.00     0.002 A 
HETATM   15  C   UNL     1     -43.751  56.523 -58.317  1.00  0.00     0.024 A 
HETATM   16  C   UNL     1     -42.086  58.047 -54.773  1.00  0.00     0.068 C 
HETATM   17  C   UNL     1     -42.651  57.043 -53.782  1.00  0.00     0.130 C 
HETATM   18  O   UNL     1     -45.019  56.995 -51.182  1.00  0.00    -0.266 OA
HETATM   19  H   UNL     1     -42.278  60.745 -55.792  1.00  0.00     0.164 HD
HETATM   20  H   UNL     1     -44.448  57.231 -55.972  1.00  0.00     0.130 HD
ENDROOT
BRANCH   1  21
HETATM   21  C   UNL     1     -42.773  56.434 -50.899  1.00  0.00     0.119 A 
HETATM   22  N   UNL     1     -41.917  57.105 -50.072  1.00  0.00    -0.273 N 
HETATM   23  N   UNL     1     -40.957  56.340 -49.539  1.00  0.00    -0.178 NA
HETATM   24  H   UNL     1     -41.926  58.094 -49.846  1.00  0.00     0.189 HD
HETATM   25  C   UNL     1     -41.251  55.098 -49.957  1.00  0.00     0.064 A 
HETATM   26  C   UNL     1     -42.401  55.110 -50.787  1.00  0.00     0.066 A 
BRANCH  25  27
HETATM   27  C   UNL     1     -40.389  53.924 -49.523  1.00  0.00    -0.005 C 
HETATM   28  C   UNL     1     -40.574  53.661 -48.015  1.00  0.00     0.021 C 
HETATM   29  C   UNL     1     -38.900  54.225 -49.800  1.00  0.00     0.021 C 
HETATM   30  C   UNL     1     -40.757  52.632 -50.282  1.00  0.00     0.021 C 
ENDBRANCH  25  27
ENDBRANCH   1  21
TORSDOF 2
ENDMDL
MODEL 3
REMARK VINA RESULT:      -7.5      3.309      4.176
REMARK  2 active torsions:
REMARK  status: ('A' for Active; 'I' for Inactive)
REMARK    1  A    between atoms: C_2  and  C_3 
REMARK    2  A    between atoms: C_7  and  C_8 
REMARK       I    between atoms: C_8  and  N_9 
ROOT
HETATM    1  C   UNL     1     -44.210  58.013 -54.588  1.00  0.00     0.271 C 
HETATM    2  N   UNL     1     -43.532  58.944 -55.396  1.00  0.00    -0.346 N 
HETATM    3  C   UNL     1     -44.040  60.314 -55.350  1.00  0.00     0.130 C 
HETATM    4  C   UNL     1     -43.014  61.322 -55.849  1.00  0.00     0.068 C 
HETATM    5  C   UNL     1     -42.439  60.950 -57.226  1.00  0.00     0.094 C 
HETATM    6  N   UNL     1     -41.342  61.845 -57.529  1.00  0.00    -0.334 N 
HETATM    7  C   UNL     1     -40.828  61.985 -58.791  1.00  0.00     0.255 C 
HETATM    8  O   UNL     1     -39.696  62.413 -58.975  1.00  0.00    -0.268 OA
HETATM    9  C   UNL     1     -41.723  61.608 -59.901  1.00  0.00     0.053 A 
HETATM   10  C   UNL     1     -43.023  61.200 -59.579  1.00  0.00     0.026 A 
HETATM   11  N   UNL     1     -43.463  61.164 -58.248  1.00  0.00    -0.265 NA
HETATM   12  C   UNL     1     -41.287  61.688 -61.228  1.00  0.00     0.019 A 
HETATM   13  C   UNL     1     -42.173  61.380 -62.258  1.00  0.00     0.001 A 
HETATM   14  C   UNL     1     -43.487  61.018 -61.958  1.00  0.00     0.002 A 
HETATM   15  C   UNL     1     -43.913  60.944 -60.627  1.00  0.00     0.024 A 
HETATM   16  C   UNL     1     -41.948  59.490 -57.210  1.00  0.00     0.068 C 
HETATM   17  C   UNL     1     -43.012  58.532 -56.702  1.00  0.00     0.130 C 
HETATM   18  O   UNL     1     -45.242  58.313 -53.990  1.00  0.00    -0.266 OA
HETATM   19  H   UNL     1     -40.665  62.048 -56.806  1.00  0.00     0.164 HD
HETATM   20  H   UNL     1     -44.308  60.613 -58.133  1.00  0.00     0.130 HD
ENDROOT
BRANCH   1  21
HETATM   21  C   UNL     1     -43.623  56.703 -54.469  1.00  0.00     0.119 A 
HETATM   22  N   UNL     1     -44.302  55.523 -54.578  1.00  0.00    -0.273 N 
HETATM   23  N   UNL     1     -43.542  54.435 -54.399  1.00  0.00    -0.178 NA
HETATM   24  H   UNL     1     -45.293  55.394 -54.754  1.00  0.00     0.189 HD
HETATM   25  C   UNL     1     -42.297  54.918 -54.262  1.00  0.00     0.064 A 
HETATM   26  C   UNL     1     -42.301  56.335 -54.330  1.00  0.00     0.066 A 
BRANCH  25  27
HETATM   27  C   UNL     1     -41.127  53.967 -54.069  1.00  0.00    -0.005 C 
HETATM   28  C   UNL     1     -40.619  54.045 -52.615  1.00  0.00     0.021 C 
HETATM   29  C   UNL     1     -39.973  54.341 -55.024  1.00  0.00     0.021 C 
HETATM   30  C   UNL     1     -41.523  52.504 -54.359  1.00  0.00     0.021 C 
ENDBRANCH  25  27
ENDBRANCH   1  21
TORSDOF 2
ENDMDL
MODEL 4
REMARK VINA RESULT:      -7.5      2.883      4.427
REMARK  2 active torsions:
REMARK  status: ('A' for Active; 'I' for Inactive)
REMARK    1  A    between atoms: C_2  and  C_3 
REMARK    2  A    between atoms: C_7  and  C_8 
REMARK       I    between atoms: C_8  and  N_9 
ROOT
HETATM    1  C   UNL     1     -42.512  57.354 -52.631  1.00  0.00     0.271 C 
HETATM    2  N   UNL     1     -42.858  57.081 -53.968  1.00  0.00    -0.346 N 
HETATM    3  C   UNL     1     -41.967  56.169 -54.681  1.00  0.00     0.130 C 
HETATM    4  C   UNL     1     -42.631  55.565 -55.911  1.00  0.00     0.068 C 
HETATM    5  C   UNL     1     -43.251  56.629 -56.833  1.00  0.00     0.094 C 
HETATM    6  N   UNL     1     -44.023  55.962 -57.860  1.00  0.00    -0.334 N 
HETATM    7  C   UNL     1     -44.435  56.593 -59.003  1.00  0.00     0.255 C 
HETATM    8  O   UNL     1     -45.382  56.175 -59.657  1.00  0.00    -0.268 OA
HETATM    9  C   UNL     1     -43.662  57.784 -59.402  1.00  0.00     0.053 A 
HETATM   10  C   UNL     1     -42.552  58.131 -58.621  1.00  0.00     0.026 A 
HETATM   11  N   UNL     1     -42.181  57.363 -57.507  1.00  0.00    -0.265 NA
HETATM   12  C   UNL     1     -44.016  58.518 -60.538  1.00  0.00     0.019 A 
HETATM   13  C   UNL     1     -43.233  59.605 -60.922  1.00  0.00     0.001 A 
HETATM   14  C   UNL     1     -42.096  59.935 -60.183  1.00  0.00     0.002 A 
HETATM   15  C   UNL     1     -41.749  59.192 -59.049  1.00  0.00     0.024 A 
HETATM   16  C   UNL     1     -44.156  57.568 -56.012  1.00  0.00     0.068 C 
HETATM   17  C   UNL     1     -43.440  58.138 -54.798  1.00  0.00     0.130 C 
HETATM   18  O   UNL     1     -41.455  56.952 -52.147  1.00  0.00    -0.266 OA
HETATM   19  H   UNL     1     -44.628  55.197 -57.595  1.00  0.00     0.164 HD
HETATM   20  H   UNL     1     -41.542  57.856 -56.891  1.00  0.00     0.130 HD
ENDROOT
BRANCH   1  21
HETATM   21  C   UNL     1     -43.466  58.096 -51.849  1.00  0.00     0.119 A 
HETATM   22  N   UNL     1     -44.624  57.589 -51.331  1.00  0.00    -0.273 N 
HETATM   23  N   UNL     1     -45.364  58.484 -50.663  1.00  0.00    -0.178 NA
HETATM   24  H   UNL     1     -44.975  56.641 -51.416  1.00  0.00     0.189 HD
HETATM   25  C   UNL     1     -44.616  59.599 -50.661  1.00  0.00     0.064 A 
HETATM   26  C   UNL     1     -43.404  59.388 -51.369  1.00  0.00     0.066 A 
BRANCH  25  27
HETATM   27  C   UNL     1     -45.114  60.850 -49.957  1.00  0.00    -0.005 C 
HETATM   28  C   UNL     1     -46.275  61.477 -50.755  1.00  0.00     0.021 C 
HETATM   29  C   UNL     1     -43.973  61.883 -49.835  1.00  0.00     0.021 C 
HETATM   30  C   UNL     1     -45.625  60.542 -48.534  1.00  0.00     0.021 C 
ENDBRANCH  25  27
ENDBRANCH   1  21
TORSDOF 2
ENDMDL
MODEL 5
REMARK VINA RESULT:      -7.4      1.225      1.608
REMARK  2 active torsions:
REMARK  status: ('A' for Active; 'I' for Inactive)
REMARK    1  A    between atoms: C_2  and  C_3 
REMARK    2  A    between atoms: C_7  and  C_8 
REMARK       I    between atoms: C_8  and  N_9 
ROOT
HETATM    1  C   UNL     1     -42.856  58.225 -52.132  1.00  0.00     0.271 C 
HETATM    2  N   UNL     1     -42.741  58.267 -53.534  1.00  0.00    -0.346 N 
HETATM    3  C   UNL     1     -42.872  59.589 -54.142  1.00  0.00     0.130 C 
HETATM    4  C   UNL     1     -42.286  59.633 -55.547  1.00  0.00     0.068 C 
HETATM    5  C   UNL     1     -42.823  58.510 -56.450  1.00  0.00     0.094 C 
HETATM    6  N   UNL     1     -42.074  58.508 -57.688  1.00  0.00    -0.334 N 
HETATM    7  C   UNL     1     -42.501  57.852 -58.811  1.00  0.00     0.255 C 
HETATM    8  O   UNL     1     -41.720  57.525 -59.696  1.00  0.00    -0.268 OA
HETATM    9  C   UNL     1     -43.949  57.585 -58.895  1.00  0.00     0.053 A 
HETATM   10  C   UNL     1     -44.761  58.068 -57.861  1.00  0.00     0.026 A 
HETATM   11  N   UNL     1     -44.217  58.793 -56.791  1.00  0.00    -0.265 NA
HETATM   12  C   UNL     1     -44.487  56.897 -59.988  1.00  0.00     0.019 A 
HETATM   13  C   UNL     1     -45.865  56.710 -60.068  1.00  0.00     0.001 A 
HETATM   14  C   UNL     1     -46.693  57.227 -59.071  1.00  0.00     0.002 A 
HETATM   15  C   UNL     1     -46.146  57.916 -57.983  1.00  0.00     0.024 A 
HETATM   16  C   UNL     1     -42.678  57.152 -55.737  1.00  0.00     0.068 C 
HETATM   17  C   UNL     1     -43.279  57.169 -54.341  1.00  0.00     0.130 C 
HETATM   18  O   UNL     1     -43.178  59.220 -51.484  1.00  0.00    -0.266 OA
HETATM   19  H   UNL     1     -41.068  58.603 -57.648  1.00  0.00     0.164 HD
HETATM   20  H   UNL     1     -44.851  58.853 -56.001  1.00  0.00     0.130 HD
ENDROOT
BRANCH   1  21
HETATM   21  C   UNL     1     -42.548  56.974 -51.490  1.00  0.00     0.119 A 
HETATM   22  N   UNL     1     -43.465  56.027 -51.129  1.00  0.00    -0.273 N 
HETATM   23  N   UNL     1     -42.939  54.958 -50.518  1.00  0.00    -0.178 NA
HETATM   24  H   UNL     1     -44.471  56.062 -51.256  1.00  0.00     0.189 HD
HETATM   25  C   UNL     1     -41.614  55.168 -50.565  1.00  0.00     0.064 A 
HETATM   26  C   UNL     1     -41.326  56.407 -51.194  1.00  0.00     0.066 A 
BRANCH  25  27
HETATM   27  C   UNL     1     -40.657  54.136 -49.988  1.00  0.00    -0.005 C 
HETATM   28  C   UNL     1     -40.956  53.920 -48.491  1.00  0.00     0.021 C 
HETATM   29  C   UNL     1     -39.199  54.616 -50.145  1.00  0.00     0.021 C 
HETATM   30  C   UNL     1     -40.784  52.775 -50.702  1.00  0.00     0.021 C 
ENDBRANCH  25  27
ENDBRANCH   1  21
TORSDOF 2
ENDMDL
MODEL 6
REMARK VINA RESULT:      -7.3      3.971      5.858
REMARK  2 active torsions:
REMARK  status: ('A' for Active; 'I' for Inactive)
REMARK    1  A    between atoms: C_2  and  C_3 
REMARK    2  A    between atoms: C_7  and  C_8 
REMARK       I    between atoms: C_8  and  N_9 
ROOT
HETATM    1  C   UNL     1     -44.445  58.267 -57.317  1.00  0.00     0.271 C 
HETATM    2  N   UNL     1     -43.723  59.457 -57.524  1.00  0.00    -0.346 N 
HETATM    3  C   UNL     1     -44.520  60.631 -57.873  1.00  0.00     0.130 C 
HETATM    4  C   UNL     1     -43.766  61.930 -57.623  1.00  0.00     0.068 C 
HETATM    5  C   UNL     1     -42.374  61.943 -58.277  1.00  0.00     0.094 C 
HETATM    6  N   UNL     1     -41.659  63.119 -57.828  1.00  0.00    -0.334 N 
HETATM    7  C   UNL     1     -40.536  63.586 -58.455  1.00  0.00     0.255 C 
HETATM    8  O   UNL     1     -39.733  64.306 -57.874  1.00  0.00    -0.268 OA
HETATM    9  C   UNL     1     -40.365  63.187 -59.864  1.00  0.00     0.053 A 
HETATM   10  C   UNL     1     -41.381  62.422 -60.451  1.00  0.00     0.026 A 
HETATM   11  N   UNL     1     -42.527  62.060 -59.727  1.00  0.00    -0.265 NA
HETATM   12  C   UNL     1     -39.239  63.589 -60.589  1.00  0.00     0.019 A 
HETATM   13  C   UNL     1     -39.133  63.244 -61.935  1.00  0.00     0.001 A 
HETATM   14  C   UNL     1     -40.158  62.524 -62.548  1.00  0.00     0.002 A 
HETATM   15  C   UNL     1     -41.283  62.129 -61.815  1.00  0.00     0.024 A 
HETATM   16  C   UNL     1     -41.602  60.668 -57.889  1.00  0.00     0.068 C 
HETATM   17  C   UNL     1     -42.404  59.406 -58.159  1.00  0.00     0.130 C 
HETATM   18  O   UNL     1     -45.651  58.200 -57.547  1.00  0.00    -0.266 OA
HETATM   19  H   UNL     1     -41.691  63.362 -56.847  1.00  0.00     0.164 HD
HETATM   20  H   UNL     1     -43.043  61.307 -60.169  1.00  0.00     0.130 HD
ENDROOT
BRANCH   1  21
HETATM   21  C   UNL     1     -43.714  57.143 -56.793  1.00  0.00     0.119 A 
HETATM   22  N   UNL     1     -43.481  55.974 -57.461  1.00  0.00    -0.273 N 
HETATM   23  N   UNL     1     -42.801  55.064 -56.753  1.00  0.00    -0.178 NA
HETATM   24  H   UNL     1     -43.780  55.729 -58.400  1.00  0.00     0.189 HD
HETATM   25  C   UNL     1     -42.491  55.695 -55.610  1.00  0.00     0.064 A 
HETATM   26  C   UNL     1     -43.020  57.012 -55.608  1.00  0.00     0.066 A 
BRANCH  25  27
HETATM   27  C   UNL     1     -41.676  54.984 -54.542  1.00  0.00    -0.005 C 
HETATM   28  C   UNL     1     -40.174  55.079 -54.875  1.00  0.00     0.021 C 
HETATM   29  C   UNL     1     -42.080  53.496 -54.467  1.00  0.00     0.021 C 
HETATM   30  C   UNL     1     -41.897  55.602 -53.146  1.00  0.00     0.021 C 
ENDBRANCH  25  27
ENDBRANCH   1  21
TORSDOF 2
ENDMDL
MODEL 7
REMARK VINA RESULT:      -7.2      4.517      6.620
REMARK  2 active torsions:
REMARK  status: ('A' for Active; 'I' for Inactive)
REMARK    1  A    between atoms: C_2  and  C_3 
REMARK    2  A    between atoms: C_7  and  C_8 
REMARK       I    between atoms: C_8  and  N_9 
ROOT
HETATM    1  C   UNL     1     -43.024  61.095 -50.510  1.00  0.00     0.271 C 
HETATM    2  N   UNL     1     -42.497  59.856 -50.921  1.00  0.00    -0.346 N 
HETATM    3  C   UNL     1     -41.265  59.919 -51.704  1.00  0.00     0.130 C 
HETATM    4  C   UNL     1     -40.521  58.589 -51.707  1.00  0.00     0.068 C 
HETATM    5  C   UNL     1     -41.419  57.408 -52.110  1.00  0.00     0.094 C 
HETATM    6  N   UNL     1     -40.691  56.175 -51.896  1.00  0.00    -0.334 N 
HETATM    7  C   UNL     1     -41.081  54.982 -52.442  1.00  0.00     0.255 C 
HETATM    8  O   UNL     1     -40.721  53.913 -51.964  1.00  0.00    -0.268 OA
HETATM    9  C   UNL     1     -41.937  55.064 -53.640  1.00  0.00     0.053 A 
HETATM   10  C   UNL     1     -42.228  56.338 -54.145  1.00  0.00     0.026 A 
HETATM   11  N   UNL     1     -41.711  57.493 -53.541  1.00  0.00    -0.265 NA
HETATM   12  C   UNL     1     -42.413  53.904 -54.259  1.00  0.00     0.019 A 
HETATM   13  C   UNL     1     -43.173  54.012 -55.422  1.00  0.00     0.001 A 
HETATM   14  C   UNL     1     -43.432  55.270 -55.966  1.00  0.00     0.002 A 
HETATM   15  C   UNL     1     -42.949  56.425 -55.340  1.00  0.00     0.024 A 
HETATM   16  C   UNL     1     -42.708  57.419 -51.265  1.00  0.00     0.068 C 
HETATM   17  C   UNL     1     -43.404  58.770 -51.299  1.00  0.00     0.130 C 
HETATM   18  O   UNL     1     -42.544  62.157 -50.901  1.00  0.00    -0.266 OA
HETATM   19  H   UNL     1     -40.166  56.062 -51.040  1.00  0.00     0.164 HD
HETATM   20  H   UNL     1     -42.198  58.334 -53.832  1.00  0.00     0.130 HD
ENDROOT
BRANCH   1  21
HETATM   21  C   UNL     1     -44.127  61.059 -49.585  1.00  0.00     0.119 A 
HETATM   22  N   UNL     1     -45.446  61.008 -49.936  1.00  0.00    -0.273 N 
HETATM   23  N   UNL     1     -46.290  61.014 -48.896  1.00  0.00    -0.178 NA
HETATM   24  H   UNL     1     -45.836  60.987 -50.872  1.00  0.00     0.189 HD
HETATM   25  C   UNL     1     -45.491  60.970 -47.819  1.00  0.00     0.064 A 
HETATM   26  C   UNL     1     -44.127  60.967 -48.209  1.00  0.00     0.066 A 
BRANCH  25  27
HETATM   27  C   UNL     1     -46.093  60.930 -46.423  1.00  0.00    -0.005 C 
HETATM   28  C   UNL     1     -47.242  61.953 -46.316  1.00  0.00     0.021 C 
HETATM   29  C   UNL     1     -45.018  61.271 -45.370  1.00  0.00     0.021 C 
HETATM   30  C   UNL     1     -46.661  59.537 -46.083  1.00  0.00     0.021 C 
ENDBRANCH  25  27
ENDBRANCH   1  21
TORSDOF 2
ENDMDL
MODEL 8
REMARK VINA RESULT:      -7.2      2.615      3.699
REMARK  2 active torsions:
REMARK  status: ('A' for Active; 'I' for Inactive)
REMARK    1  A    between atoms: C_2  and  C_3 
REMARK    2  A    between atoms: C_7  and  C_8 
REMARK       I    between atoms: C_8  and  N_9 
ROOT
HETATM    1  C   UNL     1     -42.763  55.125 -52.460  1.00  0.00     0.271 C 
HETATM    2  N   UNL     1     -42.635  56.172 -53.392  1.00  0.00    -0.346 N 
HETATM    3  C   UNL     1     -43.558  57.292 -53.220  1.00  0.00     0.130 C 
HETATM    4  C   UNL     1     -43.070  58.548 -53.930  1.00  0.00     0.068 C 
HETATM    5  C   UNL     1     -42.714  58.296 -55.404  1.00  0.00     0.094 C 
HETATM    6  N   UNL     1     -42.081  59.483 -55.939  1.00  0.00    -0.334 N 
HETATM    7  C   UNL     1     -41.930  59.699 -57.283  1.00  0.00     0.255 C 
HETATM    8  O   UNL     1     -41.080  60.468 -57.714  1.00  0.00    -0.268 OA
HETATM    9  C   UNL     1     -42.859  58.970 -58.166  1.00  0.00     0.053 A 
HETATM   10  C   UNL     1     -43.840  58.173 -57.562  1.00  0.00     0.026 A 
HETATM   11  N   UNL     1     -43.944  58.084 -56.166  1.00  0.00    -0.265 NA
HETATM   12  C   UNL     1     -42.774  59.099 -59.556  1.00  0.00     0.019 A 
HETATM   13  C   UNL     1     -43.701  58.442 -60.362  1.00  0.00     0.001 A 
HETATM   14  C   UNL     1     -44.714  57.683 -59.776  1.00  0.00     0.002 A 
HETATM   15  C   UNL     1     -44.792  57.562 -58.384  1.00  0.00     0.024 A 
HETATM   16  C   UNL     1     -41.762  57.090 -55.512  1.00  0.00     0.068 C 
HETATM   17  C   UNL     1     -42.299  55.868 -54.785  1.00  0.00     0.130 C 
HETATM   18  O   UNL     1     -43.681  55.103 -51.642  1.00  0.00    -0.266 OA
HETATM   19  H   UNL     1     -41.376  59.951 -55.385  1.00  0.00     0.164 HD
HETATM   20  H   UNL     1     -44.504  57.291 -55.869  1.00  0.00     0.130 HD
ENDROOT
BRANCH   1  21
HETATM   21  C   UNL     1     -41.753  54.099 -52.488  1.00  0.00     0.119 A 
HETATM   22  N   UNL     1     -40.658  54.050 -51.672  1.00  0.00    -0.273 N 
HETATM   23  N   UNL     1     -39.845  53.013 -51.909  1.00  0.00    -0.178 NA
HETATM   24  H   UNL     1     -40.400  54.708 -50.945  1.00  0.00     0.189 HD
HETATM   25  C   UNL     1     -40.479  52.301 -52.853  1.00  0.00     0.064 A 
HETATM   26  C   UNL     1     -41.695  52.933 -53.222  1.00  0.00     0.066 A 
BRANCH  25  27
HETATM   27  C   UNL     1     -39.871  51.007 -53.370  1.00  0.00    -0.005 C 
HETATM   28  C   UNL     1     -39.600  50.046 -52.196  1.00  0.00     0.021 C 
HETATM   29  C   UNL     1     -38.541  51.297 -54.098  1.00  0.00     0.021 C 
HETATM   30  C   UNL     1     -40.807  50.292 -54.367  1.00  0.00     0.021 C 
ENDBRANCH  25  27
ENDBRANCH   1  21
TORSDOF 2
ENDMDL
MODEL 9
REMARK VINA RESULT:      -7.1      2.971      5.276
REMARK  2 active torsions:
REMARK  status: ('A' for Active; 'I' for Inactive)
REMARK    1  A    between atoms: C_2  and  C_3 
REMARK    2  A    between atoms: C_7  and  C_8 
REMARK       I    between atoms: C_8  and  N_9 
ROOT
HETATM    1  C   UNL     1     -43.021  56.075 -57.138  1.00  0.00     0.271 C 
HETATM    2  N   UNL     1     -43.244  57.463 -57.195  1.00  0.00    -0.346 N 
HETATM    3  C   UNL     1     -44.056  57.930 -58.318  1.00  0.00     0.130 C 
HETATM    4  C   UNL     1     -44.636  59.315 -58.066  1.00  0.00     0.068 C 
HETATM    5  C   UNL     1     -43.568  60.338 -57.642  1.00  0.00     0.094 C 
HETATM    6  N   UNL     1     -44.229  61.561 -57.238  1.00  0.00    -0.334 N 
HETATM    7  C   UNL     1     -43.566  62.752 -57.108  1.00  0.00     0.255 C 
HETATM    8  O   UNL     1     -44.010  63.656 -56.413  1.00  0.00    -0.268 OA
HETATM    9  C   UNL     1     -42.307  62.880 -57.865  1.00  0.00     0.053 A 
HETATM   10  C   UNL     1     -41.930  61.810 -58.686  1.00  0.00     0.026 A 
HETATM   11  N   UNL     1     -42.730  60.663 -58.796  1.00  0.00    -0.265 NA
HETATM   12  C   UNL     1     -41.539  64.045 -57.781  1.00  0.00     0.019 A 
HETATM   13  C   UNL     1     -40.384  64.160 -58.551  1.00  0.00     0.001 A 
HETATM   14  C   UNL     1     -40.019  63.124 -59.411  1.00  0.00     0.002 A 
HETATM   15  C   UNL     1     -40.796  61.963 -59.490  1.00  0.00     0.024 A 
HETATM   16  C   UNL     1     -42.736  59.771 -56.476  1.00  0.00     0.068 C 
HETATM   17  C   UNL     1     -42.185  58.387 -56.784  1.00  0.00     0.130 C 
HETATM   18  O   UNL     1     -43.377  55.329 -58.049  1.00  0.00    -0.266 OA
HETATM   19  H   UNL     1     -45.046  61.500 -56.645  1.00  0.00     0.164 HD
HETATM   20  H   UNL     1     -42.229  59.878 -59.200  1.00  0.00     0.130 HD
ENDROOT
BRANCH   1  21
HETATM   21  C   UNL     1     -42.386  55.565 -55.951  1.00  0.00     0.119 A 
HETATM   22  N   UNL     1     -41.134  55.019 -55.899  1.00  0.00    -0.273 N 
HETATM   23  N   UNL     1     -40.774  54.588 -54.684  1.00  0.00    -0.178 NA
HETATM   24  H   UNL     1     -40.483  54.896 -56.667  1.00  0.00     0.189 HD
HETATM   25  C   UNL     1     -41.791  54.951 -53.887  1.00  0.00     0.064 A 
HETATM   26  C   UNL     1     -42.809  55.593 -54.638  1.00  0.00     0.066 A 
BRANCH  25  27
HETATM   27  C   UNL     1     -41.735  54.656 -52.397  1.00  0.00    -0.005 C 
HETATM   28  C   UNL     1     -40.650  53.600 -52.109  1.00  0.00     0.021 C 
HETATM   29  C   UNL     1     -43.099  54.122 -51.908  1.00  0.00     0.021 C 
HETATM   30  C   UNL     1     -41.402  55.919 -51.575  1.00  0.00     0.021 C 
ENDBRANCH  25  27
ENDBRANCH   1  21
TORSDOF 2
ENDMDL
MODEL 10
REMARK VINA RESULT:      -7.0      2.474      3.183
REMARK  2 active torsions:
REMARK  status: ('A' for Active; 'I' for Inactive)
REMARK    1  A    between atoms: C_2  and  C_3 
REMARK    2  A    between atoms: C_7  and  C_8 
REMARK       I    between atoms: C_8  and  N_9 
ROOT
HETATM    1  C   UNL     1     -44.119  59.169 -52.381  1.00  0.00     0.271 C 
HETATM    2  N   UNL     1     -43.580  59.756 -53.541  1.00  0.00    -0.346 N 
HETATM    3  C   UNL     1     -44.227  60.987 -53.989  1.00  0.00     0.130 C 
HETATM    4  C   UNL     1     -43.336  61.793 -54.925  1.00  0.00     0.068 C 
HETATM    5  C   UNL     1     -42.788  60.954 -56.091  1.00  0.00     0.094 C 
HETATM    6  N   UNL     1     -41.806  61.739 -56.809  1.00  0.00    -0.334 N 
HETATM    7  C   UNL     1     -41.369  61.409 -58.064  1.00  0.00     0.255 C 
HETATM    8  O   UNL     1     -40.297  61.817 -58.494  1.00  0.00    -0.268 OA
HETATM    9  C   UNL     1     -42.268  60.555 -58.862  1.00  0.00     0.053 A 
HETATM   10  C   UNL     1     -43.503  60.207 -58.299  1.00  0.00     0.026 A 
HETATM   11  N   UNL     1     -43.875  60.665 -57.027  1.00  0.00    -0.265 NA
HETATM   12  C   UNL     1     -41.905  60.138 -60.146  1.00  0.00     0.019 A 
HETATM   13  C   UNL     1     -42.800  59.380 -60.898  1.00  0.00     0.001 A 
HETATM   14  C   UNL     1     -44.053  59.064 -60.371  1.00  0.00     0.002 A 
HETATM   15  C   UNL     1     -44.408  59.489 -59.086  1.00  0.00     0.024 A 
HETATM   16  C   UNL     1     -42.146  59.663 -55.550  1.00  0.00     0.068 C 
HETATM   17  C   UNL     1     -43.080  58.903 -54.622  1.00  0.00     0.130 C 
HETATM   18  O   UNL     1     -45.148  59.599 -51.863  1.00  0.00    -0.266 OA
HETATM   19  H   UNL     1     -41.123  62.265 -56.281  1.00  0.00     0.164 HD
HETATM   20  H   UNL     1     -44.652  60.140 -56.637  1.00  0.00     0.130 HD
ENDROOT
BRANCH   1  21
HETATM   21  C   UNL     1     -43.393  58.064 -51.811  1.00  0.00     0.119 A 
HETATM   22  N   UNL     1     -42.293  58.176 -51.008  1.00  0.00    -0.273 N 
HETATM   23  N   UNL     1     -41.773  57.003 -50.625  1.00  0.00    -0.178 NA
HETATM   24  H   UNL     1     -41.836  59.028 -50.701  1.00  0.00     0.189 HD
HETATM   25  C   UNL     1     -42.621  56.086 -51.118  1.00  0.00     0.064 A 
HETATM   26  C   UNL     1     -43.668  56.713 -51.842  1.00  0.00     0.066 A 
BRANCH  25  27
HETATM   27  C   UNL     1     -42.380  54.608 -50.859  1.00  0.00    -0.005 C 
HETATM   28  C   UNL     1     -43.728  53.866 -50.746  1.00  0.00     0.021 C 
HETATM   29  C   UNL     1     -41.592  54.418 -49.546  1.00  0.00     0.021 C 
HETATM   30  C   UNL     1     -41.569  53.952 -51.995  1.00  0.00     0.021 C 
ENDBRANCH  25  27
ENDBRANCH   1  21
TORSDOF 2
ENDMDL
