MODEL 1
REMARK VINA RESULT:      -9.3      0.000      0.000
REMARK  5 active torsions:
REMARK  status: ('A' for Active; 'I' for Inactive)
REMARK    1  A    between atoms: C_14  and  C_15 
REMARK       I    between atoms: C_15  and  N_16 
REMARK    2  A    between atoms: N_16  and  C_17 
REMARK    3  A    between atoms: C_18  and  C_19 
REMARK    4  A    between atoms: C_19  and  O_20 
REMARK    5  A    between atoms: O_20  and  C_21 
ROOT
HETATM    1  C   UNL     1     -42.966  56.506 -54.576  1.00  0.00     0.273 C 
HETATM    2  N   UNL     1     -41.710  56.425 -53.987  1.00  0.00    -0.321 N 
HETATM    3  O   UNL     1     -44.014  56.470 -53.941  1.00  0.00    -0.266 OA
HETATM    4  H   UNL     1     -40.998  56.943 -54.484  1.00  0.00     0.169 HD
ENDROOT
BRANCH   1   5
HETATM    5  C   UNL     1     -42.924  56.739 -56.017  1.00  0.00     0.104 C 
HETATM    6  N   UNL     1     -42.852  57.996 -56.627  1.00  0.00    -0.345 N 
HETATM    7  C   UNL     1     -43.037  59.250 -55.928  1.00  0.00     0.156 C 
HETATM    8  C   UNL     1     -42.650  57.813 -57.951  1.00  0.00     0.060 A 
HETATM    9  C   UNL     1     -42.796  56.480 -58.283  1.00  0.00     0.012 A 
HETATM   10  C   UNL     1     -42.359  58.720 -58.930  1.00  0.00     0.039 A 
HETATM   11  C   UNL     1     -42.713  56.115 -59.643  1.00  0.00     0.132 A 
HETATM   12  C   UNL     1     -42.976  55.804 -57.053  1.00  0.00     0.050 C 
HETATM   13  N   UNL     1     -42.464  57.015 -60.641  1.00  0.00    -0.241 NA
HETATM   14  C   UNL     1     -42.282  58.281 -60.230  1.00  0.00     0.139 A 
HETATM   15  N   UNL     1     -41.977  59.368 -60.998  1.00  0.00    -0.350 N 
HETATM   16  H   UNL     1     -41.862  59.336 -62.000  1.00  0.00     0.166 HD
HETATM   17  C   UNL     1     -41.820  60.476 -60.188  1.00  0.00     0.091 A 
HETATM   18  C   UNL     1     -42.046  60.099 -58.874  1.00  0.00     0.034 A 
ENDBRANCH   1   5
BRANCH   2  19
HETATM   19  C   UNL     1     -41.522  56.281 -52.593  1.00  0.00     0.043 A 
HETATM   20  C   UNL     1     -41.671  55.068 -51.896  1.00  0.00    -0.007 A 
HETATM   21  C   UNL     1     -41.559  55.081 -50.491  1.00  0.00     0.011 A 
HETATM   22  C   UNL     1     -41.248  56.253 -49.802  1.00  0.00     0.001 A 
HETATM   23  C   UNL     1     -41.020  57.428 -50.507  1.00  0.00     0.002 A 
HETATM   24  C   UNL     1     -41.147  57.440 -51.896  1.00  0.00     0.030 A 
BRANCH  20  25
HETATM   25  C   UNL     1     -41.798  53.718 -52.572  1.00  0.00     0.216 C 
BRANCH  25  26
HETATM   26  O   UNL     1     -40.610  53.412 -53.308  1.00  0.00    -0.347 OA
BRANCH  26  27
HETATM   27  C   UNL     1     -40.204  52.113 -53.145  1.00  0.00     0.069 A 
HETATM   28  C   UNL     1     -39.785  51.586 -51.922  1.00  0.00     0.037 A 
HETATM   29  C   UNL     1     -39.408  50.244 -51.835  1.00  0.00     0.003 A 
HETATM   30  C   UNL     1     -39.461  49.428 -52.966  1.00  0.00     0.000 A 
HETATM   31  C   UNL     1     -39.900  49.950 -54.181  1.00  0.00     0.003 A 
HETATM   32  C   UNL     1     -40.279  51.291 -54.269  1.00  0.00     0.037 A 
ENDBRANCH  26  27
ENDBRANCH  25  26
ENDBRANCH  20  25
ENDBRANCH   2  19
TORSDOF 5
ENDMDL
MODEL 2
REMARK VINA RESULT:      -9.1      2.723      7.892
REMARK  5 active torsions:
REMARK  status: ('A' for Active; 'I' for Inactive)
REMARK    1  A    between atoms: C_14  and  C_15 
REMARK       I    between atoms: C_15  and  N_16 
REMARK    2  A    between atoms: N_16  and  C_17 
REMARK    3  A    between atoms: C_18  and  C_19 
REMARK    4  A    between atoms: C_19  and  O_20 
REMARK    5  A    between atoms: O_20  and  C_21 
ROOT
HETATM    1  C   UNL     1     -41.592  55.857 -53.240  1.00  0.00     0.273 C 
HETATM    2  N   UNL     1     -42.982  55.851 -53.217  1.00  0.00    -0.321 N 
HETATM    3  O   UNL     1     -40.919  56.874 -53.124  1.00  0.00    -0.266 OA
HETATM    4  H   UNL     1     -43.375  55.004 -52.827  1.00  0.00     0.169 HD
ENDROOT
BRANCH   1   5
HETATM    5  C   UNL     1     -41.002  54.523 -53.316  1.00  0.00     0.104 C 
HETATM    6  N   UNL     1     -40.620  53.749 -52.215  1.00  0.00    -0.345 N 
HETATM    7  C   UNL     1     -40.544  54.248 -50.858  1.00  0.00     0.156 C 
HETATM    8  C   UNL     1     -40.286  52.517 -52.660  1.00  0.00     0.060 A 
HETATM    9  C   UNL     1     -40.227  52.499 -54.040  1.00  0.00     0.012 A 
HETATM   10  C   UNL     1     -40.002  51.377 -51.963  1.00  0.00     0.039 A 
HETATM   11  C   UNL     1     -39.800  51.316 -54.679  1.00  0.00     0.132 A 
HETATM   12  C   UNL     1     -40.677  53.777 -54.451  1.00  0.00     0.050 C 
HETATM   13  N   UNL     1     -39.473  50.179 -53.996  1.00  0.00    -0.241 NA
HETATM   14  C   UNL     1     -39.607  50.261 -52.661  1.00  0.00     0.139 A 
HETATM   15  N   UNL     1     -39.395  49.273 -51.742  1.00  0.00    -0.350 N 
HETATM   16  H   UNL     1     -39.092  48.340 -51.978  1.00  0.00     0.166 HD
HETATM   17  C   UNL     1     -39.695  49.745 -50.480  1.00  0.00     0.091 A 
HETATM   18  C   UNL     1     -40.091  51.069 -50.585  1.00  0.00     0.034 A 
ENDBRANCH   1   5
BRANCH   2  19
HETATM   19  C   UNL     1     -43.754  57.026 -53.068  1.00  0.00     0.043 A 
HETATM   20  C   UNL     1     -44.253  57.785 -54.142  1.00  0.00    -0.007 A 
HETATM   21  C   UNL     1     -44.919  58.995 -53.859  1.00  0.00     0.011 A 
HETATM   22  C   UNL     1     -45.136  59.410 -52.545  1.00  0.00     0.001 A 
HETATM   23  C   UNL     1     -44.712  58.611 -51.490  1.00  0.00     0.002 A 
HETATM   24  C   UNL     1     -44.033  57.421 -51.750  1.00  0.00     0.030 A 
BRANCH  20  25
HETATM   25  C   UNL     1     -44.253  57.311 -55.581  1.00  0.00     0.216 C 
BRANCH  25  26
HETATM   26  O   UNL     1     -42.940  56.900 -55.973  1.00  0.00    -0.347 OA
BRANCH  26  27
HETATM   27  C   UNL     1     -42.731  57.010 -57.323  1.00  0.00     0.069 A 
HETATM   28  C   UNL     1     -42.199  58.149 -57.930  1.00  0.00     0.037 A 
HETATM   29  C   UNL     1     -41.997  58.172 -59.312  1.00  0.00     0.003 A 
HETATM   30  C   UNL     1     -42.314  57.054 -60.084  1.00  0.00     0.000 A 
HETATM   31  C   UNL     1     -42.825  55.909 -59.474  1.00  0.00     0.003 A 
HETATM   32  C   UNL     1     -43.026  55.885 -58.093  1.00  0.00     0.037 A 
ENDBRANCH  26  27
ENDBRANCH  25  26
ENDBRANCH  20  25
ENDBRANCH   2  19
TORSDOF 5
ENDMDL
MODEL 3
REMARK VINA RESULT:      -9.0      2.176      4.980
REMARK  5 active torsions:
REMARK  status: ('A' for Active; 'I' for Inactive)
REMARK    1  A    between atoms: C_14  and  C_15 
REMARK       I    between atoms: C_15  and  N_16 
REMARK    2  A    between atoms: N_16  and  C_17 
REMARK    3  A    between atoms: C_18  and  C_19 
REMARK    4  A    between atoms: C_19  and  O_20 
REMARK    5  A    between atoms: O_20  and  C_21 
ROOT
HETATM    1  C   UNL     1     -41.579  54.065 -54.294  1.00  0.00     0.273 C 
HETATM    2  N   UNL     1     -40.354  53.630 -53.803  1.00  0.00    -0.321 N 
HETATM    3  O   UNL     1     -42.553  53.332 -54.426  1.00  0.00    -0.266 OA
HETATM    4  H   UNL     1     -39.849  54.342 -53.291  1.00  0.00     0.169 HD
ENDROOT
BRANCH   1   5
HETATM    5  C   UNL     1     -41.632  55.502 -54.547  1.00  0.00     0.104 C 
HETATM    6  N   UNL     1     -42.274  56.104 -55.635  1.00  0.00    -0.345 N 
HETATM    7  C   UNL     1     -42.783  55.380 -56.780  1.00  0.00     0.156 C 
HETATM    8  C   UNL     1     -42.266  57.442 -55.443  1.00  0.00     0.060 A 
HETATM    9  C   UNL     1     -41.457  57.774 -54.374  1.00  0.00     0.012 A 
HETATM   10  C   UNL     1     -42.899  58.434 -56.137  1.00  0.00     0.039 A 
HETATM   11  C   UNL     1     -41.254  59.139 -54.084  1.00  0.00     0.132 A 
HETATM   12  C   UNL     1     -41.052  56.538 -53.813  1.00  0.00     0.050 C 
HETATM   13  N   UNL     1     -41.845  60.146 -54.794  1.00  0.00    -0.241 NA
HETATM   14  C   UNL     1     -42.659  59.740 -55.783  1.00  0.00     0.139 A 
HETATM   15  N   UNL     1     -43.408  60.521 -56.616  1.00  0.00    -0.350 N 
HETATM   16  H   UNL     1     -43.422  61.529 -56.582  1.00  0.00     0.166 HD
HETATM   17  C   UNL     1     -44.149  59.716 -57.460  1.00  0.00     0.091 A 
HETATM   18  C   UNL     1     -43.858  58.391 -57.178  1.00  0.00     0.034 A 
ENDBRANCH   1   5
BRANCH   2  19
HETATM   19  C   UNL     1     -40.112  52.292 -53.417  1.00  0.00     0.043 A 
HETATM   20  C   UNL     1     -39.849  51.886 -52.095  1.00  0.00    -0.007 A 
HETATM   21  C   UNL     1     -39.518  50.536 -51.859  1.00  0.00     0.011 A 
HETATM   22  C   UNL     1     -39.506  49.603 -52.896  1.00  0.00     0.001 A 
HETATM   23  C   UNL     1     -39.849  49.998 -54.183  1.00  0.00     0.002 A 
HETATM   24  C   UNL     1     -40.159  51.333 -54.440  1.00  0.00     0.030 A 
BRANCH  20  25
HETATM   25  C   UNL     1     -40.046  52.776 -50.885  1.00  0.00     0.216 C 
BRANCH  25  26
HETATM   26  O   UNL     1     -41.437  53.017 -50.660  1.00  0.00    -0.347 OA
BRANCH  26  27
HETATM   27  C   UNL     1     -41.745  54.352 -50.620  1.00  0.00     0.069 A 
HETATM   28  C   UNL     1     -40.826  55.343 -50.271  1.00  0.00     0.037 A 
HETATM   29  C   UNL     1     -41.214  56.685 -50.276  1.00  0.00     0.003 A 
HETATM   30  C   UNL     1     -42.514  57.036 -50.641  1.00  0.00     0.000 A 
HETATM   31  C   UNL     1     -43.424  56.047 -51.010  1.00  0.00     0.003 A 
HETATM   32  C   UNL     1     -43.037  54.706 -51.007  1.00  0.00     0.037 A 
ENDBRANCH  26  27
ENDBRANCH  25  26
ENDBRANCH  20  25
ENDBRANCH   2  19
TORSDOF 5
ENDMDL
MODEL 4
REMARK VINA RESULT:      -8.9      2.781      7.795
REMARK  5 active torsions:
REMARK  status: ('A' for Active; 'I' for Inactive)
REMARK    1  A    between atoms: C_14  and  C_15 
REMARK       I    between atoms: C_15  and  N_16 
REMARK    2  A    between atoms: N_16  and  C_17 
REMARK    3  A    between atoms: C_18  and  C_19 
REMARK    4  A    between atoms: C_19  and  O_20 
REMARK    5  A    between atoms: O_20  and  C_21 
ROOT
HETATM    1  C   UNL     1     -42.096  56.285 -52.807  1.00  0.00     0.273 C 
HETATM    2  N   UNL     1     -43.482  56.387 -52.827  1.00  0.00    -0.321 N 
HETATM    3  O   UNL     1     -41.346  57.237 -52.986  1.00  0.00    -0.266 OA
HETATM    4  H   UNL     1     -43.943  55.730 -52.211  1.00  0.00     0.169 HD
ENDROOT
BRANCH   1   5
HETATM    5  C   UNL     1     -41.612  54.952 -52.457  1.00  0.00     0.104 C 
HETATM    6  N   UNL     1     -41.457  53.891 -53.355  1.00  0.00    -0.345 N 
HETATM    7  C   UNL     1     -41.965  53.893 -54.711  1.00  0.00     0.156 C 
HETATM    8  C   UNL     1     -40.825  52.883 -52.714  1.00  0.00     0.060 A 
HETATM    9  C   UNL     1     -40.740  53.147 -51.361  1.00  0.00     0.012 A 
HETATM   10  C   UNL     1     -40.314  51.713 -53.202  1.00  0.00     0.039 A 
HETATM   11  C   UNL     1     -40.193  52.159 -50.517  1.00  0.00     0.132 A 
HETATM   12  C   UNL     1     -41.248  54.459 -51.203  1.00  0.00     0.050 C 
HETATM   13  N   UNL     1     -39.715  50.966 -50.982  1.00  0.00    -0.241 NA
HETATM   14  C   UNL     1     -39.784  50.807 -52.314  1.00  0.00     0.139 A 
HETATM   15  N   UNL     1     -39.344  49.743 -53.049  1.00  0.00    -0.350 N 
HETATM   16  H   UNL     1     -38.910  48.924 -52.651  1.00  0.00     0.166 HD
HETATM   17  C   UNL     1     -39.552  49.993 -54.392  1.00  0.00     0.091 A 
HETATM   18  C   UNL     1     -40.155  51.234 -54.523  1.00  0.00     0.034 A 
ENDBRANCH   1   5
BRANCH   2  19
HETATM   19  C   UNL     1     -44.160  57.604 -53.065  1.00  0.00     0.043 A 
HETATM   20  C   UNL     1     -44.457  58.106 -54.346  1.00  0.00    -0.007 A 
HETATM   21  C   UNL     1     -45.043  59.384 -54.449  1.00  0.00     0.011 A 
HETATM   22  C   UNL     1     -45.382  60.117 -53.312  1.00  0.00     0.001 A 
HETATM   23  C   UNL     1     -45.162  59.576 -52.051  1.00  0.00     0.002 A 
HETATM   24  C   UNL     1     -44.563  58.322 -51.929  1.00  0.00     0.030 A 
BRANCH  20  25
HETATM   25  C   UNL     1     -44.322  57.297 -55.620  1.00  0.00     0.216 C 
BRANCH  25  26
HETATM   26  O   UNL     1     -42.943  57.110 -55.952  1.00  0.00    -0.347 OA
BRANCH  26  27
HETATM   27  C   UNL     1     -42.732  56.999 -57.301  1.00  0.00     0.069 A 
HETATM   28  C   UNL     1     -43.093  55.875 -58.047  1.00  0.00     0.037 A 
HETATM   29  C   UNL     1     -42.864  55.851 -59.424  1.00  0.00     0.003 A 
HETATM   30  C   UNL     1     -42.285  56.951 -60.057  1.00  0.00     0.000 A 
HETATM   31  C   UNL     1     -41.945  58.081 -59.315  1.00  0.00     0.003 A 
HETATM   32  C   UNL     1     -42.175  58.108 -57.939  1.00  0.00     0.037 A 
ENDBRANCH  26  27
ENDBRANCH  25  26
ENDBRANCH  20  25
ENDBRANCH   2  19
TORSDOF 5
ENDMDL
MODEL 5
REMARK VINA RESULT:      -8.7      2.380      7.897
REMARK  5 active torsions:
REMARK  status: ('A' for Active; 'I' for Inactive)
REMARK    1  A    between atoms: C_14  and  C_15 
REMARK       I    between atoms: C_15  and  N_16 
REMARK    2  A    between atoms: N_16  and  C_17 
REMARK    3  A    between atoms: C_18  and  C_19 
REMARK    4  A    between atoms: C_19  and  O_20 
REMARK    5  A    between atoms: O_20  and  C_21 
ROOT
HETATM    1  C   UNL     1     -43.386  56.727 -54.341  1.00  0.00     0.273 C 
HETATM    2  N   UNL     1     -42.632  57.301 -55.358  1.00  0.00    -0.321 N 
HETATM    3  O   UNL     1     -44.583  56.939 -54.186  1.00  0.00    -0.266 OA
HETATM    4  H   UNL     1     -41.876  56.712 -55.680  1.00  0.00     0.169 HD
ENDROOT
BRANCH   1   5
HETATM    5  C   UNL     1     -42.642  55.768 -53.530  1.00  0.00     0.104 C 
HETATM    6  N   UNL     1     -42.237  54.498 -53.956  1.00  0.00    -0.345 N 
HETATM    7  C   UNL     1     -42.693  53.867 -55.177  1.00  0.00     0.156 C 
HETATM    8  C   UNL     1     -41.426  53.973 -53.011  1.00  0.00     0.060 A 
HETATM    9  C   UNL     1     -41.440  54.754 -51.872  1.00  0.00     0.012 A 
HETATM   10  C   UNL     1     -40.664  52.839 -53.036  1.00  0.00     0.039 A 
HETATM   11  C   UNL     1     -40.722  54.309 -50.743  1.00  0.00     0.132 A 
HETATM   12  C   UNL     1     -42.219  55.889 -52.205  1.00  0.00     0.050 C 
HETATM   13  N   UNL     1     -39.988  53.156 -50.736  1.00  0.00    -0.241 NA
HETATM   14  C   UNL     1     -39.982  52.481 -51.898  1.00  0.00     0.139 A 
HETATM   15  N   UNL     1     -39.303  51.331 -52.188  1.00  0.00    -0.350 N 
HETATM   16  H   UNL     1     -38.718  50.841 -51.528  1.00  0.00     0.166 HD
HETATM   17  C   UNL     1     -39.519  50.990 -53.509  1.00  0.00     0.091 A 
HETATM   18  C   UNL     1     -40.367  51.927 -54.076  1.00  0.00     0.034 A 
ENDBRANCH   1   5
BRANCH   2  19
HETATM   19  C   UNL     1     -43.176  58.196 -56.307  1.00  0.00     0.043 A 
HETATM   20  C   UNL     1     -43.295  59.584 -56.108  1.00  0.00    -0.007 A 
HETATM   21  C   UNL     1     -43.953  60.351 -57.090  1.00  0.00     0.011 A 
HETATM   22  C   UNL     1     -44.426  59.768 -58.265  1.00  0.00     0.001 A 
HETATM   23  C   UNL     1     -44.229  58.411 -58.490  1.00  0.00     0.002 A 
HETATM   24  C   UNL     1     -43.599  57.631 -57.521  1.00  0.00     0.030 A 
BRANCH  20  25
HETATM   25  C   UNL     1     -42.628  60.332 -54.971  1.00  0.00     0.216 C 
BRANCH  25  26
HETATM   26  O   UNL     1     -41.389  59.709 -54.619  1.00  0.00    -0.347 OA
BRANCH  26  27
HETATM   27  C   UNL     1     -41.238  59.557 -53.266  1.00  0.00     0.069 A 
HETATM   28  C   UNL     1     -40.139  58.926 -52.681  1.00  0.00     0.037 A 
HETATM   29  C   UNL     1     -40.050  58.832 -51.289  1.00  0.00     0.003 A 
HETATM   30  C   UNL     1     -41.051  59.377 -50.486  1.00  0.00     0.000 A 
HETATM   31  C   UNL     1     -42.137  60.026 -51.071  1.00  0.00     0.003 A 
HETATM   32  C   UNL     1     -42.227  60.122 -52.460  1.00  0.00     0.037 A 
ENDBRANCH  26  27
ENDBRANCH  25  26
ENDBRANCH  20  25
ENDBRANCH   2  19
TORSDOF 5
ENDMDL
MODEL 6
REMARK VINA RESULT:      -8.6      1.582      2.810
REMARK  5 active torsions:
REMARK  status: ('A' for Active; 'I' for Inactive)
REMARK    1  A    between atoms: C_14  and  C_15 
REMARK       I    between atoms: C_15  and  N_16 
REMARK    2  A    between atoms: N_16  and  C_17 
REMARK    3  A    between atoms: C_18  and  C_19 
REMARK    4  A    between atoms: C_19  and  O_20 
REMARK    5  A    between atoms: O_20  and  C_21 
ROOT
HETATM    1  C   UNL     1     -43.068  57.990 -54.636  1.00  0.00     0.273 C 
HETATM    2  N   UNL     1     -41.737  57.778 -54.298  1.00  0.00    -0.321 N 
HETATM    3  O   UNL     1     -43.936  58.273 -53.818  1.00  0.00    -0.266 OA
HETATM    4  H   UNL     1     -41.088  58.049 -55.025  1.00  0.00     0.169 HD
ENDROOT
BRANCH   1   5
HETATM    5  C   UNL     1     -43.322  57.942 -56.073  1.00  0.00     0.104 C 
HETATM    6  N   UNL     1     -43.362  56.776 -56.844  1.00  0.00    -0.345 N 
HETATM    7  C   UNL     1     -42.936  55.475 -56.373  1.00  0.00     0.156 C 
HETATM    8  C   UNL     1     -43.796  57.102 -58.082  1.00  0.00     0.060 A 
HETATM    9  C   UNL     1     -43.845  58.474 -58.233  1.00  0.00     0.012 A 
HETATM   10  C   UNL     1     -44.148  56.299 -59.130  1.00  0.00     0.039 A 
HETATM   11  C   UNL     1     -44.187  58.999 -59.496  1.00  0.00     0.132 A 
HETATM   12  C   UNL     1     -43.537  59.002 -56.956  1.00  0.00     0.050 C 
HETATM   13  N   UNL     1     -44.501  58.212 -60.568  1.00  0.00    -0.241 NA
HETATM   14  C   UNL     1     -44.482  56.890 -60.326  1.00  0.00     0.139 A 
HETATM   15  N   UNL     1     -44.795  55.882 -61.193  1.00  0.00    -0.350 N 
HETATM   16  H   UNL     1     -45.075  56.028 -62.151  1.00  0.00     0.166 HD
HETATM   17  C   UNL     1     -44.702  54.668 -60.540  1.00  0.00     0.091 A 
HETATM   18  C   UNL     1     -44.304  54.897 -59.232  1.00  0.00     0.034 A 
ENDBRANCH   1   5
BRANCH   2  19
HETATM   19  C   UNL     1     -41.258  57.858 -52.970  1.00  0.00     0.043 A 
HETATM   20  C   UNL     1     -41.352  56.814 -52.031  1.00  0.00    -0.007 A 
HETATM   21  C   UNL     1     -40.932  57.058 -50.708  1.00  0.00     0.011 A 
HETATM   22  C   UNL     1     -40.378  58.284 -50.341  1.00  0.00     0.001 A 
HETATM   23  C   UNL     1     -40.211  59.280 -51.296  1.00  0.00     0.002 A 
HETATM   24  C   UNL     1     -40.640  59.064 -52.605  1.00  0.00     0.030 A 
BRANCH  20  25
HETATM   25  C   UNL     1     -41.740  55.393 -52.387  1.00  0.00     0.216 C 
BRANCH  25  26
HETATM   26  O   UNL     1     -40.995  54.458 -51.602  1.00  0.00    -0.347 OA
BRANCH  26  27
HETATM   27  C   UNL     1     -40.591  53.364 -52.322  1.00  0.00     0.069 A 
HETATM   28  C   UNL     1     -40.809  53.222 -53.693  1.00  0.00     0.037 A 
HETATM   29  C   UNL     1     -40.345  52.083 -54.358  1.00  0.00     0.003 A 
HETATM   30  C   UNL     1     -39.656  51.095 -53.654  1.00  0.00     0.000 A 
HETATM   31  C   UNL     1     -39.421  51.248 -52.289  1.00  0.00     0.003 A 
HETATM   32  C   UNL     1     -39.882  52.385 -51.624  1.00  0.00     0.037 A 
ENDBRANCH  26  27
ENDBRANCH  25  26
ENDBRANCH  20  25
ENDBRANCH   2  19
TORSDOF 5
ENDMDL
MODEL 7
REMARK VINA RESULT:      -8.3      2.475      3.308
REMARK  5 active torsions:
REMARK  status: ('A' for Active; 'I' for Inactive)
REMARK    1  A    between atoms: C_14  and  C_15 
REMARK       I    between atoms: C_15  and  N_16 
REMARK    2  A    between atoms: N_16  and  C_17 
REMARK    3  A    between atoms: C_18  and  C_19 
REMARK    4  A    between atoms: C_19  and  O_20 
REMARK    5  A    between atoms: O_20  and  C_21 
ROOT
HETATM    1  C   UNL     1     -42.547  58.823 -55.299  1.00  0.00     0.273 C 
HETATM    2  N   UNL     1     -43.034  58.435 -54.056  1.00  0.00    -0.321 N 
HETATM    3  O   UNL     1     -41.686  59.682 -55.449  1.00  0.00    -0.266 OA
HETATM    4  H   UNL     1     -43.314  57.464 -54.018  1.00  0.00     0.169 HD
ENDROOT
BRANCH   1   5
HETATM    5  C   UNL     1     -43.088  58.042 -56.409  1.00  0.00     0.104 C 
HETATM    6  N   UNL     1     -44.335  58.252 -57.007  1.00  0.00    -0.345 N 
HETATM    7  C   UNL     1     -45.359  59.121 -56.467  1.00  0.00     0.156 C 
HETATM    8  C   UNL     1     -44.415  57.466 -58.104  1.00  0.00     0.060 A 
HETATM    9  C   UNL     1     -43.355  56.581 -58.145  1.00  0.00     0.012 A 
HETATM   10  C   UNL     1     -45.356  57.430 -59.093  1.00  0.00     0.039 A 
HETATM   11  C   UNL     1     -43.325  55.617 -59.173  1.00  0.00     0.132 A 
HETATM   12  C   UNL     1     -42.519  56.947 -57.062  1.00  0.00     0.050 C 
HETATM   13  N   UNL     1     -44.280  55.539 -60.147  1.00  0.00    -0.241 NA
HETATM   14  C   UNL     1     -45.247  56.468 -60.069  1.00  0.00     0.139 A 
HETATM   15  N   UNL     1     -46.294  56.653 -60.927  1.00  0.00    -0.350 N 
HETATM   16  H   UNL     1     -46.464  56.081 -61.740  1.00  0.00     0.166 HD
HETATM   17  C   UNL     1     -47.033  57.748 -60.523  1.00  0.00     0.091 A 
HETATM   18  C   UNL     1     -46.462  58.268 -59.373  1.00  0.00     0.034 A 
ENDBRANCH   1   5
BRANCH   2  19
HETATM   19  C   UNL     1     -42.585  59.004 -52.842  1.00  0.00     0.043 A 
HETATM   20  C   UNL     1     -41.744  58.348 -51.925  1.00  0.00    -0.007 A 
HETATM   21  C   UNL     1     -41.456  58.986 -50.701  1.00  0.00     0.011 A 
HETATM   22  C   UNL     1     -41.939  60.264 -50.420  1.00  0.00     0.001 A 
HETATM   23  C   UNL     1     -42.700  60.937 -51.369  1.00  0.00     0.002 A 
HETATM   24  C   UNL     1     -43.012  60.315 -52.577  1.00  0.00     0.030 A 
BRANCH  20  25
HETATM   25  C   UNL     1     -41.005  57.061 -52.230  1.00  0.00     0.216 C 
BRANCH  25  26
HETATM   26  O   UNL     1     -41.920  56.045 -52.651  1.00  0.00    -0.347 OA
BRANCH  26  27
HETATM   27  C   UNL     1     -41.289  54.946 -53.172  1.00  0.00     0.069 A 
HETATM   28  C   UNL     1     -41.089  53.763 -52.458  1.00  0.00     0.037 A 
HETATM   29  C   UNL     1     -40.455  52.679 -53.070  1.00  0.00     0.003 A 
HETATM   30  C   UNL     1     -40.034  52.773 -54.396  1.00  0.00     0.000 A 
HETATM   31  C   UNL     1     -40.253  53.947 -55.115  1.00  0.00     0.003 A 
HETATM   32  C   UNL     1     -40.887  55.031 -54.505  1.00  0.00     0.037 A 
ENDBRANCH  26  27
ENDBRANCH  25  26
ENDBRANCH  20  25
ENDBRANCH   2  19
TORSDOF 5
ENDMDL
MODEL 8
REMARK VINA RESULT:      -8.3      1.889      4.552
REMARK  5 active torsions:
REMARK  status: ('A' for Active; 'I' for Inactive)
REMARK    1  A    between atoms: C_14  and  C_15 
REMARK       I    between atoms: C_15  and  N_16 
REMARK    2  A    between atoms: N_16  and  C_17 
REMARK    3  A    between atoms: C_18  and  C_19 
REMARK    4  A    between atoms: C_19  and  O_20 
REMARK    5  A    between atoms: O_20  and  C_21 
ROOT
HETATM    1  C   UNL     1     -41.258  55.099 -54.990  1.00  0.00     0.273 C 
HETATM    2  N   UNL     1     -41.762  53.900 -54.502  1.00  0.00    -0.321 N 
HETATM    3  O   UNL     1     -40.146  55.530 -54.708  1.00  0.00    -0.266 OA
HETATM    4  H   UNL     1     -42.391  53.436 -55.144  1.00  0.00     0.169 HD
ENDROOT
BRANCH   1   5
HETATM    5  C   UNL     1     -42.139  55.756 -55.953  1.00  0.00     0.104 C 
HETATM    6  N   UNL     1     -42.532  57.097 -55.897  1.00  0.00    -0.345 N 
HETATM    7  C   UNL     1     -42.308  57.964 -54.760  1.00  0.00     0.156 C 
HETATM    8  C   UNL     1     -43.194  57.391 -57.039  1.00  0.00     0.060 A 
HETATM    9  C   UNL     1     -43.444  56.242 -57.764  1.00  0.00     0.012 A 
HETATM   10  C   UNL     1     -43.630  58.594 -57.518  1.00  0.00     0.039 A 
HETATM   11  C   UNL     1     -44.210  56.347 -58.943  1.00  0.00     0.132 A 
HETATM   12  C   UNL     1     -42.777  55.206 -57.066  1.00  0.00     0.050 C 
HETATM   13  N   UNL     1     -44.690  57.535 -59.416  1.00  0.00    -0.241 NA
HETATM   14  C   UNL     1     -44.359  58.612 -58.683  1.00  0.00     0.139 A 
HETATM   15  N   UNL     1     -44.661  59.919 -58.942  1.00  0.00    -0.350 N 
HETATM   16  H   UNL     1     -45.197  60.226 -59.740  1.00  0.00     0.166 HD
HETATM   17  C   UNL     1     -44.092  60.724 -57.974  1.00  0.00     0.091 A 
HETATM   18  C   UNL     1     -43.425  59.919 -57.064  1.00  0.00     0.034 A 
ENDBRANCH   1   5
BRANCH   2  19
HETATM   19  C   UNL     1     -41.039  53.063 -53.621  1.00  0.00     0.043 A 
HETATM   20  C   UNL     1     -40.984  53.244 -52.226  1.00  0.00    -0.007 A 
HETATM   21  C   UNL     1     -40.140  52.404 -51.471  1.00  0.00     0.011 A 
HETATM   22  C   UNL     1     -39.418  51.375 -52.075  1.00  0.00     0.001 A 
HETATM   23  C   UNL     1     -39.544  51.152 -53.441  1.00  0.00     0.002 A 
HETATM   24  C   UNL     1     -40.357  51.985 -54.208  1.00  0.00     0.030 A 
BRANCH  20  25
HETATM   25  C   UNL     1     -41.889  54.189 -51.463  1.00  0.00     0.216 C 
BRANCH  25  26
HETATM   26  O   UNL     1     -41.207  55.413 -51.173  1.00  0.00    -0.347 OA
BRANCH  26  27
HETATM   27  C   UNL     1     -42.035  56.504 -51.213  1.00  0.00     0.069 A 
HETATM   28  C   UNL     1     -41.579  57.819 -51.116  1.00  0.00     0.037 A 
HETATM   29  C   UNL     1     -42.488  58.878 -51.187  1.00  0.00     0.003 A 
HETATM   30  C   UNL     1     -43.847  58.622 -51.367  1.00  0.00     0.000 A 
HETATM   31  C   UNL     1     -44.299  57.309 -51.485  1.00  0.00     0.003 A 
HETATM   32  C   UNL     1     -43.392  56.250 -51.415  1.00  0.00     0.037 A 
ENDBRANCH  26  27
ENDBRANCH  25  26
ENDBRANCH  20  25
ENDBRANCH   2  19
TORSDOF 5
ENDMDL
MODEL 9
REMARK VINA RESULT:      -8.3      2.050      4.924
REMARK  5 active torsions:
REMARK  status: ('A' for Active; 'I' for Inactive)
REMARK    1  A    between atoms: C_14  and  C_15 
REMARK       I    between atoms: C_15  and  N_16 
REMARK    2  A    between atoms: N_16  and  C_17 
REMARK    3  A    between atoms: C_18  and  C_19 
REMARK    4  A    between atoms: C_19  and  O_20 
REMARK    5  A    between atoms: O_20  and  C_21 
ROOT
HETATM    1  C   UNL     1     -42.700  55.226 -54.702  1.00  0.00     0.273 C 
HETATM    2  N   UNL     1     -41.372  55.120 -54.309  1.00  0.00    -0.321 N 
HETATM    3  O   UNL     1     -43.545  54.369 -54.471  1.00  0.00    -0.266 OA
HETATM    4  H   UNL     1     -40.940  56.010 -54.102  1.00  0.00     0.169 HD
ENDROOT
BRANCH   1   5
HETATM    5  C   UNL     1     -43.023  56.503 -55.334  1.00  0.00     0.104 C 
HETATM    6  N   UNL     1     -43.274  56.684 -56.699  1.00  0.00    -0.345 N 
HETATM    7  C   UNL     1     -43.028  55.678 -57.711  1.00  0.00     0.156 C 
HETATM    8  C   UNL     1     -43.708  57.951 -56.885  1.00  0.00     0.060 A 
HETATM    9  C   UNL     1     -43.556  58.690 -55.727  1.00  0.00     0.012 A 
HETATM   10  C   UNL     1     -44.223  58.549 -57.999  1.00  0.00     0.039 A 
HETATM   11  C   UNL     1     -43.871  60.064 -55.763  1.00  0.00     0.132 A 
HETATM   12  C   UNL     1     -43.115  57.767 -54.748  1.00  0.00     0.050 C 
HETATM   13  N   UNL     1     -44.348  60.689 -56.880  1.00  0.00    -0.241 NA
HETATM   14  C   UNL     1     -44.518  59.891 -57.947  1.00  0.00     0.139 A 
HETATM   15  N   UNL     1     -45.018  60.235 -59.171  1.00  0.00    -0.350 N 
HETATM   16  H   UNL     1     -45.315  61.167 -59.417  1.00  0.00     0.166 HD
HETATM   17  C   UNL     1     -45.080  59.113 -59.975  1.00  0.00     0.091 A 
HETATM   18  C   UNL     1     -44.594  58.029 -59.262  1.00  0.00     0.034 A 
ENDBRANCH   1   5
BRANCH   2  19
HETATM   19  C   UNL     1     -40.865  54.001 -53.609  1.00  0.00     0.043 A 
HETATM   20  C   UNL     1     -40.876  53.874 -52.207  1.00  0.00    -0.007 A 
HETATM   21  C   UNL     1     -40.242  52.755 -51.628  1.00  0.00     0.011 A 
HETATM   22  C   UNL     1     -39.667  51.761 -52.419  1.00  0.00     0.001 A 
HETATM   23  C   UNL     1     -39.736  51.854 -53.804  1.00  0.00     0.002 A 
HETATM   24  C   UNL     1     -40.340  52.963 -54.395  1.00  0.00     0.030 A 
BRANCH  20  25
HETATM   25  C   UNL     1     -41.656  54.787 -51.284  1.00  0.00     0.216 C 
BRANCH  25  26
HETATM   26  O   UNL     1     -41.193  56.136 -51.405  1.00  0.00    -0.347 OA
BRANCH  26  27
HETATM   27  C   UNL     1     -42.209  57.053 -51.331  1.00  0.00     0.069 A 
HETATM   28  C   UNL     1     -42.002  58.433 -51.363  1.00  0.00     0.037 A 
HETATM   29  C   UNL     1     -43.095  59.302 -51.305  1.00  0.00     0.003 A 
HETATM   30  C   UNL     1     -44.391  58.792 -51.228  1.00  0.00     0.000 A 
HETATM   31  C   UNL     1     -44.597  57.413 -51.218  1.00  0.00     0.003 A 
HETATM   32  C   UNL     1     -43.506  56.544 -51.278  1.00  0.00     0.037 A 
ENDBRANCH  26  27
ENDBRANCH  25  26
ENDBRANCH  20  25
ENDBRANCH   2  19
TORSDOF 5
ENDMDL
MODEL 10
REMARK VINA RESULT:      -8.3      2.124      4.437
REMARK  5 active torsions:
REMARK  status: ('A' for Active; 'I' for Inactive)
REMARK    1  A    between atoms: C_14  and  C_15 
REMARK       I    between atoms: C_15  and  N_16 
REMARK    2  A    between atoms: N_16  and  C_17 
REMARK    3  A    between atoms: C_18  and  C_19 
REMARK    4  A    between atoms: C_19  and  O_20 
REMARK    5  A    between atoms: O_20  and  C_21 
ROOT
HETATM    1  C   UNL     1     -41.828  55.870 -54.810  1.00  0.00     0.273 C 
HETATM    2  N   UNL     1     -42.784  55.532 -53.860  1.00  0.00    -0.321 N 
HETATM    3  O   UNL     1     -40.624  55.884 -54.581  1.00  0.00    -0.266 OA
HETATM    4  H   UNL     1     -43.602  55.085 -54.253  1.00  0.00     0.169 HD
ENDROOT
BRANCH   1   5
HETATM    5  C   UNL     1     -42.383  56.113 -56.139  1.00  0.00     0.104 C 
HETATM    6  N   UNL     1     -42.585  57.376 -56.706  1.00  0.00    -0.345 N 
HETATM    7  C   UNL     1     -42.485  58.621 -55.975  1.00  0.00     0.156 C 
HETATM    8  C   UNL     1     -42.941  57.206 -58.000  1.00  0.00     0.060 A 
HETATM    9  C   UNL     1     -43.192  55.873 -58.262  1.00  0.00     0.012 A 
HETATM   10  C   UNL     1     -43.090  58.125 -58.999  1.00  0.00     0.039 A 
HETATM   11  C   UNL     1     -43.669  55.519 -59.541  1.00  0.00     0.132 A 
HETATM   12  C   UNL     1     -42.842  55.185 -57.075  1.00  0.00     0.050 C 
HETATM   13  N   UNL     1     -43.864  56.430 -60.540  1.00  0.00    -0.241 NA
HETATM   14  C   UNL     1     -43.546  57.696 -60.223  1.00  0.00     0.139 A 
HETATM   15  N   UNL     1     -43.599  58.795 -61.033  1.00  0.00    -0.350 N 
HETATM   16  H   UNL     1     -43.904  58.772 -61.995  1.00  0.00     0.166 HD
HETATM   17  C   UNL     1     -43.138  59.899 -60.343  1.00  0.00     0.091 A 
HETATM   18  C   UNL     1     -42.800  59.509 -59.057  1.00  0.00     0.034 A 
ENDBRANCH   1   5
BRANCH   2  19
HETATM   19  C   UNL     1     -42.457  55.180 -52.530  1.00  0.00     0.043 A 
HETATM   20  C   UNL     1     -42.598  56.042 -51.427  1.00  0.00    -0.007 A 
HETATM   21  C   UNL     1     -42.136  55.606 -50.169  1.00  0.00     0.011 A 
HETATM   22  C   UNL     1     -41.603  54.329 -49.997  1.00  0.00     0.001 A 
HETATM   23  C   UNL     1     -41.546  53.455 -51.077  1.00  0.00     0.002 A 
HETATM   24  C   UNL     1     -41.979  53.875 -52.334  1.00  0.00     0.030 A 
BRANCH  20  25
HETATM   25  C   UNL     1     -43.353  57.355 -51.475  1.00  0.00     0.216 C 
BRANCH  25  26
HETATM   26  O   UNL     1     -42.691  58.283 -52.339  1.00  0.00    -0.347 OA
BRANCH  26  27
HETATM   27  C   UNL     1     -41.476  58.689 -51.851  1.00  0.00     0.069 A 
HETATM   28  C   UNL     1     -40.293  58.636 -52.590  1.00  0.00     0.037 A 
HETATM   29  C   UNL     1     -39.099  59.091 -52.025  1.00  0.00     0.003 A 
HETATM   30  C   UNL     1     -39.090  59.608 -50.730  1.00  0.00     0.000 A 
HETATM   31  C   UNL     1     -40.276  59.680 -50.000  1.00  0.00     0.003 A 
HETATM   32  C   UNL     1     -41.470  59.227 -50.564  1.00  0.00     0.037 A 
ENDBRANCH  26  27
ENDBRANCH  25  26
ENDBRANCH  20  25
ENDBRANCH   2  19
TORSDOF 5
ENDMDL
