MODEL 1
REMARK VINA RESULT:      -8.6      0.000      0.000
REMARK  4 active torsions:
REMARK  status: ('A' for Active; 'I' for Inactive)
REMARK    1  A    between atoms: C_5  and  N_6 
REMARK       I    between atoms: N_6  and  C_7 
REMARK    2  A    between atoms: C_7  and  C_8 
REMARK    3  A    between atoms: N_10  and  C_11 
REMARK    4  A    between atoms: C_12  and  O_13 
ROOT
HETATM    1  C   UNL     1     -42.799  55.893 -56.230  1.00  0.00     0.086 A 
HETATM    2  C   UNL     1     -43.018  57.196 -55.551  1.00  0.00     0.186 A 
HETATM    3  N   UNL     1     -42.889  57.328 -54.264  1.00  0.00    -0.221 NA
HETATM    4  O   UNL     1     -43.363  58.285 -56.341  1.00  0.00    -0.290 OA
HETATM    5  C   UNL     1     -43.455  58.185 -57.739  1.00  0.00     0.088 A 
HETATM    6  C   UNL     1     -43.210  56.975 -58.376  1.00  0.00    -0.001 A 
HETATM    7  C   UNL     1     -43.795  59.333 -58.447  1.00  0.00     0.038 A 
HETATM    8  C   UNL     1     -43.892  59.267 -59.835  1.00  0.00     0.003 A 
HETATM    9  C   UNL     1     -43.647  58.060 -60.496  1.00  0.00     0.001 A 
HETATM   10  C   UNL     1     -43.307  56.915 -59.768  1.00  0.00     0.014 A 
HETATM   11  C   UNL     1     -42.884  55.811 -57.569  1.00  0.00     0.035 A 
ENDROOT
BRANCH   1  12
HETATM   12  C   UNL     1     -42.510  54.605 -55.499  1.00  0.00     0.260 C 
HETATM   13  N   UNL     1     -41.274  54.549 -54.895  1.00  0.00    -0.323 N 
HETATM   14  H   UNL     1     -40.653  55.344 -55.057  1.00  0.00     0.169 HD
HETATM   15  O   UNL     1     -43.359  53.715 -55.466  1.00  0.00    -0.267 OA
BRANCH  13  16
HETATM   16  C   UNL     1     -40.761  53.553 -54.040  1.00  0.00     0.035 A 
HETATM   17  C   UNL     1     -40.272  52.322 -54.473  1.00  0.00     0.030 A 
HETATM   18  C   UNL     1     -39.822  51.372 -53.547  1.00  0.00     0.009 A 
HETATM   19  C   UNL     1     -39.842  51.645 -52.176  1.00  0.00    -0.062 A 
HETATM   20  C   UNL     1     -39.405  50.602 -51.190  1.00  0.00     0.048 C 
HETATM   21  C   UNL     1     -40.333  52.878 -51.741  1.00  0.00     0.009 A 
HETATM   22  C   UNL     1     -40.783  53.825 -52.667  1.00  0.00     0.030 A 
ENDBRANCH  13  16
ENDBRANCH   1  12
BRANCH   3  23
HETATM   23  C   UNL     1     -43.137  58.588 -53.688  1.00  0.00     0.093 A 
HETATM   24  C   UNL     1     -42.126  59.549 -53.517  1.00  0.00     0.097 A 
HETATM   25  C   UNL     1     -42.389  60.747 -52.847  1.00  0.00     0.039 A 
HETATM   26  C   UNL     1     -43.671  61.012 -52.365  1.00  0.00     0.003 A 
HETATM   27  C   UNL     1     -44.683  60.070 -52.532  1.00  0.00     0.002 A 
HETATM   28  C   UNL     1     -44.414  58.863 -53.180  1.00  0.00     0.034 A 
BRANCH  24  29
HETATM   29  O   UNL     1     -40.824  59.347 -53.902  1.00  0.00    -0.354 OA
HETATM   30  C   UNL     1     -40.032  58.812 -52.843  1.00  0.00     0.210 C 
ENDBRANCH  24  29
ENDBRANCH   3  23
TORSDOF 4
ENDMDL
MODEL 2
REMARK VINA RESULT:      -8.5      1.872      6.866
REMARK  4 active torsions:
REMARK  status: ('A' for Active; 'I' for Inactive)
REMARK    1  A    between atoms: C_5  and  N_6 
REMARK       I    between atoms: N_6  and  C_7 
REMARK    2  A    between atoms: C_7  and  C_8 
REMARK    3  A    between atoms: N_10  and  C_11 
REMARK    4  A    between atoms: C_12  and  O_13 
ROOT
HETATM    1  C   UNL     1     -41.891  55.106 -55.335  1.00  0.00     0.086 A 
HETATM    2  C   UNL     1     -41.584  55.892 -54.112  1.00  0.00     0.186 A 
HETATM    3  N   UNL     1     -41.927  57.141 -53.995  1.00  0.00    -0.221 NA
HETATM    4  O   UNL     1     -40.917  55.244 -53.079  1.00  0.00    -0.290 OA
HETATM    5  C   UNL     1     -40.584  53.882 -53.155  1.00  0.00     0.088 A 
HETATM    6  C   UNL     1     -40.908  53.138 -54.283  1.00  0.00    -0.001 A 
HETATM    7  C   UNL     1     -39.927  53.317 -52.066  1.00  0.00     0.038 A 
HETATM    8  C   UNL     1     -39.585  51.967 -52.110  1.00  0.00     0.003 A 
HETATM    9  C   UNL     1     -39.905  51.201 -53.234  1.00  0.00     0.001 A 
HETATM   10  C   UNL     1     -40.565  51.786 -54.320  1.00  0.00     0.014 A 
HETATM   11  C   UNL     1     -41.572  53.802 -55.392  1.00  0.00     0.035 A 
ENDROOT
BRANCH   1  12
HETATM   12  C   UNL     1     -42.526  55.694 -56.571  1.00  0.00     0.260 C 
HETATM   13  N   UNL     1     -42.109  56.969 -56.883  1.00  0.00    -0.323 N 
HETATM   14  H   UNL     1     -41.472  57.413 -56.219  1.00  0.00     0.169 HD
HETATM   15  O   UNL     1     -43.337  55.033 -57.218  1.00  0.00    -0.267 OA
BRANCH  13  16
HETATM   16  C   UNL     1     -42.409  57.733 -58.028  1.00  0.00     0.035 A 
HETATM   17  C   UNL     1     -41.778  57.580 -59.262  1.00  0.00     0.030 A 
HETATM   18  C   UNL     1     -42.110  58.415 -60.337  1.00  0.00     0.009 A 
HETATM   19  C   UNL     1     -43.085  59.407 -60.197  1.00  0.00    -0.062 A 
HETATM   20  C   UNL     1     -43.397  60.328 -61.338  1.00  0.00     0.048 C 
HETATM   21  C   UNL     1     -43.716  59.562 -58.961  1.00  0.00     0.009 A 
HETATM   22  C   UNL     1     -43.384  58.728 -57.889  1.00  0.00     0.030 A 
ENDBRANCH  13  16
ENDBRANCH   1  12
BRANCH   3  23
HETATM   23  C   UNL     1     -41.580  57.827 -52.817  1.00  0.00     0.093 A 
HETATM   24  C   UNL     1     -42.496  58.039 -51.773  1.00  0.00     0.097 A 
HETATM   25  C   UNL     1     -42.145  58.815 -50.664  1.00  0.00     0.039 A 
HETATM   26  C   UNL     1     -40.866  59.364 -50.572  1.00  0.00     0.003 A 
HETATM   27  C   UNL     1     -39.946  59.157 -51.598  1.00  0.00     0.002 A 
HETATM   28  C   UNL     1     -40.306  58.402 -52.716  1.00  0.00     0.034 A 
BRANCH  24  29
HETATM   29  O   UNL     1     -43.793  57.592 -51.808  1.00  0.00    -0.354 OA
HETATM   30  C   UNL     1     -43.982  56.440 -50.989  1.00  0.00     0.210 C 
ENDBRANCH  24  29
ENDBRANCH   3  23
TORSDOF 4
ENDMDL
MODEL 3
REMARK VINA RESULT:      -8.5      1.637      1.858
REMARK  4 active torsions:
REMARK  status: ('A' for Active; 'I' for Inactive)
REMARK    1  A    between atoms: C_5  and  N_6 
REMARK       I    between atoms: N_6  and  C_7 
REMARK    2  A    between atoms: C_7  and  C_8 
REMARK    3  A    between atoms: N_10  and  C_11 
REMARK    4  A    between atoms: C_12  and  O_13 
ROOT
HETATM    1  C   UNL     1     -42.138  56.345 -54.889  1.00  0.00     0.086 A 
HETATM    2  C   UNL     1     -42.271  57.517 -53.986  1.00  0.00     0.186 A 
HETATM    3  N   UNL     1     -42.204  57.399 -52.693  1.00  0.00    -0.221 NA
HETATM    4  O   UNL     1     -42.464  58.763 -54.571  1.00  0.00    -0.290 OA
HETATM    5  C   UNL     1     -42.484  58.929 -55.965  1.00  0.00     0.088 A 
HETATM    6  C   UNL     1     -42.320  57.837 -56.808  1.00  0.00    -0.001 A 
HETATM    7  C   UNL     1     -42.672  60.217 -56.459  1.00  0.00     0.038 A 
HETATM    8  C   UNL     1     -42.695  60.415 -57.838  1.00  0.00     0.003 A 
HETATM    9  C   UNL     1     -42.528  59.330 -58.702  1.00  0.00     0.001 A 
HETATM   10  C   UNL     1     -42.342  58.042 -58.189  1.00  0.00     0.014 A 
HETATM   11  C   UNL     1     -42.154  56.518 -56.221  1.00  0.00     0.035 A 
ENDROOT
BRANCH   1  12
HETATM   12  C   UNL     1     -42.016  54.922 -54.401  1.00  0.00     0.260 C 
HETATM   13  N   UNL     1     -40.785  54.595 -53.878  1.00  0.00    -0.323 N 
HETATM   14  H   UNL     1     -40.062  55.314 -53.935  1.00  0.00     0.169 HD
HETATM   15  O   UNL     1     -42.981  54.163 -54.476  1.00  0.00    -0.267 OA
BRANCH  13  16
HETATM   16  C   UNL     1     -40.397  53.405 -53.230  1.00  0.00     0.035 A 
HETATM   17  C   UNL     1     -40.036  52.232 -53.892  1.00  0.00     0.030 A 
HETATM   18  C   UNL     1     -39.706  51.081 -53.166  1.00  0.00     0.009 A 
HETATM   19  C   UNL     1     -39.720  51.089 -51.767  1.00  0.00    -0.062 A 
HETATM   20  C   UNL     1     -39.414  49.837 -51.000  1.00  0.00     0.048 C 
HETATM   21  C   UNL     1     -40.082  52.263 -51.104  1.00  0.00     0.009 A 
HETATM   22  C   UNL     1     -40.412  53.412 -51.830  1.00  0.00     0.030 A 
ENDBRANCH  13  16
ENDBRANCH   1  12
BRANCH   3  23
HETATM   23  C   UNL     1     -42.363  58.551 -51.901  1.00  0.00     0.093 A 
HETATM   24  C   UNL     1     -41.302  59.114 -51.171  1.00  0.00     0.097 A 
HETATM   25  C   UNL     1     -41.524  60.197 -50.315  1.00  0.00     0.039 A 
HETATM   26  C   UNL     1     -42.800  60.748 -50.200  1.00  0.00     0.003 A 
HETATM   27  C   UNL     1     -43.859  60.203 -50.923  1.00  0.00     0.002 A 
HETATM   28  C   UNL     1     -43.642  59.106 -51.759  1.00  0.00     0.034 A 
BRANCH  24  29
HETATM   29  O   UNL     1     -40.031  58.598 -51.173  1.00  0.00    -0.354 OA
HETATM   30  C   UNL     1     -39.074  59.536 -50.685  1.00  0.00     0.210 C 
ENDBRANCH  24  29
ENDBRANCH   3  23
TORSDOF 4
ENDMDL
MODEL 4
REMARK VINA RESULT:      -8.2      1.705      2.345
REMARK  4 active torsions:
REMARK  status: ('A' for Active; 'I' for Inactive)
REMARK    1  A    between atoms: C_5  and  N_6 
REMARK       I    between atoms: N_6  and  C_7 
REMARK    2  A    between atoms: C_7  and  C_8 
REMARK    3  A    between atoms: N_10  and  C_11 
REMARK    4  A    between atoms: C_12  and  O_13 
ROOT
HETATM    1  C   UNL     1     -41.995  56.087 -54.943  1.00  0.00     0.086 A 
HETATM    2  C   UNL     1     -42.076  57.230 -53.997  1.00  0.00     0.186 A 
HETATM    3  N   UNL     1     -41.932  57.071 -52.715  1.00  0.00    -0.221 NA
HETATM    4  O   UNL     1     -42.307  58.492 -54.530  1.00  0.00    -0.290 OA
HETATM    5  C   UNL     1     -42.411  58.702 -55.915  1.00  0.00     0.088 A 
HETATM    6  C   UNL     1     -42.296  57.638 -56.800  1.00  0.00    -0.001 A 
HETATM    7  C   UNL     1     -42.631  60.004 -56.355  1.00  0.00     0.038 A 
HETATM    8  C   UNL     1     -42.737  60.245 -57.723  1.00  0.00     0.003 A 
HETATM    9  C   UNL     1     -42.621  59.189 -58.630  1.00  0.00     0.001 A 
HETATM   10  C   UNL     1     -42.401  57.886 -58.170  1.00  0.00     0.014 A 
HETATM   11  C   UNL     1     -42.092  56.302 -56.266  1.00  0.00     0.035 A 
ENDROOT
BRANCH   1  12
HETATM   12  C   UNL     1     -41.842  54.650 -54.508  1.00  0.00     0.260 C 
HETATM   13  N   UNL     1     -40.707  54.388 -53.773  1.00  0.00    -0.323 N 
HETATM   14  H   UNL     1     -40.054  55.164 -53.655  1.00  0.00     0.169 HD
HETATM   15  O   UNL     1     -42.703  53.824 -54.804  1.00  0.00    -0.267 OA
BRANCH  13  16
HETATM   16  C   UNL     1     -40.344  53.194 -53.119  1.00  0.00     0.035 A 
HETATM   17  C   UNL     1     -39.950  52.028 -53.775  1.00  0.00     0.030 A 
HETATM   18  C   UNL     1     -39.647  50.871 -53.045  1.00  0.00     0.009 A 
HETATM   19  C   UNL     1     -39.724  50.866 -51.648  1.00  0.00    -0.062 A 
HETATM   20  C   UNL     1     -39.448  49.609 -50.879  1.00  0.00     0.048 C 
HETATM   21  C   UNL     1     -40.120  52.034 -50.991  1.00  0.00     0.009 A 
HETATM   22  C   UNL     1     -40.422  53.188 -51.721  1.00  0.00     0.030 A 
ENDBRANCH  13  16
ENDBRANCH   1  12
BRANCH   3  23
HETATM   23  C   UNL     1     -42.045  58.197 -51.879  1.00  0.00     0.093 A 
HETATM   24  C   UNL     1     -43.283  58.792 -51.583  1.00  0.00     0.097 A 
HETATM   25  C   UNL     1     -43.344  59.971 -50.833  1.00  0.00     0.039 A 
HETATM   26  C   UNL     1     -42.174  60.552 -50.346  1.00  0.00     0.003 A 
HETATM   27  C   UNL     1     -40.941  59.969 -50.628  1.00  0.00     0.002 A 
HETATM   28  C   UNL     1     -40.878  58.805 -51.397  1.00  0.00     0.034 A 
BRANCH  24  29
HETATM   29  O   UNL     1     -44.477  58.327 -52.073  1.00  0.00    -0.354 OA
HETATM   30  C   UNL     1     -45.242  59.363 -52.686  1.00  0.00     0.210 C 
ENDBRANCH  24  29
ENDBRANCH   3  23
TORSDOF 4
ENDMDL
MODEL 5
REMARK VINA RESULT:      -8.0      1.948      6.853
REMARK  4 active torsions:
REMARK  status: ('A' for Active; 'I' for Inactive)
REMARK    1  A    between atoms: C_5  and  N_6 
REMARK       I    between atoms: N_6  and  C_7 
REMARK    2  A    between atoms: C_7  and  C_8 
REMARK    3  A    between atoms: N_10  and  C_11 
REMARK    4  A    between atoms: C_12  and  O_13 
ROOT
HETATM    1  C   UNL     1     -42.120  56.163 -55.537  1.00  0.00     0.086 A 
HETATM    2  C   UNL     1     -41.924  56.845 -54.232  1.00  0.00     0.186 A 
HETATM    3  N   UNL     1     -42.249  58.091 -54.054  1.00  0.00    -0.221 NA
HETATM    4  O   UNL     1     -41.384  56.101 -53.190  1.00  0.00    -0.290 OA
HETATM    5  C   UNL     1     -41.076  54.739 -53.337  1.00  0.00     0.088 A 
HETATM    6  C   UNL     1     -41.297  54.092 -54.546  1.00  0.00    -0.001 A 
HETATM    7  C   UNL     1     -40.549  54.074 -52.233  1.00  0.00     0.038 A 
HETATM    8  C   UNL     1     -40.235  52.722 -52.346  1.00  0.00     0.003 A 
HETATM    9  C   UNL     1     -40.452  52.052 -53.553  1.00  0.00     0.001 A 
HETATM   10  C   UNL     1     -40.982  52.736 -54.652  1.00  0.00     0.014 A 
HETATM   11  C   UNL     1     -41.826  54.857 -55.662  1.00  0.00     0.035 A 
ENDROOT
BRANCH   1  12
HETATM   12  C   UNL     1     -42.609  56.861 -56.782  1.00  0.00     0.260 C 
HETATM   13  N   UNL     1     -41.772  57.846 -57.257  1.00  0.00    -0.323 N 
HETATM   14  H   UNL     1     -40.949  58.054 -56.690  1.00  0.00     0.169 HD
HETATM   15  O   UNL     1     -43.673  56.522 -57.297  1.00  0.00    -0.267 OA
BRANCH  13  16
HETATM   16  C   UNL     1     -41.877  58.582 -58.454  1.00  0.00     0.035 A 
HETATM   17  C   UNL     1     -41.894  58.013 -59.727  1.00  0.00     0.030 A 
HETATM   18  C   UNL     1     -41.957  58.825 -60.866  1.00  0.00     0.009 A 
HETATM   19  C   UNL     1     -42.015  60.218 -60.749  1.00  0.00    -0.062 A 
HETATM   20  C   UNL     1     -42.031  61.080 -61.976  1.00  0.00     0.048 C 
HETATM   21  C   UNL     1     -41.996  60.788 -59.475  1.00  0.00     0.009 A 
HETATM   22  C   UNL     1     -41.933  59.976 -58.338  1.00  0.00     0.030 A 
ENDBRANCH  13  16
ENDBRANCH   1  12
BRANCH   3  23
HETATM   23  C   UNL     1     -42.012  58.677 -52.797  1.00  0.00     0.093 A 
HETATM   24  C   UNL     1     -43.051  59.160 -51.984  1.00  0.00     0.097 A 
HETATM   25  C   UNL     1     -42.768  59.829 -50.789  1.00  0.00     0.039 A 
HETATM   26  C   UNL     1     -41.446  59.996 -50.378  1.00  0.00     0.003 A 
HETATM   27  C   UNL     1     -40.407  59.518 -51.172  1.00  0.00     0.002 A 
HETATM   28  C   UNL     1     -40.689  58.872 -52.377  1.00  0.00     0.034 A 
BRANCH  24  29
HETATM   29  O   UNL     1     -44.375  59.096 -52.340  1.00  0.00    -0.354 OA
HETATM   30  C   UNL     1     -44.999  60.378 -52.307  1.00  0.00     0.210 C 
ENDBRANCH  24  29
ENDBRANCH   3  23
TORSDOF 4
ENDMDL
MODEL 6
REMARK VINA RESULT:      -7.9      0.998      1.818
REMARK  4 active torsions:
REMARK  status: ('A' for Active; 'I' for Inactive)
REMARK    1  A    between atoms: C_5  and  N_6 
REMARK       I    between atoms: N_6  and  C_7 
REMARK    2  A    between atoms: C_7  and  C_8 
REMARK    3  A    between atoms: N_10  and  C_11 
REMARK    4  A    between atoms: C_12  and  O_13 
ROOT
HETATM    1  C   UNL     1     -42.649  55.751 -56.096  1.00  0.00     0.086 A 
HETATM    2  C   UNL     1     -42.835  57.073 -55.444  1.00  0.00     0.186 A 
HETATM    3  N   UNL     1     -42.731  57.224 -54.157  1.00  0.00    -0.221 NA
HETATM    4  O   UNL     1     -43.121  58.160 -56.261  1.00  0.00    -0.290 OA
HETATM    5  C   UNL     1     -43.184  58.038 -57.659  1.00  0.00     0.088 A 
HETATM    6  C   UNL     1     -42.970  56.808 -58.269  1.00  0.00    -0.001 A 
HETATM    7  C   UNL     1     -43.465  59.185 -58.394  1.00  0.00     0.038 A 
HETATM    8  C   UNL     1     -43.533  59.097 -59.783  1.00  0.00     0.003 A 
HETATM    9  C   UNL     1     -43.318  57.870 -60.417  1.00  0.00     0.001 A 
HETATM   10  C   UNL     1     -43.037  56.727 -59.661  1.00  0.00     0.014 A 
HETATM   11  C   UNL     1     -42.707  55.648 -57.434  1.00  0.00     0.035 A 
ENDROOT
BRANCH   1  12
HETATM   12  C   UNL     1     -42.426  54.467 -55.336  1.00  0.00     0.260 C 
HETATM   13  N   UNL     1     -41.221  54.391 -54.672  1.00  0.00    -0.323 N 
HETATM   14  H   UNL     1     -40.576  55.170 -54.813  1.00  0.00     0.169 HD
HETATM   15  O   UNL     1     -43.295  53.596 -55.333  1.00  0.00    -0.267 OA
BRANCH  13  16
HETATM   16  C   UNL     1     -40.773  53.396 -53.781  1.00  0.00     0.035 A 
HETATM   17  C   UNL     1     -40.715  53.550 -52.396  1.00  0.00     0.030 A 
HETATM   18  C   UNL     1     -40.214  52.522 -51.588  1.00  0.00     0.009 A 
HETATM   19  C   UNL     1     -39.774  51.320 -52.152  1.00  0.00    -0.062 A 
HETATM   20  C   UNL     1     -39.192  50.245 -51.283  1.00  0.00     0.048 C 
HETATM   21  C   UNL     1     -39.831  51.165 -53.539  1.00  0.00     0.009 A 
HETATM   22  C   UNL     1     -40.331  52.193 -54.344  1.00  0.00     0.030 A 
ENDBRANCH  13  16
ENDBRANCH   1  12
BRANCH   3  23
HETATM   23  C   UNL     1     -42.945  58.502 -53.609  1.00  0.00     0.093 A 
HETATM   24  C   UNL     1     -44.024  58.783 -52.754  1.00  0.00     0.097 A 
HETATM   25  C   UNL     1     -44.261  60.088 -52.313  1.00  0.00     0.039 A 
HETATM   26  C   UNL     1     -43.407  61.122 -52.696  1.00  0.00     0.003 A 
HETATM   27  C   UNL     1     -42.330  60.856 -53.539  1.00  0.00     0.002 A 
HETATM   28  C   UNL     1     -42.108  59.556 -53.999  1.00  0.00     0.034 A 
BRANCH  24  29
HETATM   29  O   UNL     1     -44.950  57.842 -52.378  1.00  0.00    -0.354 OA
HETATM   30  C   UNL     1     -44.607  57.222 -51.140  1.00  0.00     0.210 C 
ENDBRANCH  24  29
ENDBRANCH   3  23
TORSDOF 4
ENDMDL
MODEL 7
REMARK VINA RESULT:      -7.9      2.008      7.357
REMARK  4 active torsions:
REMARK  status: ('A' for Active; 'I' for Inactive)
REMARK    1  A    between atoms: C_5  and  N_6 
REMARK       I    between atoms: N_6  and  C_7 
REMARK    2  A    between atoms: C_7  and  C_8 
REMARK    3  A    between atoms: N_10  and  C_11 
REMARK    4  A    between atoms: C_12  and  O_13 
ROOT
HETATM    1  C   UNL     1     -42.488  55.748 -52.365  1.00  0.00     0.086 A 
HETATM    2  C   UNL     1     -42.371  55.822 -53.844  1.00  0.00     0.186 A 
HETATM    3  N   UNL     1     -42.919  56.783 -54.528  1.00  0.00    -0.221 NA
HETATM    4  O   UNL     1     -41.641  54.827 -54.484  1.00  0.00    -0.290 OA
HETATM    5  C   UNL     1     -40.992  53.810 -53.767  1.00  0.00     0.088 A 
HETATM    6  C   UNL     1     -41.070  53.764 -52.381  1.00  0.00    -0.001 A 
HETATM    7  C   UNL     1     -40.276  52.864 -54.494  1.00  0.00     0.038 A 
HETATM    8  C   UNL     1     -39.619  51.843 -53.812  1.00  0.00     0.003 A 
HETATM    9  C   UNL     1     -39.683  51.781 -52.417  1.00  0.00     0.001 A 
HETATM   10  C   UNL     1     -40.408  52.740 -51.702  1.00  0.00     0.014 A 
HETATM   11  C   UNL     1     -41.857  54.772 -51.690  1.00  0.00     0.035 A 
ENDROOT
BRANCH   1  12
HETATM   12  C   UNL     1     -43.320  56.701 -51.542  1.00  0.00     0.260 C 
HETATM   13  N   UNL     1     -43.198  58.026 -51.895  1.00  0.00    -0.323 N 
HETATM   14  H   UNL     1     -42.514  58.241 -52.623  1.00  0.00     0.169 HD
HETATM   15  O   UNL     1     -44.044  56.267 -50.648  1.00  0.00    -0.267 OA
BRANCH  13  16
HETATM   16  C   UNL     1     -43.929  59.131 -51.415  1.00  0.00     0.035 A 
HETATM   17  C   UNL     1     -43.379  60.169 -50.664  1.00  0.00     0.030 A 
HETATM   18  C   UNL     1     -44.190  61.208 -50.190  1.00  0.00     0.009 A 
HETATM   19  C   UNL     1     -45.561  61.230 -50.469  1.00  0.00    -0.062 A 
HETATM   20  C   UNL     1     -46.429  62.319 -49.914  1.00  0.00     0.048 C 
HETATM   21  C   UNL     1     -46.112  60.189 -51.220  1.00  0.00     0.009 A 
HETATM   22  C   UNL     1     -45.301  59.153 -51.693  1.00  0.00     0.030 A 
ENDBRANCH  13  16
ENDBRANCH   1  12
BRANCH   3  23
HETATM   23  C   UNL     1     -42.785  56.774 -55.929  1.00  0.00     0.093 A 
HETATM   24  C   UNL     1     -42.369  57.905 -56.652  1.00  0.00     0.097 A 
HETATM   25  C   UNL     1     -42.348  57.888 -58.050  1.00  0.00     0.039 A 
HETATM   26  C   UNL     1     -42.714  56.733 -58.741  1.00  0.00     0.003 A 
HETATM   27  C   UNL     1     -43.123  55.603 -58.036  1.00  0.00     0.002 A 
HETATM   28  C   UNL     1     -43.167  55.629 -56.640  1.00  0.00     0.034 A 
BRANCH  24  29
HETATM   29  O   UNL     1     -42.053  59.102 -56.059  1.00  0.00    -0.354 OA
HETATM   30  C   UNL     1     -42.058  60.178 -56.995  1.00  0.00     0.210 C 
ENDBRANCH  24  29
ENDBRANCH   3  23
TORSDOF 4
ENDMDL
MODEL 8
REMARK VINA RESULT:      -7.9      1.848      4.947
REMARK  4 active torsions:
REMARK  status: ('A' for Active; 'I' for Inactive)
REMARK    1  A    between atoms: C_5  and  N_6 
REMARK       I    between atoms: N_6  and  C_7 
REMARK    2  A    between atoms: C_7  and  C_8 
REMARK    3  A    between atoms: N_10  and  C_11 
REMARK    4  A    between atoms: C_12  and  O_13 
ROOT
HETATM    1  C   UNL     1     -43.895  56.832 -54.582  1.00  0.00     0.086 A 
HETATM    2  C   UNL     1     -43.832  57.526 -55.894  1.00  0.00     0.186 A 
HETATM    3  N   UNL     1     -43.382  56.935 -56.961  1.00  0.00    -0.221 NA
HETATM    4  O   UNL     1     -44.282  58.840 -55.952  1.00  0.00    -0.290 OA
HETATM    5  C   UNL     1     -44.825  59.484 -54.829  1.00  0.00     0.088 A 
HETATM    6  C   UNL     1     -44.920  58.821 -53.612  1.00  0.00    -0.001 A 
HETATM    7  C   UNL     1     -45.259  60.797 -54.987  1.00  0.00     0.038 A 
HETATM    8  C   UNL     1     -45.806  61.464 -53.892  1.00  0.00     0.003 A 
HETATM    9  C   UNL     1     -45.912  60.813 -52.660  1.00  0.00     0.001 A 
HETATM   10  C   UNL     1     -45.470  59.494 -52.519  1.00  0.00     0.014 A 
HETATM   11  C   UNL     1     -44.422  57.459 -53.516  1.00  0.00     0.035 A 
ENDROOT
BRANCH   1  12
HETATM   12  C   UNL     1     -43.361  55.442 -54.343  1.00  0.00     0.260 C 
HETATM   13  N   UNL     1     -42.057  55.392 -53.903  1.00  0.00    -0.323 N 
HETATM   14  H   UNL     1     -41.562  56.284 -53.849  1.00  0.00     0.169 HD
HETATM   15  O   UNL     1     -44.086  54.466 -54.529  1.00  0.00    -0.267 OA
BRANCH  13  16
HETATM   16  C   UNL     1     -41.320  54.271 -53.471  1.00  0.00     0.035 A 
HETATM   17  C   UNL     1     -40.753  53.328 -54.326  1.00  0.00     0.030 A 
HETATM   18  C   UNL     1     -40.073  52.218 -53.808  1.00  0.00     0.009 A 
HETATM   19  C   UNL     1     -39.940  52.042 -52.426  1.00  0.00    -0.062 A 
HETATM   20  C   UNL     1     -39.255  50.825 -51.880  1.00  0.00     0.048 C 
HETATM   21  C   UNL     1     -40.510  52.987 -51.569  1.00  0.00     0.009 A 
HETATM   22  C   UNL     1     -41.189  54.094 -52.089  1.00  0.00     0.030 A 
ENDBRANCH  13  16
ENDBRANCH   1  12
BRANCH   3  23
HETATM   23  C   UNL     1     -43.330  57.663 -58.164  1.00  0.00     0.093 A 
HETATM   24  C   UNL     1     -44.386  57.661 -59.090  1.00  0.00     0.097 A 
HETATM   25  C   UNL     1     -44.255  58.313 -60.320  1.00  0.00     0.039 A 
HETATM   26  C   UNL     1     -43.079  58.998 -60.627  1.00  0.00     0.003 A 
HETATM   27  C   UNL     1     -42.026  59.012 -59.716  1.00  0.00     0.002 A 
HETATM   28  C   UNL     1     -42.149  58.340 -58.497  1.00  0.00     0.034 A 
BRANCH  24  29
HETATM   29  O   UNL     1     -45.552  56.963 -58.900  1.00  0.00    -0.354 OA
HETATM   30  C   UNL     1     -46.643  57.824 -58.580  1.00  0.00     0.210 C 
ENDBRANCH  24  29
ENDBRANCH   3  23
TORSDOF 4
ENDMDL
MODEL 9
REMARK VINA RESULT:      -7.8      1.827      6.806
REMARK  4 active torsions:
REMARK  status: ('A' for Active; 'I' for Inactive)
REMARK    1  A    between atoms: C_5  and  N_6 
REMARK       I    between atoms: N_6  and  C_7 
REMARK    2  A    between atoms: C_7  and  C_8 
REMARK    3  A    between atoms: N_10  and  C_11 
REMARK    4  A    between atoms: C_12  and  O_13 
ROOT
HETATM    1  C   UNL     1     -42.687  56.017 -55.883  1.00  0.00     0.086 A 
HETATM    2  C   UNL     1     -42.727  56.840 -54.646  1.00  0.00     0.186 A 
HETATM    3  N   UNL     1     -43.295  58.009 -54.619  1.00  0.00    -0.221 NA
HETATM    4  O   UNL     1     -42.139  56.314 -53.502  1.00  0.00    -0.290 OA
HETATM    5  C   UNL     1     -41.568  55.031 -53.488  1.00  0.00     0.088 A 
HETATM    6  C   UNL     1     -41.566  54.247 -54.635  1.00  0.00    -0.001 A 
HETATM    7  C   UNL     1     -41.012  54.586 -52.293  1.00  0.00     0.038 A 
HETATM    8  C   UNL     1     -40.440  53.317 -52.245  1.00  0.00     0.003 A 
HETATM    9  C   UNL     1     -40.431  52.511 -53.387  1.00  0.00     0.001 A 
HETATM   10  C   UNL     1     -40.993  52.976 -54.581  1.00  0.00     0.014 A 
HETATM   11  C   UNL     1     -42.142  54.789 -55.854  1.00  0.00     0.035 A 
ENDROOT
BRANCH   1  12
HETATM   12  C   UNL     1     -43.200  56.490 -57.221  1.00  0.00     0.260 C 
HETATM   13  N   UNL     1     -44.407  57.152 -57.174  1.00  0.00    -0.323 N 
HETATM   14  H   UNL     1     -44.866  57.196 -56.263  1.00  0.00     0.169 HD
HETATM   15  O   UNL     1     -42.541  56.286 -58.238  1.00  0.00    -0.267 OA
BRANCH  13  16
HETATM   16  C   UNL     1     -45.080  57.820 -58.216  1.00  0.00     0.035 A 
HETATM   17  C   UNL     1     -44.860  59.152 -58.566  1.00  0.00     0.030 A 
HETATM   18  C   UNL     1     -45.607  59.749 -59.589  1.00  0.00     0.009 A 
HETATM   19  C   UNL     1     -46.578  59.021 -60.285  1.00  0.00    -0.062 A 
HETATM   20  C   UNL     1     -47.407  59.684 -61.343  1.00  0.00     0.048 C 
HETATM   21  C   UNL     1     -46.800  57.688 -59.933  1.00  0.00     0.009 A 
HETATM   22  C   UNL     1     -46.053  57.092 -58.912  1.00  0.00     0.030 A 
ENDBRANCH  13  16
ENDBRANCH   1  12
BRANCH   3  23
HETATM   23  C   UNL     1     -43.273  58.741 -53.417  1.00  0.00     0.093 A 
HETATM   24  C   UNL     1     -42.138  59.450 -52.989  1.00  0.00     0.097 A 
HETATM   25  C   UNL     1     -42.121  60.079 -51.741  1.00  0.00     0.039 A 
HETATM   26  C   UNL     1     -43.246  60.032 -50.919  1.00  0.00     0.003 A 
HETATM   27  C   UNL     1     -44.380  59.337 -51.333  1.00  0.00     0.002 A 
HETATM   28  C   UNL     1     -44.388  58.688 -52.570  1.00  0.00     0.034 A 
BRANCH  24  29
HETATM   29  O   UNL     1     -40.967  59.495 -53.703  1.00  0.00    -0.354 OA
HETATM   30  C   UNL     1     -39.900  58.842 -53.019  1.00  0.00     0.210 C 
ENDBRANCH  24  29
ENDBRANCH   3  23
TORSDOF 4
ENDMDL
MODEL 10
REMARK VINA RESULT:      -7.7      2.070      6.909
REMARK  4 active torsions:
REMARK  status: ('A' for Active; 'I' for Inactive)
REMARK    1  A    between atoms: C_5  and  N_6 
REMARK       I    between atoms: N_6  and  C_7 
REMARK    2  A    between atoms: C_7  and  C_8 
REMARK    3  A    between atoms: N_10  and  C_11 
REMARK    4  A    between atoms: C_12  and  O_13 
ROOT
HETATM    1  C   UNL     1     -42.164  56.147 -55.434  1.00  0.00     0.086 A 
HETATM    2  C   UNL     1     -41.847  56.784 -54.130  1.00  0.00     0.186 A 
HETATM    3  N   UNL     1     -42.101  58.039 -53.901  1.00  0.00    -0.221 NA
HETATM    4  O   UNL     1     -41.271  55.990 -53.146  1.00  0.00    -0.290 OA
HETATM    5  C   UNL     1     -41.037  54.620 -53.347  1.00  0.00     0.088 A 
HETATM    6  C   UNL     1     -41.371  54.016 -54.553  1.00  0.00    -0.001 A 
HETATM    7  C   UNL     1     -40.466  53.903 -52.299  1.00  0.00     0.038 A 
HETATM    8  C   UNL     1     -40.224  52.541 -52.465  1.00  0.00     0.003 A 
HETATM    9  C   UNL     1     -40.555  51.915 -53.670  1.00  0.00     0.001 A 
HETATM   10  C   UNL     1     -41.127  52.651 -54.713  1.00  0.00     0.014 A 
HETATM   11  C   UNL     1     -41.940  54.833 -55.611  1.00  0.00     0.035 A 
ENDROOT
BRANCH   1  12
HETATM   12  C   UNL     1     -42.705  56.899 -56.625  1.00  0.00     0.260 C 
HETATM   13  N   UNL     1     -43.984  56.548 -56.996  1.00  0.00    -0.323 N 
HETATM   14  H   UNL     1     -44.410  55.775 -56.482  1.00  0.00     0.169 HD
HETATM   15  O   UNL     1     -42.018  57.759 -57.172  1.00  0.00    -0.267 OA
BRANCH  13  16
HETATM   16  C   UNL     1     -44.809  57.146 -57.970  1.00  0.00     0.035 A 
HETATM   17  C   UNL     1     -45.636  58.242 -57.732  1.00  0.00     0.030 A 
HETATM   18  C   UNL     1     -46.457  58.746 -58.749  1.00  0.00     0.009 A 
HETATM   19  C   UNL     1     -46.454  58.167 -60.022  1.00  0.00    -0.062 A 
HETATM   20  C   UNL     1     -47.374  58.681 -61.089  1.00  0.00     0.048 C 
HETATM   21  C   UNL     1     -45.627  57.067 -60.261  1.00  0.00     0.009 A 
HETATM   22  C   UNL     1     -44.808  56.566 -59.244  1.00  0.00     0.030 A 
ENDBRANCH  13  16
ENDBRANCH   1  12
BRANCH   3  23
HETATM   23  C   UNL     1     -41.751  58.579 -52.650  1.00  0.00     0.093 A 
HETATM   24  C   UNL     1     -42.714  59.011 -51.721  1.00  0.00     0.097 A 
HETATM   25  C   UNL     1     -42.325  59.638 -50.533  1.00  0.00     0.039 A 
HETATM   26  C   UNL     1     -40.972  59.815 -50.246  1.00  0.00     0.003 A 
HETATM   27  C   UNL     1     -40.008  59.387 -51.156  1.00  0.00     0.002 A 
HETATM   28  C   UNL     1     -40.397  58.783 -52.353  1.00  0.00     0.034 A 
BRANCH  24  29
HETATM   29  O   UNL     1     -44.065  58.936 -51.949  1.00  0.00    -0.354 OA
HETATM   30  C   UNL     1     -44.645  57.785 -51.337  1.00  0.00     0.210 C 
ENDBRANCH  24  29
ENDBRANCH   3  23
TORSDOF 4
ENDMDL
