MODEL 1
REMARK VINA RESULT:      -9.0      0.000      0.000
REMARK  4 active torsions:
REMARK  status: ('A' for Active; 'I' for Inactive)
REMARK    1  A    between atoms: C_6  and  C_7 
REMARK    2  A    between atoms: C_7  and  C_8 
REMARK       I    between atoms: C_8  and  N_9 
REMARK    3  A    between atoms: N_9  and  C_10 
REMARK    4  A    between atoms: C_12  and  C_13 
ROOT
HETATM    1  C   UNL     1     -41.736  56.416 -53.669  1.00  0.00     0.226 C 
HETATM    2  N   UNL     1     -42.772  56.412 -54.590  1.00  0.00    -0.327 N 
HETATM    3  O   UNL     1     -40.609  56.873 -53.847  1.00  0.00    -0.273 OA
HETATM    4  H   UNL     1     -43.610  55.918 -54.315  1.00  0.00     0.169 HD
ENDROOT
BRANCH   1   5
HETATM    5  C   UNL     1     -42.137  55.806 -52.331  1.00  0.00     0.144 C 
BRANCH   5   6
HETATM    6  C   UNL     1     -41.249  54.673 -51.934  1.00  0.00    -0.021 A 
HETATM    7  C   UNL     1     -40.921  53.508 -52.704  1.00  0.00    -0.001 A 
HETATM    8  C   UNL     1     -40.068  52.723 -51.929  1.00  0.00     0.043 A 
HETATM    9  C   UNL     1     -41.265  53.044 -53.990  1.00  0.00     0.015 A 
HETATM   10  C   UNL     1     -39.537  51.505 -52.375  1.00  0.00     0.037 A 
HETATM   11  N   UNL     1     -39.889  53.375 -50.733  1.00  0.00    -0.365 N 
HETATM   12  C   UNL     1     -39.892  51.058 -53.656  1.00  0.00    -0.060 A 
HETATM   13  C   UNL     1     -39.313  49.778 -54.189  1.00  0.00     0.048 C 
HETATM   14  C   UNL     1     -40.738  51.831 -54.454  1.00  0.00     0.007 A 
HETATM   15  C   UNL     1     -40.598  54.544 -50.722  1.00  0.00     0.097 A 
HETATM   16  H   UNL     1     -39.317  53.033 -49.973  1.00  0.00     0.165 HD
ENDBRANCH   5   6
ENDBRANCH   1   5
BRANCH   2  17
HETATM   17  C   UNL     1     -42.797  56.989 -55.876  1.00  0.00     0.035 A 
HETATM   18  C   UNL     1     -43.298  56.196 -56.921  1.00  0.00     0.042 A 
HETATM   19  C   UNL     1     -43.393  56.689 -58.232  1.00  0.00    -0.021 A 
HETATM   20  C   UNL     1     -42.963  57.994 -58.489  1.00  0.00     0.012 A 
HETATM   21  C   UNL     1     -42.457  58.788 -57.458  1.00  0.00     0.003 A 
HETATM   22  C   UNL     1     -42.377  58.288 -56.156  1.00  0.00     0.029 A 
BRANCH  19  23
HETATM   23  C   UNL     1     -43.926  55.868 -59.310  1.00  0.00     0.010 A 
HETATM   24  C   UNL     1     -44.285  56.204 -60.638  1.00  0.00     0.152 A 
HETATM   25  N   UNL     1     -44.760  55.162 -61.327  1.00  0.00    -0.187 NA
HETATM   26  N   UNL     1     -44.714  54.155 -60.443  1.00  0.00    -0.289 N 
HETATM   27  H   UNL     1     -45.037  53.240 -60.740  1.00  0.00     0.188 HD
HETATM   28  C   UNL     1     -44.225  54.524 -59.223  1.00  0.00     0.123 A 
ENDBRANCH  19  23
ENDBRANCH   2  17
TORSDOF 4
ENDMDL
MODEL 2
REMARK VINA RESULT:      -8.9      1.672      2.091
REMARK  4 active torsions:
REMARK  status: ('A' for Active; 'I' for Inactive)
REMARK    1  A    between atoms: C_6  and  C_7 
REMARK    2  A    between atoms: C_7  and  C_8 
REMARK       I    between atoms: C_8  and  N_9 
REMARK    3  A    between atoms: N_9  and  C_10 
REMARK    4  A    between atoms: C_12  and  C_13 
ROOT
HETATM    1  C   UNL     1     -42.497  56.053 -52.486  1.00  0.00     0.226 C 
HETATM    2  N   UNL     1     -42.344  57.066 -53.419  1.00  0.00    -0.327 N 
HETATM    3  O   UNL     1     -43.431  55.257 -52.424  1.00  0.00    -0.273 OA
HETATM    4  H   UNL     1     -41.561  57.688 -53.277  1.00  0.00     0.169 HD
ENDROOT
BRANCH   1   5
HETATM    5  C   UNL     1     -41.331  55.976 -51.507  1.00  0.00     0.144 C 
BRANCH   5   6
HETATM    6  C   UNL     1     -40.870  54.574 -51.281  1.00  0.00    -0.021 A 
HETATM    7  C   UNL     1     -40.570  53.581 -52.272  1.00  0.00    -0.001 A 
HETATM    8  C   UNL     1     -40.186  52.422 -51.598  1.00  0.00     0.043 A 
HETATM    9  C   UNL     1     -40.584  53.555 -53.681  1.00  0.00     0.015 A 
HETATM   10  C   UNL     1     -39.811  51.245 -52.259  1.00  0.00     0.037 A 
HETATM   11  N   UNL     1     -40.258  52.691 -50.252  1.00  0.00    -0.365 N 
HETATM   12  C   UNL     1     -39.833  51.237 -53.661  1.00  0.00    -0.060 A 
HETATM   13  C   UNL     1     -39.398  50.009 -54.410  1.00  0.00     0.048 C 
HETATM   14  C   UNL     1     -40.205  52.389 -54.358  1.00  0.00     0.007 A 
HETATM   15  C   UNL     1     -40.673  53.978 -50.050  1.00  0.00     0.097 A 
HETATM   16  H   UNL     1     -40.036  52.028 -49.522  1.00  0.00     0.165 HD
ENDBRANCH   5   6
ENDBRANCH   1   5
BRANCH   2  17
HETATM   17  C   UNL     1     -43.161  57.355 -54.531  1.00  0.00     0.035 A 
HETATM   18  C   UNL     1     -42.599  57.158 -55.804  1.00  0.00     0.042 A 
HETATM   19  C   UNL     1     -43.340  57.387 -56.974  1.00  0.00    -0.021 A 
HETATM   20  C   UNL     1     -44.660  57.835 -56.853  1.00  0.00     0.012 A 
HETATM   21  C   UNL     1     -45.225  58.040 -55.593  1.00  0.00     0.003 A 
HETATM   22  C   UNL     1     -44.479  57.799 -54.437  1.00  0.00     0.029 A 
BRANCH  19  23
HETATM   23  C   UNL     1     -42.759  57.169 -58.290  1.00  0.00     0.010 A 
HETATM   24  C   UNL     1     -42.951  56.122 -59.225  1.00  0.00     0.152 A 
HETATM   25  N   UNL     1     -42.213  56.270 -60.329  1.00  0.00    -0.187 NA
HETATM   26  N   UNL     1     -41.540  57.408 -60.106  1.00  0.00    -0.289 N 
HETATM   27  H   UNL     1     -40.895  57.731 -60.819  1.00  0.00     0.188 HD
HETATM   28  C   UNL     1     -41.829  57.984 -58.902  1.00  0.00     0.123 A 
ENDBRANCH  19  23
ENDBRANCH   2  17
TORSDOF 4
ENDMDL
MODEL 3
REMARK VINA RESULT:      -8.7      2.314      8.579
REMARK  4 active torsions:
REMARK  status: ('A' for Active; 'I' for Inactive)
REMARK    1  A    between atoms: C_6  and  C_7 
REMARK    2  A    between atoms: C_7  and  C_8 
REMARK       I    between atoms: C_8  and  N_9 
REMARK    3  A    between atoms: N_9  and  C_10 
REMARK    4  A    between atoms: C_12  and  C_13 
ROOT
HETATM    1  C   UNL     1     -42.740  55.987 -56.685  1.00  0.00     0.226 C 
HETATM    2  N   UNL     1     -41.635  55.252 -56.285  1.00  0.00    -0.327 N 
HETATM    3  O   UNL     1     -43.680  56.330 -55.972  1.00  0.00    -0.273 OA
HETATM    4  H   UNL     1     -40.993  54.979 -57.016  1.00  0.00     0.169 HD
ENDROOT
BRANCH   1   5
HETATM    5  C   UNL     1     -42.676  56.391 -58.154  1.00  0.00     0.144 C 
BRANCH   5   6
HETATM    6  C   UNL     1     -43.873  55.932 -58.920  1.00  0.00    -0.021 A 
HETATM    7  C   UNL     1     -44.894  56.744 -59.515  1.00  0.00    -0.001 A 
HETATM    8  C   UNL     1     -45.811  55.884 -60.119  1.00  0.00     0.043 A 
HETATM    9  C   UNL     1     -45.130  58.131 -59.602  1.00  0.00     0.015 A 
HETATM   10  C   UNL     1     -46.943  56.338 -60.809  1.00  0.00     0.037 A 
HETATM   11  N   UNL     1     -45.374  54.600 -59.896  1.00  0.00    -0.365 N 
HETATM   12  C   UNL     1     -47.162  57.722 -60.884  1.00  0.00    -0.060 A 
HETATM   13  C   UNL     1     -48.340  58.253 -61.648  1.00  0.00     0.048 C 
HETATM   14  C   UNL     1     -46.253  58.603 -60.294  1.00  0.00     0.007 A 
HETATM   15  C   UNL     1     -44.214  54.617 -59.172  1.00  0.00     0.097 A 
HETATM   16  H   UNL     1     -45.847  53.768 -60.220  1.00  0.00     0.165 HD
ENDBRANCH   5   6
ENDBRANCH   1   5
BRANCH   2  17
HETATM   17  C   UNL     1     -41.305  54.813 -54.986  1.00  0.00     0.035 A 
HETATM   18  C   UNL     1     -40.900  53.475 -54.850  1.00  0.00     0.042 A 
HETATM   19  C   UNL     1     -40.521  52.948 -53.605  1.00  0.00    -0.021 A 
HETATM   20  C   UNL     1     -40.566  53.783 -52.484  1.00  0.00     0.012 A 
HETATM   21  C   UNL     1     -40.974  55.112 -52.608  1.00  0.00     0.003 A 
HETATM   22  C   UNL     1     -41.339  55.626 -53.855  1.00  0.00     0.029 A 
BRANCH  19  23
HETATM   23  C   UNL     1     -40.089  51.565 -53.470  1.00  0.00     0.010 A 
HETATM   24  C   UNL     1     -40.105  50.495 -54.398  1.00  0.00     0.152 A 
HETATM   25  N   UNL     1     -39.634  49.355 -53.884  1.00  0.00    -0.187 NA
HETATM   26  N   UNL     1     -39.319  49.686 -52.623  1.00  0.00    -0.289 N 
HETATM   27  H   UNL     1     -38.938  48.966 -52.019  1.00  0.00     0.188 HD
HETATM   28  C   UNL     1     -39.573  50.994 -52.325  1.00  0.00     0.123 A 
ENDBRANCH  19  23
ENDBRANCH   2  17
TORSDOF 4
ENDMDL
MODEL 4
REMARK VINA RESULT:      -8.6      1.737      2.262
REMARK  4 active torsions:
REMARK  status: ('A' for Active; 'I' for Inactive)
REMARK    1  A    between atoms: C_6  and  C_7 
REMARK    2  A    between atoms: C_7  and  C_8 
REMARK       I    between atoms: C_8  and  N_9 
REMARK    3  A    between atoms: N_9  and  C_10 
REMARK    4  A    between atoms: C_12  and  C_13 
ROOT
HETATM    1  C   UNL     1     -42.105  55.009 -55.760  1.00  0.00     0.226 C 
HETATM    2  N   UNL     1     -41.948  56.220 -56.417  1.00  0.00    -0.327 N 
HETATM    3  O   UNL     1     -43.172  54.479 -55.462  1.00  0.00    -0.273 OA
HETATM    4  H   UNL     1     -40.999  56.557 -56.508  1.00  0.00     0.169 HD
ENDROOT
BRANCH   1   5
HETATM    5  C   UNL     1     -40.775  54.332 -55.451  1.00  0.00     0.144 C 
BRANCH   5   6
HETATM    6  C   UNL     1     -40.625  54.009 -54.001  1.00  0.00    -0.021 A 
HETATM    7  C   UNL     1     -40.273  52.747 -53.417  1.00  0.00    -0.001 A 
HETATM    8  C   UNL     1     -40.261  52.917 -52.033  1.00  0.00     0.043 A 
HETATM    9  C   UNL     1     -39.959  51.473 -53.932  1.00  0.00     0.015 A 
HETATM   10  C   UNL     1     -39.946  51.883 -51.141  1.00  0.00     0.037 A 
HETATM   11  N   UNL     1     -40.601  54.224 -51.780  1.00  0.00    -0.365 N 
HETATM   12  C   UNL     1     -39.639  50.622 -51.671  1.00  0.00    -0.060 A 
HETATM   13  C   UNL     1     -39.255  49.497 -50.752  1.00  0.00     0.048 C 
HETATM   14  C   UNL     1     -39.636  50.430 -53.054  1.00  0.00     0.007 A 
HETATM   15  C   UNL     1     -40.827  54.888 -52.953  1.00  0.00     0.097 A 
HETATM   16  H   UNL     1     -40.673  54.630 -50.857  1.00  0.00     0.165 HD
ENDBRANCH   5   6
ENDBRANCH   1   5
BRANCH   2  17
HETATM   17  C   UNL     1     -42.948  57.057 -56.951  1.00  0.00     0.035 A 
HETATM   18  C   UNL     1     -43.655  56.574 -58.065  1.00  0.00     0.042 A 
HETATM   19  C   UNL     1     -44.691  57.318 -58.652  1.00  0.00    -0.021 A 
HETATM   20  C   UNL     1     -45.006  58.569 -58.113  1.00  0.00     0.012 A 
HETATM   21  C   UNL     1     -44.304  59.060 -57.010  1.00  0.00     0.003 A 
HETATM   22  C   UNL     1     -43.282  58.306 -56.430  1.00  0.00     0.029 A 
BRANCH  19  23
HETATM   23  C   UNL     1     -45.430  56.808 -59.798  1.00  0.00     0.010 A 
HETATM   24  C   UNL     1     -45.185  55.694 -60.637  1.00  0.00     0.152 A 
HETATM   25  N   UNL     1     -46.094  55.564 -61.607  1.00  0.00    -0.187 NA
HETATM   26  N   UNL     1     -46.923  56.598 -61.400  1.00  0.00    -0.289 N 
HETATM   27  H   UNL     1     -47.709  56.716 -62.030  1.00  0.00     0.188 HD
HETATM   28  C   UNL     1     -46.571  57.373 -60.333  1.00  0.00     0.123 A 
ENDBRANCH  19  23
ENDBRANCH   2  17
TORSDOF 4
ENDMDL
MODEL 5
REMARK VINA RESULT:      -8.5      1.955      7.847
REMARK  4 active torsions:
REMARK  status: ('A' for Active; 'I' for Inactive)
REMARK    1  A    between atoms: C_6  and  C_7 
REMARK    2  A    between atoms: C_7  and  C_8 
REMARK       I    between atoms: C_8  and  N_9 
REMARK    3  A    between atoms: N_9  and  C_10 
REMARK    4  A    between atoms: C_12  and  C_13 
ROOT
HETATM    1  C   UNL     1     -41.737  56.759 -53.796  1.00  0.00     0.226 C 
HETATM    2  N   UNL     1     -42.187  55.642 -53.109  1.00  0.00    -0.327 N 
HETATM    3  O   UNL     1     -40.589  57.195 -53.799  1.00  0.00    -0.273 OA
HETATM    4  H   UNL     1     -43.182  55.469 -53.144  1.00  0.00     0.169 HD
ENDROOT
BRANCH   1   5
HETATM    5  C   UNL     1     -42.834  57.420 -54.623  1.00  0.00     0.144 C 
BRANCH   5   6
HETATM    6  C   UNL     1     -42.745  57.066 -56.071  1.00  0.00    -0.021 A 
HETATM    7  C   UNL     1     -42.525  57.953 -57.177  1.00  0.00    -0.001 A 
HETATM    8  C   UNL     1     -42.526  57.179 -58.338  1.00  0.00     0.043 A 
HETATM    9  C   UNL     1     -42.323  59.342 -57.305  1.00  0.00     0.015 A 
HETATM   10  C   UNL     1     -42.328  57.721 -59.615  1.00  0.00     0.037 A 
HETATM   11  N   UNL     1     -42.746  55.877 -57.959  1.00  0.00    -0.365 N 
HETATM   12  C   UNL     1     -42.130  59.105 -59.723  1.00  0.00    -0.060 A 
HETATM   13  C   UNL     1     -41.873  59.721 -61.069  1.00  0.00     0.048 C 
HETATM   14  C   UNL     1     -42.116  59.899 -58.574  1.00  0.00     0.007 A 
HETATM   15  C   UNL     1     -42.884  55.797 -56.601  1.00  0.00     0.097 A 
HETATM   16  H   UNL     1     -42.798  55.094 -58.597  1.00  0.00     0.165 HD
ENDBRANCH   5   6
ENDBRANCH   1   5
BRANCH   2  17
HETATM   17  C   UNL     1     -41.434  54.728 -52.344  1.00  0.00     0.035 A 
HETATM   18  C   UNL     1     -41.107  53.505 -52.953  1.00  0.00     0.042 A 
HETATM   19  C   UNL     1     -40.334  52.541 -52.287  1.00  0.00    -0.021 A 
HETATM   20  C   UNL     1     -39.899  52.813 -50.986  1.00  0.00     0.012 A 
HETATM   21  C   UNL     1     -40.225  54.023 -50.371  1.00  0.00     0.003 A 
HETATM   22  C   UNL     1     -40.987  54.978 -51.049  1.00  0.00     0.029 A 
BRANCH  19  23
HETATM   23  C   UNL     1     -39.986  51.280 -52.925  1.00  0.00     0.010 A 
HETATM   24  C   UNL     1     -39.567  50.046 -52.370  1.00  0.00     0.152 A 
HETATM   25  N   UNL     1     -39.320  49.116 -53.298  1.00  0.00    -0.187 NA
HETATM   26  N   UNL     1     -39.573  49.751 -54.452  1.00  0.00    -0.289 N 
HETATM   27  H   UNL     1     -39.448  49.239 -55.319  1.00  0.00     0.188 HD
HETATM   28  C   UNL     1     -39.973  51.045 -54.285  1.00  0.00     0.123 A 
ENDBRANCH  19  23
ENDBRANCH   2  17
TORSDOF 4
ENDMDL
MODEL 6
REMARK VINA RESULT:      -8.3      3.182      5.870
REMARK  4 active torsions:
REMARK  status: ('A' for Active; 'I' for Inactive)
REMARK    1  A    between atoms: C_6  and  C_7 
REMARK    2  A    between atoms: C_7  and  C_8 
REMARK       I    between atoms: C_8  and  N_9 
REMARK    3  A    between atoms: N_9  and  C_10 
REMARK    4  A    between atoms: C_12  and  C_13 
ROOT
HETATM    1  C   UNL     1     -42.719  55.255 -55.037  1.00  0.00     0.226 C 
HETATM    2  N   UNL     1     -43.997  55.709 -54.749  1.00  0.00    -0.327 N 
HETATM    3  O   UNL     1     -41.739  55.955 -55.283  1.00  0.00    -0.273 OA
HETATM    4  H   UNL     1     -44.710  54.999 -54.656  1.00  0.00     0.169 HD
ENDROOT
BRANCH   1   5
HETATM    5  C   UNL     1     -42.609  53.736 -54.984  1.00  0.00     0.144 C 
BRANCH   5   6
HETATM    6  C   UNL     1     -41.603  53.273 -53.983  1.00  0.00    -0.021 A 
HETATM    7  C   UNL     1     -41.536  53.611 -52.590  1.00  0.00    -0.001 A 
HETATM    8  C   UNL     1     -40.428  52.953 -52.055  1.00  0.00     0.043 A 
HETATM    9  C   UNL     1     -42.312  54.412 -51.729  1.00  0.00     0.015 A 
HETATM   10  C   UNL     1     -40.063  53.049 -50.706  1.00  0.00     0.037 A 
HETATM   11  N   UNL     1     -39.838  52.250 -53.079  1.00  0.00    -0.365 N 
HETATM   12  C   UNL     1     -40.846  53.853 -49.864  1.00  0.00    -0.060 A 
HETATM   13  C   UNL     1     -40.513  53.951 -48.403  1.00  0.00     0.048 C 
HETATM   14  C   UNL     1     -41.964  54.514 -50.375  1.00  0.00     0.007 A 
HETATM   15  C   UNL     1     -40.532  52.439 -54.242  1.00  0.00     0.097 A 
HETATM   16  H   UNL     1     -39.010  51.679 -52.980  1.00  0.00     0.165 HD
ENDBRANCH   5   6
ENDBRANCH   1   5
BRANCH   2  17
HETATM   17  C   UNL     1     -44.435  57.040 -54.597  1.00  0.00     0.035 A 
HETATM   18  C   UNL     1     -44.510  57.541 -53.287  1.00  0.00     0.042 A 
HETATM   19  C   UNL     1     -44.904  58.863 -53.031  1.00  0.00    -0.021 A 
HETATM   20  C   UNL     1     -45.239  59.683 -54.113  1.00  0.00     0.012 A 
HETATM   21  C   UNL     1     -45.174  59.193 -55.418  1.00  0.00     0.003 A 
HETATM   22  C   UNL     1     -44.771  57.877 -55.659  1.00  0.00     0.029 A 
BRANCH  19  23
HETATM   23  C   UNL     1     -44.968  59.383 -51.672  1.00  0.00     0.010 A 
HETATM   24  C   UNL     1     -46.055  59.487 -50.771  1.00  0.00     0.152 A 
HETATM   25  N   UNL     1     -45.713  60.045 -49.606  1.00  0.00    -0.187 NA
HETATM   26  N   UNL     1     -44.407  60.307 -49.757  1.00  0.00    -0.289 N 
HETATM   27  H   UNL     1     -43.914  60.748 -48.987  1.00  0.00     0.188 HD
HETATM   28  C   UNL     1     -43.913  59.932 -50.973  1.00  0.00     0.123 A 
ENDBRANCH  19  23
ENDBRANCH   2  17
TORSDOF 4
ENDMDL
MODEL 7
REMARK VINA RESULT:      -8.0      2.232      7.561
REMARK  4 active torsions:
REMARK  status: ('A' for Active; 'I' for Inactive)
REMARK    1  A    between atoms: C_6  and  C_7 
REMARK    2  A    between atoms: C_7  and  C_8 
REMARK       I    between atoms: C_8  and  N_9 
REMARK    3  A    between atoms: N_9  and  C_10 
REMARK    4  A    between atoms: C_12  and  C_13 
ROOT
HETATM    1  C   UNL     1     -42.493  56.907 -53.808  1.00  0.00     0.226 C 
HETATM    2  N   UNL     1     -41.309  56.213 -53.613  1.00  0.00    -0.327 N 
HETATM    3  O   UNL     1     -43.574  56.662 -53.278  1.00  0.00    -0.273 OA
HETATM    4  H   UNL     1     -40.529  56.491 -54.193  1.00  0.00     0.169 HD
ENDROOT
BRANCH   1   5
HETATM    5  C   UNL     1     -42.331  58.089 -54.758  1.00  0.00     0.144 C 
BRANCH   5   6
HETATM    6  C   UNL     1     -43.422  58.153 -55.775  1.00  0.00    -0.021 A 
HETATM    7  C   UNL     1     -43.545  57.380 -56.977  1.00  0.00    -0.001 A 
HETATM    8  C   UNL     1     -44.716  57.785 -57.616  1.00  0.00     0.043 A 
HETATM    9  C   UNL     1     -42.772  56.370 -57.586  1.00  0.00     0.015 A 
HETATM   10  C   UNL     1     -45.158  57.229 -58.824  1.00  0.00     0.037 A 
HETATM   11  N   UNL     1     -45.282  58.771 -56.843  1.00  0.00    -0.365 N 
HETATM   12  C   UNL     1     -44.376  56.226 -59.416  1.00  0.00    -0.060 A 
HETATM   13  C   UNL     1     -44.833  55.575 -60.689  1.00  0.00     0.048 C 
HETATM   14  C   UNL     1     -43.202  55.798 -58.791  1.00  0.00     0.007 A 
HETATM   15  C   UNL     1     -44.511  59.004 -55.738  1.00  0.00     0.097 A 
HETATM   16  H   UNL     1     -46.143  59.252 -57.065  1.00  0.00     0.165 HD
ENDBRANCH   5   6
ENDBRANCH   1   5
BRANCH   2  17
HETATM   17  C   UNL     1     -41.061  55.147 -52.725  1.00  0.00     0.035 A 
HETATM   18  C   UNL     1     -40.743  53.903 -53.295  1.00  0.00     0.042 A 
HETATM   19  C   UNL     1     -40.448  52.787 -52.496  1.00  0.00    -0.021 A 
HETATM   20  C   UNL     1     -40.491  52.929 -51.105  1.00  0.00     0.012 A 
HETATM   21  C   UNL     1     -40.813  54.160 -50.530  1.00  0.00     0.003 A 
HETATM   22  C   UNL     1     -41.094  55.265 -51.337  1.00  0.00     0.029 A 
BRANCH  19  23
HETATM   23  C   UNL     1     -40.106  51.503 -53.089  1.00  0.00     0.010 A 
HETATM   24  C   UNL     1     -39.588  50.321 -52.505  1.00  0.00     0.152 A 
HETATM   25  N   UNL     1     -39.386  49.347 -53.397  1.00  0.00    -0.187 NA
HETATM   26  N   UNL     1     -39.766  49.900 -54.557  1.00  0.00    -0.289 N 
HETATM   27  H   UNL     1     -39.697  49.341 -55.401  1.00  0.00     0.188 HD
HETATM   28  C   UNL     1     -40.203  51.187 -54.429  1.00  0.00     0.123 A 
ENDBRANCH  19  23
ENDBRANCH   2  17
TORSDOF 4
ENDMDL
MODEL 8
REMARK VINA RESULT:      -8.0      1.822      8.762
REMARK  4 active torsions:
REMARK  status: ('A' for Active; 'I' for Inactive)
REMARK    1  A    between atoms: C_6  and  C_7 
REMARK    2  A    between atoms: C_7  and  C_8 
REMARK       I    between atoms: C_8  and  N_9 
REMARK    3  A    between atoms: N_9  and  C_10 
REMARK    4  A    between atoms: C_12  and  C_13 
ROOT
HETATM    1  C   UNL     1     -42.392  56.036 -55.259  1.00  0.00     0.226 C 
HETATM    2  N   UNL     1     -42.593  54.761 -54.754  1.00  0.00    -0.327 N 
HETATM    3  O   UNL     1     -41.421  56.757 -55.043  1.00  0.00    -0.273 OA
HETATM    4  H   UNL     1     -43.487  54.337 -54.958  1.00  0.00     0.169 HD
ENDROOT
BRANCH   1   5
HETATM    5  C   UNL     1     -43.518  56.485 -56.184  1.00  0.00     0.144 C 
BRANCH   5   6
HETATM    6  C   UNL     1     -43.061  56.652 -57.595  1.00  0.00    -0.021 A 
HETATM    7  C   UNL     1     -42.772  57.877 -58.283  1.00  0.00    -0.001 A 
HETATM    8  C   UNL     1     -42.387  57.546 -59.582  1.00  0.00     0.043 A 
HETATM    9  C   UNL     1     -42.798  59.241 -57.926  1.00  0.00     0.015 A 
HETATM   10  C   UNL     1     -42.021  58.504 -60.536  1.00  0.00     0.037 A 
HETATM   11  N   UNL     1     -42.447  56.177 -59.687  1.00  0.00    -0.365 N 
HETATM   12  C   UNL     1     -42.054  59.856 -60.164  1.00  0.00    -0.060 A 
HETATM   13  C   UNL     1     -41.631  60.912 -61.144  1.00  0.00     0.048 C 
HETATM   14  C   UNL     1     -42.428  60.212 -58.866  1.00  0.00     0.007 A 
HETATM   15  C   UNL     1     -42.855  55.630 -58.503  1.00  0.00     0.097 A 
HETATM   16  H   UNL     1     -42.221  55.655 -60.524  1.00  0.00     0.165 HD
ENDBRANCH   5   6
ENDBRANCH   1   5
BRANCH   2  17
HETATM   17  C   UNL     1     -41.715  53.988 -53.966  1.00  0.00     0.035 A 
HETATM   18  C   UNL     1     -41.673  54.274 -52.592  1.00  0.00     0.042 A 
HETATM   19  C   UNL     1     -40.856  53.541 -51.717  1.00  0.00    -0.021 A 
HETATM   20  C   UNL     1     -40.062  52.517 -52.243  1.00  0.00     0.012 A 
HETATM   21  C   UNL     1     -40.091  52.230 -53.609  1.00  0.00     0.003 A 
HETATM   22  C   UNL     1     -40.917  52.961 -54.467  1.00  0.00     0.029 A 
BRANCH  19  23
HETATM   23  C   UNL     1     -40.825  53.831 -50.291  1.00  0.00     0.010 A 
HETATM   24  C   UNL     1     -40.520  53.002 -49.184  1.00  0.00     0.152 A 
HETATM   25  N   UNL     1     -40.621  53.640 -48.014  1.00  0.00    -0.187 NA
HETATM   26  N   UNL     1     -40.998  54.878 -48.364  1.00  0.00    -0.289 N 
HETATM   27  H   UNL     1     -41.148  55.560 -47.628  1.00  0.00     0.188 HD
HETATM   28  C   UNL     1     -41.135  55.045 -49.712  1.00  0.00     0.123 A 
ENDBRANCH  19  23
ENDBRANCH   2  17
TORSDOF 4
ENDMDL
MODEL 9
REMARK VINA RESULT:      -7.9      2.647      4.525
REMARK  4 active torsions:
REMARK  status: ('A' for Active; 'I' for Inactive)
REMARK    1  A    between atoms: C_6  and  C_7 
REMARK    2  A    between atoms: C_7  and  C_8 
REMARK       I    between atoms: C_8  and  N_9 
REMARK    3  A    between atoms: N_9  and  C_10 
REMARK    4  A    between atoms: C_12  and  C_13 
ROOT
HETATM    1  C   UNL     1     -42.788  55.072 -55.592  1.00  0.00     0.226 C 
HETATM    2  N   UNL     1     -43.508  55.829 -56.503  1.00  0.00    -0.327 N 
HETATM    3  O   UNL     1     -41.593  54.795 -55.662  1.00  0.00    -0.273 OA
HETATM    4  H   UNL     1     -44.503  55.891 -56.342  1.00  0.00     0.169 HD
ENDROOT
BRANCH   1   5
HETATM    5  C   UNL     1     -43.635  54.616 -54.409  1.00  0.00     0.144 C 
BRANCH   5   6
HETATM    6  C   UNL     1     -43.243  55.292 -53.136  1.00  0.00    -0.021 A 
HETATM    7  C   UNL     1     -42.438  54.761 -52.075  1.00  0.00    -0.001 A 
HETATM    8  C   UNL     1     -42.345  55.744 -51.090  1.00  0.00     0.043 A 
HETATM    9  C   UNL     1     -41.774  53.537 -51.855  1.00  0.00     0.015 A 
HETATM   10  C   UNL     1     -41.619  55.569 -49.904  1.00  0.00     0.037 A 
HETATM   11  N   UNL     1     -43.070  56.827 -51.525  1.00  0.00    -0.365 N 
HETATM   12  C   UNL     1     -40.967  54.343 -49.702  1.00  0.00    -0.060 A 
HETATM   13  C   UNL     1     -40.144  54.129 -48.464  1.00  0.00     0.048 C 
HETATM   14  C   UNL     1     -41.038  53.347 -50.678  1.00  0.00     0.007 A 
HETATM   15  C   UNL     1     -43.618  56.565 -52.750  1.00  0.00     0.097 A 
HETATM   16  H   UNL     1     -43.180  57.689 -51.009  1.00  0.00     0.165 HD
ENDBRANCH   5   6
ENDBRANCH   1   5
BRANCH   2  17
HETATM   17  C   UNL     1     -43.030  56.503 -57.645  1.00  0.00     0.035 A 
HETATM   18  C   UNL     1     -42.717  57.865 -57.497  1.00  0.00     0.042 A 
HETATM   19  C   UNL     1     -42.205  58.618 -58.566  1.00  0.00    -0.021 A 
HETATM   20  C   UNL     1     -42.020  57.988 -59.801  1.00  0.00     0.012 A 
HETATM   21  C   UNL     1     -42.334  56.637 -59.959  1.00  0.00     0.003 A 
HETATM   22  C   UNL     1     -42.834  55.897 -58.884  1.00  0.00     0.029 A 
BRANCH  19  23
HETATM   23  C   UNL     1     -41.869  60.025 -58.405  1.00  0.00     0.010 A 
HETATM   24  C   UNL     1     -41.569  61.021 -59.367  1.00  0.00     0.152 A 
HETATM   25  N   UNL     1     -41.290  62.206 -58.817  1.00  0.00    -0.187 NA
HETATM   26  N   UNL     1     -41.404  61.976 -57.501  1.00  0.00    -0.289 N 
HETATM   27  H   UNL     1     -41.229  62.744 -56.862  1.00  0.00     0.188 HD
HETATM   28  C   UNL     1     -41.747  60.689 -57.201  1.00  0.00     0.123 A 
ENDBRANCH  19  23
ENDBRANCH   2  17
TORSDOF 4
ENDMDL
MODEL 10
REMARK VINA RESULT:      -7.9      2.045      2.768
REMARK  4 active torsions:
REMARK  status: ('A' for Active; 'I' for Inactive)
REMARK    1  A    between atoms: C_6  and  C_7 
REMARK    2  A    between atoms: C_7  and  C_8 
REMARK       I    between atoms: C_8  and  N_9 
REMARK    3  A    between atoms: N_9  and  C_10 
REMARK    4  A    between atoms: C_12  and  C_13 
ROOT
HETATM    1  C   UNL     1     -42.358  56.066 -53.429  1.00  0.00     0.226 C 
HETATM    2  N   UNL     1     -41.745  56.480 -54.601  1.00  0.00    -0.327 N 
HETATM    3  O   UNL     1     -43.508  55.649 -53.320  1.00  0.00    -0.273 OA
HETATM    4  H   UNL     1     -40.821  56.878 -54.504  1.00  0.00     0.169 HD
ENDROOT
BRANCH   1   5
HETATM    5  C   UNL     1     -41.429  56.140 -52.223  1.00  0.00     0.144 C 
BRANCH   5   6
HETATM    6  C   UNL     1     -40.948  54.793 -51.793  1.00  0.00    -0.021 A 
HETATM    7  C   UNL     1     -40.617  53.675 -52.628  1.00  0.00    -0.001 A 
HETATM    8  C   UNL     1     -40.224  52.632 -51.790  1.00  0.00     0.043 A 
HETATM    9  C   UNL     1     -40.612  53.447 -54.019  1.00  0.00     0.015 A 
HETATM   10  C   UNL     1     -39.819  51.379 -52.271  1.00  0.00     0.037 A 
HETATM   11  N   UNL     1     -40.319  53.089 -50.498  1.00  0.00    -0.365 N 
HETATM   12  C   UNL     1     -39.822  51.170 -53.658  1.00  0.00    -0.060 A 
HETATM   13  C   UNL     1     -39.356  49.856 -54.217  1.00  0.00     0.048 C 
HETATM   14  C   UNL     1     -40.204  52.203 -54.517  1.00  0.00     0.007 A 
HETATM   15  C   UNL     1     -40.758  54.384 -50.487  1.00  0.00     0.097 A 
HETATM   16  H   UNL     1     -40.096  52.542 -49.677  1.00  0.00     0.165 HD
ENDBRANCH   5   6
ENDBRANCH   1   5
BRANCH   2  17
HETATM   17  C   UNL     1     -42.259  56.439 -55.914  1.00  0.00     0.035 A 
HETATM   18  C   UNL     1     -42.254  57.643 -56.637  1.00  0.00     0.042 A 
HETATM   19  C   UNL     1     -42.715  57.702 -57.962  1.00  0.00    -0.021 A 
HETATM   20  C   UNL     1     -43.199  56.532 -58.555  1.00  0.00     0.012 A 
HETATM   21  C   UNL     1     -43.214  55.332 -57.841  1.00  0.00     0.003 A 
HETATM   22  C   UNL     1     -42.743  55.286 -56.527  1.00  0.00     0.029 A 
BRANCH  19  23
HETATM   23  C   UNL     1     -42.696  58.949 -58.713  1.00  0.00     0.010 A 
HETATM   24  C   UNL     1     -42.038  60.176 -58.454  1.00  0.00     0.152 A 
HETATM   25  N   UNL     1     -42.285  61.104 -59.384  1.00  0.00    -0.187 NA
HETATM   26  N   UNL     1     -43.107  60.479 -60.239  1.00  0.00    -0.289 N 
HETATM   27  H   UNL     1     -43.444  60.996 -61.045  1.00  0.00     0.188 HD
HETATM   28  C   UNL     1     -43.385  59.190 -59.884  1.00  0.00     0.123 A 
ENDBRANCH  19  23
ENDBRANCH   2  17
TORSDOF 4
ENDMDL
