MODEL 1
REMARK VINA RESULT:      -7.7      0.000      0.000
REMARK  4 active torsions:
REMARK  status: ('A' for Active; 'I' for Inactive)
REMARK    1  A    between atoms: C_2  and  C_3 
REMARK    2  A    between atoms: C_3  and  N_4 
REMARK    3  A    between atoms: N_4  and  N_5 
REMARK    4  A    between atoms: C_10  and  C_11 
ROOT
HETATM    1  N   UNL     1     -42.318  55.915 -54.656  1.00  0.00    -0.231 N 
HETATM    2  C   UNL     1     -43.169  56.194 -55.710  1.00  0.00     0.211 A 
HETATM    3  S   UNL     1     -42.917  56.056 -57.343  1.00  0.00    -0.038 SA
HETATM    4  N   UNL     1     -44.349  56.632 -55.125  1.00  0.00    -0.250 N 
HETATM    5  N   UNL     1     -44.249  56.600 -53.760  1.00  0.00    -0.152 NA
HETATM    6  C   UNL     1     -43.040  56.157 -53.513  1.00  0.00     0.177 A 
HETATM    7  H   UNL     1     -45.201  56.907 -55.598  1.00  0.00     0.191 HD
ENDROOT
BRANCH   1   8
HETATM    8  N   UNL     1     -41.007  55.445 -54.792  1.00  0.00    -0.225 NA
HETATM    9  H   UNL     1     -40.594  55.442 -53.853  1.00  0.00     0.147 HD
BRANCH   8  10
HETATM   10  C   UNL     1     -40.976  54.062 -55.291  1.00  0.00     0.149 C 
BRANCH  10  11
HETATM   11  C   UNL     1     -40.546  53.104 -54.199  1.00  0.00    -0.041 A 
HETATM   12  C   UNL     1     -40.266  53.588 -52.899  1.00  0.00     0.011 A 
HETATM   13  C   UNL     1     -39.860  52.721 -51.878  1.00  0.00     0.040 A 
HETATM   14  C   UNL     1     -39.739  51.383 -52.182  1.00  0.00     0.105 A 
HETATM   15  C   UNL     1     -40.014  50.900 -53.438  1.00  0.00     0.105 A 
HETATM   16  O   UNL     1     -39.347  50.405 -51.323  1.00  0.00    -0.323 OA
HETATM   17  C   UNL     1     -40.425  51.728 -54.461  1.00  0.00     0.048 A 
HETATM   18  O   UNL     1     -39.828  49.556 -53.530  1.00  0.00    -0.323 OA
HETATM   19  C   UNL     1     -39.391  49.252 -52.189  1.00  0.00     0.352 A 
ENDBRANCH  10  11
ENDBRANCH   8  10
ENDBRANCH   1   8
BRANCH   6  20
HETATM   20  C   UNL     1     -42.542  55.970 -52.130  1.00  0.00     0.016 A 
HETATM   21  C   UNL     1     -43.067  54.904 -51.394  1.00  0.00     0.034 A 
HETATM   22  C   UNL     1     -42.609  54.698 -50.104  1.00  0.00     0.117 A 
HETATM   23  N   UNL     1     -41.680  55.474 -49.512  1.00  0.00    -0.273 NA
HETATM   24  C   UNL     1     -41.172  56.485 -50.247  1.00  0.00     0.117 A 
HETATM   25  C   UNL     1     -41.557  56.764 -51.548  1.00  0.00     0.034 A 
ENDBRANCH   6  20
TORSDOF 4
ENDMDL
MODEL 2
REMARK VINA RESULT:      -7.5      3.841      6.242
REMARK  4 active torsions:
REMARK  status: ('A' for Active; 'I' for Inactive)
REMARK    1  A    between atoms: C_2  and  C_3 
REMARK    2  A    between atoms: C_3  and  N_4 
REMARK    3  A    between atoms: N_4  and  N_5 
REMARK    4  A    between atoms: C_10  and  C_11 
ROOT
HETATM    1  N   UNL     1     -40.033  52.023 -52.466  1.00  0.00    -0.231 N 
HETATM    2  C   UNL     1     -39.717  50.680 -52.374  1.00  0.00     0.211 A 
HETATM    3  S   UNL     1     -39.125  49.816 -51.088  1.00  0.00    -0.038 SA
HETATM    4  N   UNL     1     -40.004  50.146 -53.621  1.00  0.00    -0.250 N 
HETATM    5  N   UNL     1     -40.508  51.110 -54.452  1.00  0.00    -0.152 NA
HETATM    6  C   UNL     1     -40.527  52.208 -53.735  1.00  0.00     0.177 A 
HETATM    7  H   UNL     1     -39.910  49.179 -53.910  1.00  0.00     0.191 HD
ENDROOT
BRANCH   1   8
HETATM    8  N   UNL     1     -39.893  52.950 -51.428  1.00  0.00    -0.225 NA
HETATM    9  H   UNL     1     -39.654  53.848 -51.862  1.00  0.00     0.147 HD
BRANCH   8  10
HETATM   10  C   UNL     1     -41.152  53.136 -50.694  1.00  0.00     0.149 C 
BRANCH  10  11
HETATM   11  C   UNL     1     -41.688  54.539 -50.890  1.00  0.00    -0.041 A 
HETATM   12  C   UNL     1     -42.989  54.736 -51.412  1.00  0.00     0.011 A 
HETATM   13  C   UNL     1     -43.501  56.024 -51.607  1.00  0.00     0.040 A 
HETATM   14  C   UNL     1     -42.695  57.092 -51.277  1.00  0.00     0.105 A 
HETATM   15  C   UNL     1     -41.434  56.914 -50.763  1.00  0.00     0.105 A 
HETATM   16  O   UNL     1     -43.022  58.405 -51.411  1.00  0.00    -0.323 OA
HETATM   17  C   UNL     1     -40.907  55.658 -50.551  1.00  0.00     0.048 A 
HETATM   18  O   UNL     1     -40.805  58.093 -50.509  1.00  0.00    -0.323 OA
HETATM   19  C   UNL     1     -41.812  59.034 -50.937  1.00  0.00     0.352 A 
ENDBRANCH  10  11
ENDBRANCH   8  10
ENDBRANCH   1   8
BRANCH   6  20
HETATM   20  C   UNL     1     -41.020  53.493 -54.283  1.00  0.00     0.016 A 
HETATM   21  C   UNL     1     -42.332  53.528 -54.765  1.00  0.00     0.034 A 
HETATM   22  C   UNL     1     -42.823  54.719 -55.270  1.00  0.00     0.117 A 
HETATM   23  N   UNL     1     -42.102  55.856 -55.325  1.00  0.00    -0.273 NA
HETATM   24  C   UNL     1     -40.845  55.806 -54.836  1.00  0.00     0.117 A 
HETATM   25  C   UNL     1     -40.269  54.666 -54.301  1.00  0.00     0.034 A 
ENDBRANCH   6  20
TORSDOF 4
ENDMDL
MODEL 3
REMARK VINA RESULT:      -7.3      3.317      5.961
REMARK  4 active torsions:
REMARK  status: ('A' for Active; 'I' for Inactive)
REMARK    1  A    between atoms: C_2  and  C_3 
REMARK    2  A    between atoms: C_3  and  N_4 
REMARK    3  A    between atoms: N_4  and  N_5 
REMARK    4  A    between atoms: C_10  and  C_11 
ROOT
HETATM    1  N   UNL     1     -41.887  54.126 -54.008  1.00  0.00    -0.231 N 
HETATM    2  C   UNL     1     -41.855  55.220 -54.853  1.00  0.00     0.211 A 
HETATM    3  S   UNL     1     -42.944  56.458 -55.025  1.00  0.00    -0.038 SA
HETATM    4  N   UNL     1     -40.676  55.096 -55.573  1.00  0.00    -0.250 N 
HETATM    5  N   UNL     1     -39.984  53.985 -55.174  1.00  0.00    -0.152 NA
HETATM    6  C   UNL     1     -40.719  53.439 -54.235  1.00  0.00     0.177 A 
HETATM    7  H   UNL     1     -40.318  55.733 -56.275  1.00  0.00     0.191 HD
ENDROOT
BRANCH   1   8
HETATM    8  N   UNL     1     -42.912  53.849 -53.096  1.00  0.00    -0.225 NA
HETATM    9  H   UNL     1     -43.094  52.841 -53.152  1.00  0.00     0.147 HD
BRANCH   8  10
HETATM   10  C   UNL     1     -42.506  54.149 -51.716  1.00  0.00     0.149 C 
BRANCH  10  11
HETATM   11  C   UNL     1     -42.500  55.643 -51.468  1.00  0.00    -0.041 A 
HETATM   12  C   UNL     1     -43.711  56.376 -51.513  1.00  0.00     0.011 A 
HETATM   13  C   UNL     1     -43.727  57.758 -51.293  1.00  0.00     0.040 A 
HETATM   14  C   UNL     1     -42.525  58.381 -51.035  1.00  0.00     0.105 A 
HETATM   15  C   UNL     1     -41.345  57.681 -50.983  1.00  0.00     0.105 A 
HETATM   16  O   UNL     1     -42.352  59.710 -50.812  1.00  0.00    -0.323 OA
HETATM   17  C   UNL     1     -41.299  56.318 -51.185  1.00  0.00     0.048 A 
HETATM   18  O   UNL     1     -40.277  58.481 -50.721  1.00  0.00    -0.323 OA
HETATM   19  C   UNL     1     -40.921  59.769 -50.629  1.00  0.00     0.352 A 
ENDBRANCH  10  11
ENDBRANCH   8  10
ENDBRANCH   1   8
BRANCH   6  20
HETATM   20  C   UNL     1     -40.302  52.202 -53.534  1.00  0.00     0.016 A 
HETATM   21  C   UNL     1     -40.302  51.013 -54.269  1.00  0.00     0.034 A 
HETATM   22  C   UNL     1     -39.904  49.845 -53.642  1.00  0.00     0.117 A 
HETATM   23  N   UNL     1     -39.514  49.788 -52.353  1.00  0.00    -0.273 NA
HETATM   24  C   UNL     1     -39.502  50.951 -51.669  1.00  0.00     0.117 A 
HETATM   25  C   UNL     1     -39.871  52.171 -52.210  1.00  0.00     0.034 A 
ENDBRANCH   6  20
TORSDOF 4
ENDMDL
MODEL 4
REMARK VINA RESULT:      -7.2      2.053      2.781
REMARK  4 active torsions:
REMARK  status: ('A' for Active; 'I' for Inactive)
REMARK    1  A    between atoms: C_2  and  C_3 
REMARK    2  A    between atoms: C_3  and  N_4 
REMARK    3  A    between atoms: N_4  and  N_5 
REMARK    4  A    between atoms: C_10  and  C_11 
ROOT
HETATM    1  N   UNL     1     -42.848  56.343 -56.560  1.00  0.00    -0.231 N 
HETATM    2  C   UNL     1     -43.388  56.627 -57.801  1.00  0.00     0.211 A 
HETATM    3  S   UNL     1     -43.269  55.788 -59.226  1.00  0.00    -0.038 SA
HETATM    4  N   UNL     1     -44.095  57.809 -57.634  1.00  0.00    -0.250 N 
HETATM    5  N   UNL     1     -44.025  58.231 -56.334  1.00  0.00    -0.152 NA
HETATM    6  C   UNL     1     -43.292  57.335 -55.719  1.00  0.00     0.177 A 
HETATM    7  H   UNL     1     -44.635  58.303 -58.334  1.00  0.00     0.191 HD
ENDROOT
BRANCH   1   8
HETATM    8  N   UNL     1     -42.050  55.231 -56.272  1.00  0.00    -0.225 NA
HETATM    9  H   UNL     1     -41.266  55.568 -55.702  1.00  0.00     0.147 HD
BRANCH   8  10
HETATM   10  C   UNL     1     -42.777  54.234 -55.474  1.00  0.00     0.149 C 
BRANCH  10  11
HETATM   11  C   UNL     1     -41.919  53.723 -54.336  1.00  0.00    -0.041 A 
HETATM   12  C   UNL     1     -40.787  52.916 -54.606  1.00  0.00     0.011 A 
HETATM   13  C   UNL     1     -39.985  52.427 -53.568  1.00  0.00     0.040 A 
HETATM   14  C   UNL     1     -40.334  52.756 -52.277  1.00  0.00     0.105 A 
HETATM   15  C   UNL     1     -41.426  53.544 -52.002  1.00  0.00     0.105 A 
HETATM   16  O   UNL     1     -39.681  52.362 -51.152  1.00  0.00    -0.323 OA
HETATM   17  C   UNL     1     -42.229  54.047 -53.003  1.00  0.00     0.048 A 
HETATM   18  O   UNL     1     -41.598  53.745 -50.668  1.00  0.00    -0.323 OA
HETATM   19  C   UNL     1     -40.497  52.980 -50.135  1.00  0.00     0.352 A 
ENDBRANCH  10  11
ENDBRANCH   8  10
ENDBRANCH   1   8
BRANCH   6  20
HETATM   20  C   UNL     1     -42.986  57.432 -54.272  1.00  0.00     0.016 A 
HETATM   21  C   UNL     1     -44.042  57.245 -53.376  1.00  0.00     0.034 A 
HETATM   22  C   UNL     1     -43.782  57.317 -52.018  1.00  0.00     0.117 A 
HETATM   23  N   UNL     1     -42.559  57.560 -51.508  1.00  0.00    -0.273 NA
HETATM   24  C   UNL     1     -41.550  57.717 -52.390  1.00  0.00     0.117 A 
HETATM   25  C   UNL     1     -41.708  57.652 -53.765  1.00  0.00     0.034 A 
ENDBRANCH   6  20
TORSDOF 4
ENDMDL
MODEL 5
REMARK VINA RESULT:      -7.2      2.383      4.099
REMARK  4 active torsions:
REMARK  status: ('A' for Active; 'I' for Inactive)
REMARK    1  A    between atoms: C_2  and  C_3 
REMARK    2  A    between atoms: C_3  and  N_4 
REMARK    3  A    between atoms: N_4  and  N_5 
REMARK    4  A    between atoms: C_10  and  C_11 
ROOT
HETATM    1  N   UNL     1     -41.955  56.042 -51.542  1.00  0.00    -0.231 N 
HETATM    2  C   UNL     1     -41.472  56.140 -50.250  1.00  0.00     0.211 A 
HETATM    3  S   UNL     1     -40.905  54.956 -49.237  1.00  0.00    -0.038 SA
HETATM    4  N   UNL     1     -41.543  57.489 -49.931  1.00  0.00    -0.250 N 
HETATM    5  N   UNL     1     -42.024  58.208 -50.991  1.00  0.00    -0.152 NA
HETATM    6  C   UNL     1     -42.245  57.326 -51.935  1.00  0.00     0.177 A 
HETATM    7  H   UNL     1     -41.254  57.929 -49.065  1.00  0.00     0.191 HD
ENDROOT
BRANCH   1   8
HETATM    8  N   UNL     1     -42.065  54.849 -52.264  1.00  0.00    -0.225 NA
HETATM    9  H   UNL     1     -42.876  54.951 -52.884  1.00  0.00     0.147 HD
BRANCH   8  10
HETATM   10  C   UNL     1     -40.887  54.619 -53.114  1.00  0.00     0.149 C 
BRANCH  10  11
HETATM   11  C   UNL     1     -40.492  53.157 -53.105  1.00  0.00    -0.041 A 
HETATM   12  C   UNL     1     -40.398  52.439 -54.321  1.00  0.00     0.011 A 
HETATM   13  C   UNL     1     -40.041  51.086 -54.335  1.00  0.00     0.040 A 
HETATM   14  C   UNL     1     -39.789  50.477 -53.126  1.00  0.00     0.105 A 
HETATM   15  C   UNL     1     -39.871  51.163 -51.939  1.00  0.00     0.105 A 
HETATM   16  O   UNL     1     -39.443  49.174 -52.950  1.00  0.00    -0.323 OA
HETATM   17  C   UNL     1     -40.210  52.499 -51.895  1.00  0.00     0.048 A 
HETATM   18  O   UNL     1     -39.589  50.379 -50.864  1.00  0.00    -0.323 OA
HETATM   19  C   UNL     1     -39.334  49.115 -51.512  1.00  0.00     0.352 A 
ENDBRANCH  10  11
ENDBRANCH   8  10
ENDBRANCH   1   8
BRANCH   6  20
HETATM   20  C   UNL     1     -42.770  57.716 -53.265  1.00  0.00     0.016 A 
HETATM   21  C   UNL     1     -41.862  58.244 -54.187  1.00  0.00     0.034 A 
HETATM   22  C   UNL     1     -42.322  58.605 -55.441  1.00  0.00     0.117 A 
HETATM   23  N   UNL     1     -43.607  58.475 -55.827  1.00  0.00    -0.273 NA
HETATM   24  C   UNL     1     -44.463  57.944 -54.929  1.00  0.00     0.117 A 
HETATM   25  C   UNL     1     -44.096  57.543 -53.654  1.00  0.00     0.034 A 
ENDBRANCH   6  20
TORSDOF 4
ENDMDL
MODEL 6
REMARK VINA RESULT:      -7.1      2.555      4.902
REMARK  4 active torsions:
REMARK  status: ('A' for Active; 'I' for Inactive)
REMARK    1  A    between atoms: C_2  and  C_3 
REMARK    2  A    between atoms: C_3  and  N_4 
REMARK    3  A    between atoms: N_4  and  N_5 
REMARK    4  A    between atoms: C_10  and  C_11 
ROOT
HETATM    1  N   UNL     1     -42.939  56.868 -55.159  1.00  0.00    -0.231 N 
HETATM    2  C   UNL     1     -43.787  57.190 -54.116  1.00  0.00     0.211 A 
HETATM    3  S   UNL     1     -43.565  57.031 -52.481  1.00  0.00    -0.038 SA
HETATM    4  N   UNL     1     -44.927  57.708 -54.714  1.00  0.00    -0.250 N 
HETATM    5  N   UNL     1     -44.786  57.736 -56.075  1.00  0.00    -0.152 NA
HETATM    6  C   UNL     1     -43.592  57.247 -56.307  1.00  0.00     0.177 A 
HETATM    7  H   UNL     1     -45.754  58.065 -54.249  1.00  0.00     0.191 HD
ENDROOT
BRANCH   1   8
HETATM    8  N   UNL     1     -41.665  56.308 -55.009  1.00  0.00    -0.225 NA
HETATM    9  H   UNL     1     -41.453  56.319 -54.006  1.00  0.00     0.147 HD
BRANCH   8  10
HETATM   10  C   UNL     1     -41.634  54.907 -55.452  1.00  0.00     0.149 C 
BRANCH  10  11
HETATM   11  C   UNL     1     -41.100  54.007 -54.356  1.00  0.00    -0.041 A 
HETATM   12  C   UNL     1     -40.326  52.869 -54.686  1.00  0.00     0.011 A 
HETATM   13  C   UNL     1     -39.829  52.021 -53.690  1.00  0.00     0.040 A 
HETATM   14  C   UNL     1     -40.122  52.330 -52.379  1.00  0.00     0.105 A 
HETATM   15  C   UNL     1     -40.867  53.435 -52.046  1.00  0.00     0.105 A 
HETATM   16  O   UNL     1     -39.735  51.615 -51.289  1.00  0.00    -0.323 OA
HETATM   17  C   UNL     1     -41.361  54.293 -53.004  1.00  0.00     0.048 A 
HETATM   18  O   UNL     1     -41.045  53.556 -50.703  1.00  0.00    -0.323 OA
HETATM   19  C   UNL     1     -40.338  52.390 -50.231  1.00  0.00     0.352 A 
ENDBRANCH  10  11
ENDBRANCH   8  10
ENDBRANCH   1   8
BRANCH   6  20
HETATM   20  C   UNL     1     -43.053  57.117 -57.682  1.00  0.00     0.016 A 
HETATM   21  C   UNL     1     -43.432  55.991 -58.420  1.00  0.00     0.034 A 
HETATM   22  C   UNL     1     -42.954  55.852 -59.711  1.00  0.00     0.117 A 
HETATM   23  N   UNL     1     -42.136  56.745 -60.302  1.00  0.00    -0.273 NA
HETATM   24  C   UNL     1     -41.800  57.834 -59.579  1.00  0.00     0.117 A 
HETATM   25  C   UNL     1     -42.235  58.069 -58.285  1.00  0.00     0.034 A 
ENDBRANCH   6  20
TORSDOF 4
ENDMDL
MODEL 7
REMARK VINA RESULT:      -7.1      2.755      3.781
REMARK  4 active torsions:
REMARK  status: ('A' for Active; 'I' for Inactive)
REMARK    1  A    between atoms: C_2  and  C_3 
REMARK    2  A    between atoms: C_3  and  N_4 
REMARK    3  A    between atoms: N_4  and  N_5 
REMARK    4  A    between atoms: C_10  and  C_11 
ROOT
HETATM    1  N   UNL     1     -42.239  57.675 -54.858  1.00  0.00    -0.231 N 
HETATM    2  C   UNL     1     -42.537  57.893 -56.191  1.00  0.00     0.211 A 
HETATM    3  S   UNL     1     -43.222  56.874 -57.305  1.00  0.00    -0.038 SA
HETATM    4  N   UNL     1     -42.143  59.198 -56.448  1.00  0.00    -0.250 N 
HETATM    5  N   UNL     1     -41.646  59.782 -55.314  1.00  0.00    -0.152 NA
HETATM    6  C   UNL     1     -41.730  58.860 -54.386  1.00  0.00     0.177 A 
HETATM    7  H   UNL     1     -42.229  59.703 -57.322  1.00  0.00     0.191 HD
ENDROOT
BRANCH   1   8
HETATM    8  N   UNL     1     -42.471  56.476 -54.174  1.00  0.00    -0.225 NA
HETATM    9  H   UNL     1     -43.265  56.019 -54.637  1.00  0.00     0.147 HD
BRANCH   8  10
HETATM   10  C   UNL     1     -41.321  55.566 -54.270  1.00  0.00     0.149 C 
BRANCH  10  11
HETATM   11  C   UNL     1     -41.035  54.915 -52.932  1.00  0.00    -0.041 A 
HETATM   12  C   UNL     1     -40.490  53.610 -52.879  1.00  0.00     0.011 A 
HETATM   13  C   UNL     1     -40.224  52.988 -51.654  1.00  0.00     0.040 A 
HETATM   14  C   UNL     1     -40.514  53.687 -50.503  1.00  0.00     0.105 A 
HETATM   15  C   UNL     1     -41.037  54.957 -50.541  1.00  0.00     0.105 A 
HETATM   16  O   UNL     1     -40.334  53.237 -49.233  1.00  0.00    -0.323 OA
HETATM   17  C   UNL     1     -41.300  55.599 -51.732  1.00  0.00     0.048 A 
HETATM   18  O   UNL     1     -41.255  55.466 -49.299  1.00  0.00    -0.323 OA
HETATM   19  C   UNL     1     -40.821  54.364 -48.475  1.00  0.00     0.352 A 
ENDBRANCH  10  11
ENDBRANCH   8  10
ENDBRANCH   1   8
BRANCH   6  20
HETATM   20  C   UNL     1     -41.292  59.109 -52.992  1.00  0.00     0.016 A 
HETATM   21  C   UNL     1     -42.256  59.556 -52.083  1.00  0.00     0.034 A 
HETATM   22  C   UNL     1     -41.877  59.783 -50.772  1.00  0.00     0.117 A 
HETATM   23  N   UNL     1     -40.622  59.599 -50.317  1.00  0.00    -0.273 NA
HETATM   24  C   UNL     1     -39.712  59.148 -51.206  1.00  0.00     0.117 A 
HETATM   25  C   UNL     1     -39.996  58.881 -52.536  1.00  0.00     0.034 A 
ENDBRANCH   6  20
TORSDOF 4
ENDMDL
MODEL 8
REMARK VINA RESULT:      -7.0      3.682      6.482
REMARK  4 active torsions:
REMARK  status: ('A' for Active; 'I' for Inactive)
REMARK    1  A    between atoms: C_2  and  C_3 
REMARK    2  A    between atoms: C_3  and  N_4 
REMARK    3  A    between atoms: N_4  and  N_5 
REMARK    4  A    between atoms: C_10  and  C_11 
ROOT
HETATM    1  N   UNL     1     -40.686  54.195 -51.887  1.00  0.00    -0.231 N 
HETATM    2  C   UNL     1     -40.848  55.072 -50.830  1.00  0.00     0.211 A 
HETATM    3  S   UNL     1     -41.400  56.636 -50.824  1.00  0.00    -0.038 SA
HETATM    4  N   UNL     1     -40.446  54.370 -49.703  1.00  0.00    -0.250 N 
HETATM    5  N   UNL     1     -40.077  53.095 -50.037  1.00  0.00    -0.152 NA
HETATM    6  C   UNL     1     -40.244  53.017 -51.335  1.00  0.00     0.177 A 
HETATM    7  H   UNL     1     -40.448  54.698 -48.744  1.00  0.00     0.191 HD
ENDROOT
BRANCH   1   8
HETATM    8  N   UNL     1     -40.972  54.494 -53.223  1.00  0.00    -0.225 NA
HETATM    9  H   UNL     1     -40.439  53.830 -53.796  1.00  0.00     0.147 HD
BRANCH   8  10
HETATM   10  C   UNL     1     -42.395  54.298 -53.530  1.00  0.00     0.149 C 
BRANCH  10  11
HETATM   11  C   UNL     1     -42.850  55.252 -54.616  1.00  0.00    -0.041 A 
HETATM   12  C   UNL     1     -43.540  56.440 -54.275  1.00  0.00     0.011 A 
HETATM   13  C   UNL     1     -43.974  57.331 -55.263  1.00  0.00     0.040 A 
HETATM   14  C   UNL     1     -43.711  57.011 -56.576  1.00  0.00     0.105 A 
HETATM   15  C   UNL     1     -43.037  55.865 -56.920  1.00  0.00     0.105 A 
HETATM   16  O   UNL     1     -44.067  57.750 -57.661  1.00  0.00    -0.323 OA
HETATM   17  C   UNL     1     -42.588  54.973 -55.969  1.00  0.00     0.048 A 
HETATM   18  O   UNL     1     -42.884  55.735 -58.265  1.00  0.00    -0.323 OA
HETATM   19  C   UNL     1     -43.554  56.926 -58.729  1.00  0.00     0.352 A 
ENDBRANCH  10  11
ENDBRANCH   8  10
ENDBRANCH   1   8
BRANCH   6  20
HETATM   20  C   UNL     1     -39.955  51.774 -52.089  1.00  0.00     0.016 A 
HETATM   21  C   UNL     1     -39.787  50.598 -51.352  1.00  0.00     0.034 A 
HETATM   22  C   UNL     1     -39.530  49.420 -52.032  1.00  0.00     0.117 A 
HETATM   23  N   UNL     1     -39.431  49.342 -53.373  1.00  0.00    -0.273 NA
HETATM   24  C   UNL     1     -39.618  50.485 -54.066  1.00  0.00     0.117 A 
HETATM   25  C   UNL     1     -39.890  51.710 -53.479  1.00  0.00     0.034 A 
ENDBRANCH   6  20
TORSDOF 4
ENDMDL
MODEL 9
REMARK VINA RESULT:      -6.9     14.012     15.704
REMARK  4 active torsions:
REMARK  status: ('A' for Active; 'I' for Inactive)
REMARK    1  A    between atoms: C_2  and  C_3 
REMARK    2  A    between atoms: C_3  and  N_4 
REMARK    3  A    between atoms: N_4  and  N_5 
REMARK    4  A    between atoms: C_10  and  C_11 
ROOT
HETATM    1  N   UNL     1     -36.879  40.098 -59.023  1.00  0.00    -0.231 N 
HETATM    2  C   UNL     1     -37.207  40.291 -60.352  1.00  0.00     0.211 A 
HETATM    3  S   UNL     1     -37.401  39.180 -61.568  1.00  0.00    -0.038 SA
HETATM    4  N   UNL     1     -37.361  41.662 -60.499  1.00  0.00    -0.250 N 
HETATM    5  N   UNL     1     -37.166  42.298 -59.304  1.00  0.00    -0.152 NA
HETATM    6  C   UNL     1     -36.897  41.345 -58.445  1.00  0.00     0.177 A 
HETATM    7  H   UNL     1     -37.620  42.162 -61.342  1.00  0.00     0.191 HD
ENDROOT
BRANCH   1   8
HETATM    8  N   UNL     1     -36.629  38.854 -58.434  1.00  0.00    -0.225 NA
HETATM    9  H   UNL     1     -37.049  38.147 -59.047  1.00  0.00     0.147 HD
BRANCH   8  10
HETATM   10  C   UNL     1     -35.189  38.571 -58.355  1.00  0.00     0.149 C 
BRANCH  10  11
HETATM   11  C   UNL     1     -34.673  38.785 -56.947  1.00  0.00    -0.041 A 
HETATM   12  C   UNL     1     -35.409  38.300 -55.840  1.00  0.00     0.011 A 
HETATM   13  C   UNL     1     -34.954  38.493 -54.530  1.00  0.00     0.040 A 
HETATM   14  C   UNL     1     -33.768  39.173 -54.357  1.00  0.00     0.105 A 
HETATM   15  C   UNL     1     -33.041  39.642 -55.424  1.00  0.00     0.105 A 
HETATM   16  O   UNL     1     -33.185  39.461 -53.163  1.00  0.00    -0.323 OA
HETATM   17  C   UNL     1     -33.459  39.459 -56.724  1.00  0.00     0.048 A 
HETATM   18  O   UNL     1     -31.908  40.287 -55.037  1.00  0.00    -0.323 OA
HETATM   19  C   UNL     1     -32.014  40.182 -53.601  1.00  0.00     0.352 A 
ENDBRANCH  10  11
ENDBRANCH   8  10
ENDBRANCH   1   8
BRANCH   6  20
HETATM   20  C   UNL     1     -36.628  41.630 -57.016  1.00  0.00     0.016 A 
HETATM   21  C   UNL     1     -35.451  42.317 -56.705  1.00  0.00     0.034 A 
HETATM   22  C   UNL     1     -35.182  42.608 -55.379  1.00  0.00     0.117 A 
HETATM   23  N   UNL     1     -35.997  42.265 -54.362  1.00  0.00    -0.273 NA
HETATM   24  C   UNL     1     -37.138  41.621 -54.686  1.00  0.00     0.117 A 
HETATM   25  C   UNL     1     -37.500  41.295 -55.983  1.00  0.00     0.034 A 
ENDBRANCH   6  20
TORSDOF 4
ENDMDL
MODEL 10
REMARK VINA RESULT:      -6.8      3.007      4.796
REMARK  4 active torsions:
REMARK  status: ('A' for Active; 'I' for Inactive)
REMARK    1  A    between atoms: C_2  and  C_3 
REMARK    2  A    between atoms: C_3  and  N_4 
REMARK    3  A    between atoms: N_4  and  N_5 
REMARK    4  A    between atoms: C_10  and  C_11 
ROOT
HETATM    1  N   UNL     1     -43.169  58.890 -53.480  1.00  0.00    -0.231 N 
HETATM    2  C   UNL     1     -43.065  60.267 -53.419  1.00  0.00     0.211 A 
HETATM    3  S   UNL     1     -43.928  61.356 -52.514  1.00  0.00    -0.038 SA
HETATM    4  N   UNL     1     -42.043  60.600 -54.296  1.00  0.00    -0.250 N 
HETATM    5  N   UNL     1     -41.510  59.473 -54.862  1.00  0.00    -0.152 NA
HETATM    6  C   UNL     1     -42.188  58.475 -54.348  1.00  0.00     0.177 A 
HETATM    7  H   UNL     1     -41.682  61.526 -54.492  1.00  0.00     0.191 HD
ENDROOT
BRANCH   1   8
HETATM    8  N   UNL     1     -44.085  58.124 -52.750  1.00  0.00    -0.225 NA
HETATM    9  H   UNL     1     -44.142  57.210 -53.212  1.00  0.00     0.147 HD
BRANCH   8  10
HETATM   10  C   UNL     1     -43.624  57.895 -51.374  1.00  0.00     0.149 C 
BRANCH  10  11
HETATM   11  C   UNL     1     -42.948  56.545 -51.250  1.00  0.00    -0.041 A 
HETATM   12  C   UNL     1     -43.522  55.404 -51.859  1.00  0.00     0.011 A 
HETATM   13  C   UNL     1     -42.917  54.146 -51.751  1.00  0.00     0.040 A 
HETATM   14  C   UNL     1     -41.747  54.057 -51.029  1.00  0.00     0.105 A 
HETATM   15  C   UNL     1     -41.176  55.158 -50.438  1.00  0.00     0.105 A 
HETATM   16  O   UNL     1     -41.033  52.921 -50.810  1.00  0.00    -0.323 OA
HETATM   17  C   UNL     1     -41.743  56.411 -50.536  1.00  0.00     0.048 A 
HETATM   18  O   UNL     1     -40.030  54.855 -49.771  1.00  0.00    -0.323 OA
HETATM   19  C   UNL     1     -39.954  53.432 -49.998  1.00  0.00     0.352 A 
ENDBRANCH  10  11
ENDBRANCH   8  10
ENDBRANCH   1   8
BRANCH   6  20
HETATM   20  C   UNL     1     -41.902  57.066 -54.708  1.00  0.00     0.016 A 
HETATM   21  C   UNL     1     -40.776  56.469 -54.134  1.00  0.00     0.034 A 
HETATM   22  C   UNL     1     -40.493  55.150 -54.443  1.00  0.00     0.117 A 
HETATM   23  N   UNL     1     -41.247  54.403 -55.273  1.00  0.00    -0.273 NA
HETATM   24  C   UNL     1     -42.341  54.993 -55.800  1.00  0.00     0.117 A 
HETATM   25  C   UNL     1     -42.713  56.302 -55.544  1.00  0.00     0.034 A 
ENDBRANCH   6  20
TORSDOF 4
ENDMDL
