MODEL 1
REMARK VINA RESULT:      -9.4      0.000      0.000
REMARK  2 active torsions:
REMARK  status: ('A' for Active; 'I' for Inactive)
REMARK    1  A    between atoms: C_4  and  C_5 
REMARK       I    between atoms: N_12  and  C_13 
REMARK    2  A    between atoms: C_13  and  C_14 
ROOT
HETATM    1  C   UNL     1     -40.390  52.735 -51.117  1.00  0.00     0.070 A 
HETATM    2  N   UNL     1     -40.432  52.468 -49.769  1.00  0.00    -0.277 N 
HETATM    3  H   UNL     1     -40.240  51.585 -49.310  1.00  0.00     0.189 HD
HETATM    4  N   UNL     1     -40.746  53.530 -49.003  1.00  0.00    -0.178 NA
HETATM    5  C   UNL     1     -40.915  54.507 -49.893  1.00  0.00     0.066 A 
HETATM    6  C   UNL     1     -40.705  54.078 -51.223  1.00  0.00     0.015 A 
HETATM    7  C   UNL     1     -40.835  54.964 -52.410  1.00  0.00     0.169 C 
HETATM    8  N   UNL     1     -41.343  56.292 -52.013  1.00  0.00    -0.343 N 
HETATM    9  C   UNL     1     -42.159  57.088 -52.812  1.00  0.00     0.254 C 
HETATM   10  O   UNL     1     -42.656  58.147 -52.439  1.00  0.00    -0.267 OA
HETATM   11  C   UNL     1     -40.902  56.822 -50.708  1.00  0.00     0.132 C 
HETATM   12  C   UNL     1     -41.294  55.898 -49.544  1.00  0.00     0.081 C 
ENDROOT
BRANCH   9  13
HETATM   13  C   UNL     1     -42.467  56.646 -54.190  1.00  0.00     0.035 A 
HETATM   14  C   UNL     1     -42.252  57.501 -55.278  1.00  0.00     0.056 A 
HETATM   15  C   UNL     1     -42.550  57.011 -56.531  1.00  0.00     0.106 A 
HETATM   16  C   UNL     1     -43.065  55.747 -56.716  1.00  0.00     0.105 A 
HETATM   17  O   UNL     1     -42.383  57.680 -57.704  1.00  0.00    -0.323 OA
HETATM   18  O   UNL     1     -43.284  55.465 -58.028  1.00  0.00    -0.323 OA
HETATM   19  C   UNL     1     -43.318  54.900 -55.657  1.00  0.00     0.041 A 
HETATM   20  C   UNL     1     -42.843  56.690 -58.649  1.00  0.00     0.352 A 
HETATM   21  C   UNL     1     -43.017  55.360 -54.374  1.00  0.00     0.020 A 
ENDBRANCH   9  13
BRANCH   1  22
HETATM   22  C   UNL     1     -40.059  51.731 -52.121  1.00  0.00    -0.007 A 
HETATM   23  C   UNL     1     -39.630  50.453 -51.737  1.00  0.00     0.014 A 
HETATM   24  C   UNL     1     -39.320  49.491 -52.701  1.00  0.00     0.001 A 
HETATM   25  C   UNL     1     -39.435  49.797 -54.056  1.00  0.00     0.000 A 
HETATM   26  C   UNL     1     -39.859  51.065 -54.448  1.00  0.00     0.001 A 
HETATM   27  C   UNL     1     -40.170  52.027 -53.485  1.00  0.00     0.014 A 
ENDBRANCH   1  22
TORSDOF 2
ENDMDL
MODEL 2
REMARK VINA RESULT:      -9.0      1.445      2.206
REMARK  2 active torsions:
REMARK  status: ('A' for Active; 'I' for Inactive)
REMARK    1  A    between atoms: C_4  and  C_5 
REMARK       I    between atoms: N_12  and  C_13 
REMARK    2  A    between atoms: C_13  and  C_14 
ROOT
HETATM    1  C   UNL     1     -40.991  54.677 -51.659  1.00  0.00     0.070 A 
HETATM    2  N   UNL     1     -41.210  54.731 -50.303  1.00  0.00    -0.277 N 
HETATM    3  H   UNL     1     -41.114  53.977 -49.633  1.00  0.00     0.189 HD
HETATM    4  N   UNL     1     -41.571  55.946 -49.847  1.00  0.00    -0.178 NA
HETATM    5  C   UNL     1     -41.587  56.691 -50.952  1.00  0.00     0.066 A 
HETATM    6  C   UNL     1     -41.233  55.962 -52.109  1.00  0.00     0.015 A 
HETATM    7  C   UNL     1     -41.178  56.549 -53.475  1.00  0.00     0.169 C 
HETATM    8  N   UNL     1     -41.675  57.939 -53.461  1.00  0.00    -0.343 N 
HETATM    9  C   UNL     1     -42.351  58.538 -54.520  1.00  0.00     0.254 C 
HETATM   10  O   UNL     1     -42.846  59.661 -54.468  1.00  0.00    -0.267 OA
HETATM   11  C   UNL     1     -41.376  58.753 -52.267  1.00  0.00     0.132 C 
HETATM   12  C   UNL     1     -41.947  58.130 -50.983  1.00  0.00     0.081 C 
ENDROOT
BRANCH   9  13
HETATM   13  C   UNL     1     -42.506  57.792 -55.788  1.00  0.00     0.035 A 
HETATM   14  C   UNL     1     -42.200  58.397 -57.014  1.00  0.00     0.056 A 
HETATM   15  C   UNL     1     -42.356  57.631 -58.149  1.00  0.00     0.106 A 
HETATM   16  C   UNL     1     -42.820  56.336 -58.097  1.00  0.00     0.105 A 
HETATM   17  O   UNL     1     -42.084  58.034 -59.420  1.00  0.00    -0.323 OA
HETATM   18  O   UNL     1     -42.896  55.764 -59.328  1.00  0.00    -0.323 OA
HETATM   19  C   UNL     1     -43.162  55.730 -56.905  1.00  0.00     0.041 A 
HETATM   20  C   UNL     1     -42.422  56.842 -60.160  1.00  0.00     0.352 A 
HETATM   21  C   UNL     1     -43.005  56.474 -55.733  1.00  0.00     0.020 A 
ENDBRANCH   9  13
BRANCH   1  22
HETATM   22  C   UNL     1     -40.581  53.463 -52.354  1.00  0.00    -0.007 A 
HETATM   23  C   UNL     1     -40.949  53.246 -53.689  1.00  0.00     0.014 A 
HETATM   24  C   UNL     1     -40.548  52.084 -54.354  1.00  0.00     0.001 A 
HETATM   25  C   UNL     1     -39.779  51.130 -53.691  1.00  0.00     0.000 A 
HETATM   26  C   UNL     1     -39.410  51.335 -52.364  1.00  0.00     0.001 A 
HETATM   27  C   UNL     1     -39.809  52.496 -51.698  1.00  0.00     0.014 A 
ENDBRANCH   1  22
TORSDOF 2
ENDMDL
MODEL 3
REMARK VINA RESULT:      -8.9      2.396      3.852
REMARK  2 active torsions:
REMARK  status: ('A' for Active; 'I' for Inactive)
REMARK    1  A    between atoms: C_4  and  C_5 
REMARK       I    between atoms: N_12  and  C_13 
REMARK    2  A    between atoms: C_13  and  C_14 
ROOT
HETATM    1  C   UNL     1     -43.151  55.528 -52.074  1.00  0.00     0.070 A 
HETATM    2  N   UNL     1     -43.907  55.380 -50.935  1.00  0.00    -0.277 N 
HETATM    3  H   UNL     1     -43.927  54.584 -50.308  1.00  0.00     0.189 HD
HETATM    4  N   UNL     1     -44.680  56.443 -50.640  1.00  0.00    -0.178 NA
HETATM    5  C   UNL     1     -44.410  57.297 -51.628  1.00  0.00     0.066 A 
HETATM    6  C   UNL     1     -43.466  56.788 -52.548  1.00  0.00     0.015 A 
HETATM    7  C   UNL     1     -42.993  57.531 -53.746  1.00  0.00     0.169 C 
HETATM    8  N   UNL     1     -43.745  58.791 -53.905  1.00  0.00    -0.343 N 
HETATM    9  C   UNL     1     -44.047  59.372 -55.134  1.00  0.00     0.254 C 
HETATM   10  O   UNL     1     -44.755  60.367 -55.263  1.00  0.00    -0.267 OA
HETATM   11  C   UNL     1     -44.144  59.501 -52.674  1.00  0.00     0.132 C 
HETATM   12  C   UNL     1     -45.034  58.636 -51.768  1.00  0.00     0.081 C 
ENDROOT
BRANCH   9  13
HETATM   13  C   UNL     1     -43.506  58.764 -56.369  1.00  0.00     0.035 A 
HETATM   14  C   UNL     1     -44.077  57.600 -56.900  1.00  0.00     0.056 A 
HETATM   15  C   UNL     1     -43.525  57.103 -58.061  1.00  0.00     0.106 A 
HETATM   16  C   UNL     1     -42.441  57.699 -58.666  1.00  0.00     0.105 A 
HETATM   17  O   UNL     1     -43.958  56.005 -58.737  1.00  0.00    -0.323 OA
HETATM   18  O   UNL     1     -42.060  57.049 -59.799  1.00  0.00    -0.323 OA
HETATM   19  C   UNL     1     -41.840  58.824 -58.143  1.00  0.00     0.041 A 
HETATM   20  C   UNL     1     -43.029  55.982 -59.841  1.00  0.00     0.352 A 
HETATM   21  C   UNL     1     -42.380  59.362 -56.973  1.00  0.00     0.020 A 
ENDBRANCH   9  13
BRANCH   1  22
HETATM   22  C   UNL     1     -42.238  54.503 -52.565  1.00  0.00    -0.007 A 
HETATM   23  C   UNL     1     -42.356  54.008 -53.870  1.00  0.00     0.014 A 
HETATM   24  C   UNL     1     -41.474  53.031 -54.339  1.00  0.00     0.001 A 
HETATM   25  C   UNL     1     -40.470  52.539 -53.508  1.00  0.00     0.000 A 
HETATM   26  C   UNL     1     -40.346  53.022 -52.208  1.00  0.00     0.001 A 
HETATM   27  C   UNL     1     -41.226  54.000 -51.738  1.00  0.00     0.014 A 
ENDBRANCH   1  22
TORSDOF 2
ENDMDL
MODEL 4
REMARK VINA RESULT:      -8.8      2.664      6.003
REMARK  2 active torsions:
REMARK  status: ('A' for Active; 'I' for Inactive)
REMARK    1  A    between atoms: C_4  and  C_5 
REMARK       I    between atoms: N_12  and  C_13 
REMARK    2  A    between atoms: C_13  and  C_14 
ROOT
HETATM    1  C   UNL     1     -41.931  56.898 -53.827  1.00  0.00     0.070 A 
HETATM    2  N   UNL     1     -41.752  58.258 -53.733  1.00  0.00    -0.277 N 
HETATM    3  H   UNL     1     -41.914  58.952 -54.453  1.00  0.00     0.189 HD
HETATM    4  N   UNL     1     -41.334  58.679 -52.524  1.00  0.00    -0.178 NA
HETATM    5  C   UNL     1     -41.239  57.548 -51.825  1.00  0.00     0.066 A 
HETATM    6  C   UNL     1     -41.600  56.408 -52.577  1.00  0.00     0.015 A 
HETATM    7  C   UNL     1     -41.577  55.021 -52.043  1.00  0.00     0.169 C 
HETATM    8  N   UNL     1     -40.999  54.998 -50.684  1.00  0.00    -0.343 N 
HETATM    9  C   UNL     1     -40.256  53.940 -50.168  1.00  0.00     0.254 C 
HETATM   10  O   UNL     1     -39.698  53.967 -49.075  1.00  0.00    -0.267 OA
HETATM   11  C   UNL     1     -41.286  56.150 -49.808  1.00  0.00     0.132 C 
HETATM   12  C   UNL     1     -40.793  57.475 -50.412  1.00  0.00     0.081 C 
ENDROOT
BRANCH   9  13
HETATM   13  C   UNL     1     -40.107  52.707 -50.972  1.00  0.00     0.035 A 
HETATM   14  C   UNL     1     -40.034  52.772 -52.369  1.00  0.00     0.056 A 
HETATM   15  C   UNL     1     -39.880  51.581 -53.046  1.00  0.00     0.106 A 
HETATM   16  C   UNL     1     -39.829  50.371 -52.390  1.00  0.00     0.105 A 
HETATM   17  O   UNL     1     -39.763  51.445 -54.394  1.00  0.00    -0.323 OA
HETATM   18  O   UNL     1     -39.671  49.326 -53.246  1.00  0.00    -0.323 OA
HETATM   19  C   UNL     1     -39.934  50.279 -51.018  1.00  0.00     0.041 A 
HETATM   20  C   UNL     1     -39.624  50.013 -54.512  1.00  0.00     0.352 A 
HETATM   21  C   UNL     1     -40.079  51.468 -50.299  1.00  0.00     0.020 A 
ENDBRANCH   9  13
BRANCH   1  22
HETATM   22  C   UNL     1     -42.391  56.236 -55.043  1.00  0.00    -0.007 A 
HETATM   23  C   UNL     1     -42.807  54.899 -55.013  1.00  0.00     0.014 A 
HETATM   24  C   UNL     1     -43.253  54.269 -56.178  1.00  0.00     0.001 A 
HETATM   25  C   UNL     1     -43.287  54.971 -57.381  1.00  0.00     0.000 A 
HETATM   26  C   UNL     1     -42.873  56.300 -57.422  1.00  0.00     0.001 A 
HETATM   27  C   UNL     1     -42.428  56.930 -56.258  1.00  0.00     0.014 A 
ENDBRANCH   1  22
TORSDOF 2
ENDMDL
MODEL 5
REMARK VINA RESULT:      -8.8      2.585      4.083
REMARK  2 active torsions:
REMARK  status: ('A' for Active; 'I' for Inactive)
REMARK    1  A    between atoms: C_4  and  C_5 
REMARK       I    between atoms: N_12  and  C_13 
REMARK    2  A    between atoms: C_13  and  C_14 
ROOT
HETATM    1  C   UNL     1     -41.646  56.375 -52.854  1.00  0.00     0.070 A 
HETATM    2  N   UNL     1     -41.964  56.583 -51.533  1.00  0.00    -0.277 N 
HETATM    3  H   UNL     1     -41.878  55.925 -50.767  1.00  0.00     0.189 HD
HETATM    4  N   UNL     1     -42.419  57.822 -51.260  1.00  0.00    -0.178 NA
HETATM    5  C   UNL     1     -42.393  58.422 -52.450  1.00  0.00     0.066 A 
HETATM    6  C   UNL     1     -41.920  57.578 -53.479  1.00  0.00     0.015 A 
HETATM    7  C   UNL     1     -41.797  57.993 -54.902  1.00  0.00     0.169 C 
HETATM    8  N   UNL     1     -42.364  59.342 -55.098  1.00  0.00    -0.343 N 
HETATM    9  C   UNL     1     -42.991  59.764 -56.267  1.00  0.00     0.254 C 
HETATM   10  O   UNL     1     -43.545  60.852 -56.390  1.00  0.00    -0.267 OA
HETATM   11  C   UNL     1     -42.194  60.314 -54.001  1.00  0.00     0.132 C 
HETATM   12  C   UNL     1     -42.824  59.822 -52.687  1.00  0.00     0.081 C 
ENDROOT
BRANCH   9  13
HETATM   13  C   UNL     1     -43.016  58.858 -57.437  1.00  0.00     0.035 A 
HETATM   14  C   UNL     1     -44.105  58.004 -57.654  1.00  0.00     0.056 A 
HETATM   15  C   UNL     1     -44.060  57.202 -58.774  1.00  0.00     0.106 A 
HETATM   16  C   UNL     1     -42.984  57.208 -59.633  1.00  0.00     0.105 A 
HETATM   17  O   UNL     1     -45.031  56.333 -59.165  1.00  0.00    -0.323 OA
HETATM   18  O   UNL     1     -43.145  56.345 -60.671  1.00  0.00    -0.323 OA
HETATM   19  C   UNL     1     -41.884  58.014 -59.420  1.00  0.00     0.041 A 
HETATM   20  C   UNL     1     -44.447  55.799 -60.373  1.00  0.00     0.352 A 
HETATM   21  C   UNL     1     -41.901  58.849 -58.300  1.00  0.00     0.020 A 
ENDBRANCH   9  13
BRANCH   1  22
HETATM   22  C   UNL     1     -41.125  55.111 -53.360  1.00  0.00    -0.007 A 
HETATM   23  C   UNL     1     -41.072  53.979 -52.535  1.00  0.00     0.014 A 
HETATM   24  C   UNL     1     -40.579  52.767 -53.025  1.00  0.00     0.001 A 
HETATM   25  C   UNL     1     -40.135  52.676 -54.343  1.00  0.00     0.000 A 
HETATM   26  C   UNL     1     -40.181  53.795 -55.170  1.00  0.00     0.001 A 
HETATM   27  C   UNL     1     -40.674  55.007 -54.681  1.00  0.00     0.014 A 
ENDBRANCH   1  22
TORSDOF 2
ENDMDL
MODEL 6
REMARK VINA RESULT:      -8.6      2.997      7.052
REMARK  2 active torsions:
REMARK  status: ('A' for Active; 'I' for Inactive)
REMARK    1  A    between atoms: C_4  and  C_5 
REMARK       I    between atoms: N_12  and  C_13 
REMARK    2  A    between atoms: C_13  and  C_14 
ROOT
HETATM    1  C   UNL     1     -42.240  59.066 -53.174  1.00  0.00     0.070 A 
HETATM    2  N   UNL     1     -43.224  60.003 -53.384  1.00  0.00    -0.277 N 
HETATM    3  H   UNL     1     -43.325  60.903 -52.928  1.00  0.00     0.189 HD
HETATM    4  N   UNL     1     -44.125  59.660 -54.324  1.00  0.00    -0.178 NA
HETATM    5  C   UNL     1     -43.704  58.461 -54.724  1.00  0.00     0.066 A 
HETATM    6  C   UNL     1     -42.537  58.038 -54.050  1.00  0.00     0.015 A 
HETATM    7  C   UNL     1     -41.860  56.737 -54.299  1.00  0.00     0.169 C 
HETATM    8  N   UNL     1     -42.653  55.911 -55.231  1.00  0.00    -0.343 N 
HETATM    9  C   UNL     1     -42.709  54.521 -55.189  1.00  0.00     0.254 C 
HETATM   10  O   UNL     1     -43.444  53.845 -55.904  1.00  0.00    -0.267 OA
HETATM   11  C   UNL     1     -43.379  56.613 -56.307  1.00  0.00     0.132 C 
HETATM   12  C   UNL     1     -44.383  57.639 -55.756  1.00  0.00     0.081 C 
ENDROOT
BRANCH   9  13
HETATM   13  C   UNL     1     -41.851  53.795 -54.227  1.00  0.00     0.035 A 
HETATM   14  C   UNL     1     -42.066  53.918 -52.848  1.00  0.00     0.056 A 
HETATM   15  C   UNL     1     -41.234  53.199 -52.017  1.00  0.00     0.106 A 
HETATM   16  C   UNL     1     -40.215  52.413 -52.506  1.00  0.00     0.105 A 
HETATM   17  O   UNL     1     -41.306  53.168 -50.658  1.00  0.00    -0.323 OA
HETATM   18  O   UNL     1     -39.520  51.791 -51.517  1.00  0.00    -0.323 OA
HETATM   19  C   UNL     1     -39.962  52.305 -53.858  1.00  0.00     0.041 A 
HETATM   20  C   UNL     1     -40.220  52.268 -50.349  1.00  0.00     0.352 A 
HETATM   21  C   UNL     1     -40.793  53.012 -54.731  1.00  0.00     0.020 A 
ENDBRANCH   9  13
BRANCH   1  22
HETATM   22  C   UNL     1     -41.161  59.244 -52.210  1.00  0.00    -0.007 A 
HETATM   23  C   UNL     1     -41.438  59.635 -50.893  1.00  0.00     0.014 A 
HETATM   24  C   UNL     1     -40.401  59.798 -49.970  1.00  0.00     0.001 A 
HETATM   25  C   UNL     1     -39.081  59.572 -50.355  1.00  0.00     0.000 A 
HETATM   26  C   UNL     1     -38.795  59.186 -51.663  1.00  0.00     0.001 A 
HETATM   27  C   UNL     1     -39.831  59.022 -52.586  1.00  0.00     0.014 A 
ENDBRANCH   1  22
TORSDOF 2
ENDMDL
MODEL 7
REMARK VINA RESULT:      -8.5      2.775      6.598
REMARK  2 active torsions:
REMARK  status: ('A' for Active; 'I' for Inactive)
REMARK    1  A    between atoms: C_4  and  C_5 
REMARK       I    between atoms: N_12  and  C_13 
REMARK    2  A    between atoms: C_13  and  C_14 
ROOT
HETATM    1  C   UNL     1     -42.185  58.253 -56.072  1.00  0.00     0.070 A 
HETATM    2  N   UNL     1     -41.990  59.613 -56.040  1.00  0.00    -0.277 N 
HETATM    3  H   UNL     1     -41.990  60.254 -56.826  1.00  0.00     0.189 HD
HETATM    4  N   UNL     1     -41.801  60.118 -54.806  1.00  0.00    -0.178 NA
HETATM    5  C   UNL     1     -41.874  59.041 -54.024  1.00  0.00     0.066 A 
HETATM    6  C   UNL     1     -42.114  57.854 -54.750  1.00  0.00     0.015 A 
HETATM    7  C   UNL     1     -42.233  56.509 -54.124  1.00  0.00     0.169 C 
HETATM    8  N   UNL     1     -41.928  56.581 -52.681  1.00  0.00    -0.343 N 
HETATM    9  C   UNL     1     -41.328  55.555 -51.957  1.00  0.00     0.254 C 
HETATM   10  O   UNL     1     -40.990  55.656 -50.781  1.00  0.00    -0.267 OA
HETATM   11  C   UNL     1     -42.347  57.799 -51.961  1.00  0.00     0.132 C 
HETATM   12  C   UNL     1     -41.711  59.069 -52.549  1.00  0.00     0.081 C 
ENDROOT
BRANCH   9  13
HETATM   13  C   UNL     1     -41.061  54.263 -52.627  1.00  0.00     0.035 A 
HETATM   14  C   UNL     1     -40.274  53.286 -52.004  1.00  0.00     0.056 A 
HETATM   15  C   UNL     1     -40.083  52.104 -52.687  1.00  0.00     0.106 A 
HETATM   16  C   UNL     1     -40.613  51.892 -53.939  1.00  0.00     0.105 A 
HETATM   17  O   UNL     1     -39.376  51.033 -52.234  1.00  0.00    -0.323 OA
HETATM   18  O   UNL     1     -40.306  50.660 -54.429  1.00  0.00    -0.323 OA
HETATM   19  C   UNL     1     -41.361  52.852 -54.588  1.00  0.00     0.041 A 
HETATM   20  C   UNL     1     -39.529  50.120 -53.341  1.00  0.00     0.352 A 
HETATM   21  C   UNL     1     -41.584  54.059 -53.921  1.00  0.00     0.020 A 
ENDBRANCH   9  13
BRANCH   1  22
HETATM   22  C   UNL     1     -42.419  57.508 -57.303  1.00  0.00    -0.007 A 
HETATM   23  C   UNL     1     -43.073  56.269 -57.274  1.00  0.00     0.014 A 
HETATM   24  C   UNL     1     -43.302  55.561 -58.457  1.00  0.00     0.001 A 
HETATM   25  C   UNL     1     -42.881  56.085 -59.677  1.00  0.00     0.000 A 
HETATM   26  C   UNL     1     -42.229  57.315 -59.717  1.00  0.00     0.001 A 
HETATM   27  C   UNL     1     -41.999  58.024 -58.535  1.00  0.00     0.014 A 
ENDBRANCH   1  22
TORSDOF 2
ENDMDL
MODEL 8
REMARK VINA RESULT:      -8.4     14.002     16.048
REMARK  2 active torsions:
REMARK  status: ('A' for Active; 'I' for Inactive)
REMARK    1  A    between atoms: C_4  and  C_5 
REMARK       I    between atoms: N_12  and  C_13 
REMARK    2  A    between atoms: C_13  and  C_14 
ROOT
HETATM    1  C   UNL     1     -33.668  39.569 -53.544  1.00  0.00     0.070 A 
HETATM    2  N   UNL     1     -33.584  39.104 -52.253  1.00  0.00    -0.277 N 
HETATM    3  H   UNL     1     -32.800  38.629 -51.819  1.00  0.00     0.189 HD
HETATM    4  N   UNL     1     -34.677  39.344 -51.504  1.00  0.00    -0.178 NA
HETATM    5  C   UNL     1     -35.489  39.980 -52.349  1.00  0.00     0.066 A 
HETATM    6  C   UNL     1     -34.919  40.153 -53.629  1.00  0.00     0.015 A 
HETATM    7  C   UNL     1     -35.611  40.825 -54.762  1.00  0.00     0.169 C 
HETATM    8  N   UNL     1     -37.005  41.148 -54.398  1.00  0.00    -0.343 N 
HETATM    9  C   UNL     1     -38.066  41.157 -55.298  1.00  0.00     0.254 C 
HETATM   10  O   UNL     1     -39.237  41.333 -54.972  1.00  0.00    -0.267 OA
HETATM   11  C   UNL     1     -37.264  41.545 -53.000  1.00  0.00     0.132 C 
HETATM   12  C   UNL     1     -36.852  40.452 -52.001  1.00  0.00     0.081 C 
ENDROOT
BRANCH   9  13
HETATM   13  C   UNL     1     -37.792  40.931 -56.735  1.00  0.00     0.035 A 
HETATM   14  C   UNL     1     -37.986  39.668 -57.307  1.00  0.00     0.056 A 
HETATM   15  C   UNL     1     -37.723  39.541 -58.654  1.00  0.00     0.106 A 
HETATM   16  C   UNL     1     -37.261  40.596 -59.409  1.00  0.00     0.105 A 
HETATM   17  O   UNL     1     -37.878  38.406 -59.388  1.00  0.00    -0.323 OA
HETATM   18  O   UNL     1     -37.070  40.255 -60.711  1.00  0.00    -0.323 OA
HETATM   19  C   UNL     1     -37.029  41.840 -58.860  1.00  0.00     0.041 A 
HETATM   20  C   UNL     1     -37.469  38.869 -60.693  1.00  0.00     0.352 A 
HETATM   21  C   UNL     1     -37.295  42.007 -57.499  1.00  0.00     0.020 A 
ENDBRANCH   9  13
BRANCH   1  22
HETATM   22  C   UNL     1     -32.592  39.424 -54.516  1.00  0.00    -0.007 A 
HETATM   23  C   UNL     1     -32.556  40.225 -55.666  1.00  0.00     0.014 A 
HETATM   24  C   UNL     1     -31.519  40.088 -56.592  1.00  0.00     0.001 A 
HETATM   25  C   UNL     1     -30.510  39.152 -56.378  1.00  0.00     0.000 A 
HETATM   26  C   UNL     1     -30.537  38.350 -55.239  1.00  0.00     0.001 A 
HETATM   27  C   UNL     1     -31.573  38.486 -54.313  1.00  0.00     0.014 A 
ENDBRANCH   1  22
TORSDOF 2
ENDMDL
MODEL 9
REMARK VINA RESULT:      -8.4      3.901      7.776
REMARK  2 active torsions:
REMARK  status: ('A' for Active; 'I' for Inactive)
REMARK    1  A    between atoms: C_4  and  C_5 
REMARK       I    between atoms: N_12  and  C_13 
REMARK    2  A    between atoms: C_13  and  C_14 
ROOT
HETATM    1  C   UNL     1     -43.126  58.148 -59.404  1.00  0.00     0.070 A 
HETATM    2  N   UNL     1     -42.618  58.936 -60.409  1.00  0.00    -0.277 N 
HETATM    3  H   UNL     1     -42.695  58.786 -61.409  1.00  0.00     0.189 HD
HETATM    4  N   UNL     1     -41.969  60.035 -59.978  1.00  0.00    -0.178 NA
HETATM    5  C   UNL     1     -42.064  59.942 -58.652  1.00  0.00     0.066 A 
HETATM    6  C   UNL     1     -42.773  58.794 -58.233  1.00  0.00     0.015 A 
HETATM    7  C   UNL     1     -43.018  58.444 -56.809  1.00  0.00     0.169 C 
HETATM    8  N   UNL     1     -42.303  59.378 -55.916  1.00  0.00    -0.343 N 
HETATM    9  C   UNL     1     -41.777  59.026 -54.676  1.00  0.00     0.254 C 
HETATM   10  O   UNL     1     -41.101  59.780 -53.982  1.00  0.00    -0.267 OA
HETATM   11  C   UNL     1     -42.200  60.784 -56.350  1.00  0.00     0.132 C 
HETATM   12  C   UNL     1     -41.482  60.923 -57.702  1.00  0.00     0.081 C 
ENDROOT
BRANCH   9  13
HETATM   13  C   UNL     1     -42.024  57.664 -54.151  1.00  0.00     0.035 A 
HETATM   14  C   UNL     1     -41.046  56.668 -54.266  1.00  0.00     0.056 A 
HETATM   15  C   UNL     1     -41.345  55.431 -53.739  1.00  0.00     0.106 A 
HETATM   16  C   UNL     1     -42.560  55.164 -53.149  1.00  0.00     0.105 A 
HETATM   17  O   UNL     1     -40.516  54.352 -53.730  1.00  0.00    -0.323 OA
HETATM   18  O   UNL     1     -42.645  53.884 -52.695  1.00  0.00    -0.323 OA
HETATM   19  C   UNL     1     -43.552  56.118 -53.056  1.00  0.00     0.041 A 
HETATM   20  C   UNL     1     -41.345  53.378 -53.060  1.00  0.00     0.352 A 
HETATM   21  C   UNL     1     -43.278  57.388 -53.570  1.00  0.00     0.020 A 
ENDBRANCH   9  13
BRANCH   1  22
HETATM   22  C   UNL     1     -43.873  56.920 -59.652  1.00  0.00    -0.007 A 
HETATM   23  C   UNL     1     -45.140  56.964 -60.248  1.00  0.00     0.014 A 
HETATM   24  C   UNL     1     -45.850  55.785 -60.490  1.00  0.00     0.001 A 
HETATM   25  C   UNL     1     -45.299  54.554 -60.140  1.00  0.00     0.000 A 
HETATM   26  C   UNL     1     -44.040  54.500 -59.546  1.00  0.00     0.001 A 
HETATM   27  C   UNL     1     -43.330  55.678 -59.303  1.00  0.00     0.014 A 
ENDBRANCH   1  22
TORSDOF 2
ENDMDL
MODEL 10
REMARK VINA RESULT:      -8.3      2.690      4.178
REMARK  2 active torsions:
REMARK  status: ('A' for Active; 'I' for Inactive)
REMARK    1  A    between atoms: C_4  and  C_5 
REMARK       I    between atoms: N_12  and  C_13 
REMARK    2  A    between atoms: C_13  and  C_14 
ROOT
HETATM    1  C   UNL     1     -43.419  55.880 -52.243  1.00  0.00     0.070 A 
HETATM    2  N   UNL     1     -44.024  55.765 -51.014  1.00  0.00    -0.277 N 
HETATM    3  H   UNL     1     -43.947  54.996 -50.359  1.00  0.00     0.189 HD
HETATM    4  N   UNL     1     -44.782  56.824 -50.668  1.00  0.00    -0.178 NA
HETATM    5  C   UNL     1     -44.658  57.640 -51.715  1.00  0.00     0.066 A 
HETATM    6  C   UNL     1     -43.823  57.113 -52.724  1.00  0.00     0.015 A 
HETATM    7  C   UNL     1     -43.520  57.813 -54.001  1.00  0.00     0.169 C 
HETATM    8  N   UNL     1     -44.319  59.050 -54.114  1.00  0.00    -0.343 N 
HETATM    9  C   UNL     1     -44.785  59.572 -55.318  1.00  0.00     0.254 C 
HETATM   10  O   UNL     1     -45.528  60.546 -55.397  1.00  0.00    -0.267 OA
HETATM   11  C   UNL     1     -44.580  59.803 -52.872  1.00  0.00     0.132 C 
HETATM   12  C   UNL     1     -45.329  58.959 -51.829  1.00  0.00     0.081 C 
ENDROOT
BRANCH   9  13
HETATM   13  C   UNL     1     -44.385  58.923 -56.586  1.00  0.00     0.035 A 
HETATM   14  C   UNL     1     -43.101  59.116 -57.111  1.00  0.00     0.056 A 
HETATM   15  C   UNL     1     -42.800  58.466 -58.288  1.00  0.00     0.106 A 
HETATM   16  C   UNL     1     -43.721  57.681 -58.944  1.00  0.00     0.105 A 
HETATM   17  O   UNL     1     -41.602  58.509 -58.933  1.00  0.00    -0.323 OA
HETATM   18  O   UNL     1     -43.217  57.133 -60.082  1.00  0.00    -0.323 OA
HETATM   19  C   UNL     1     -45.003  57.504 -58.465  1.00  0.00     0.041 A 
HETATM   20  C   UNL     1     -41.873  57.655 -60.065  1.00  0.00     0.352 A 
HETATM   21  C   UNL     1     -45.339  58.140 -57.268  1.00  0.00     0.020 A 
ENDBRANCH   9  13
BRANCH   1  22
HETATM   22  C   UNL     1     -42.548  54.854 -52.803  1.00  0.00    -0.007 A 
HETATM   23  C   UNL     1     -42.765  54.362 -54.097  1.00  0.00     0.014 A 
HETATM   24  C   UNL     1     -41.924  53.383 -54.633  1.00  0.00     0.001 A 
HETATM   25  C   UNL     1     -40.860  52.888 -53.880  1.00  0.00     0.000 A 
HETATM   26  C   UNL     1     -40.637  53.370 -52.593  1.00  0.00     0.001 A 
HETATM   27  C   UNL     1     -41.477  54.348 -52.056  1.00  0.00     0.014 A 
ENDBRANCH   1  22
TORSDOF 2
ENDMDL
