MODEL 1
REMARK VINA RESULT:      -8.5      0.000      0.000
REMARK  8 active torsions:
REMARK  status: ('A' for Active; 'I' for Inactive)
REMARK    1  A    between atoms: O_2  and  C_3 
REMARK    2  A    between atoms: C_4  and  O_5 
REMARK    3  A    between atoms: C_6  and  O_7 
REMARK    4  A    between atoms: C_10  and  C_11 
REMARK    5  A    between atoms: C_11  and  N_12 
REMARK    6  A    between atoms: C_16  and  C_17 
REMARK       I    between atoms: C_17  and  N_18 
REMARK    7  A    between atoms: N_21  and  C_23 
REMARK    8  A    between atoms: C_23  and  C_24 
ROOT
HETATM    1  N   UNL     1     -45.654  61.433 -51.004  1.00  0.00    -0.067 N 
HETATM    2  H   UNL     1     -46.673  61.468 -51.146  1.00  0.00     0.280 HD
HETATM    3  C   UNL     1     -45.009  61.300 -52.359  1.00  0.00     0.236 C 
HETATM    4  C   UNL     1     -45.383  59.966 -53.006  1.00  0.00     0.042 C 
HETATM    5  C   UNL     1     -45.011  58.771 -52.126  1.00  0.00     0.081 C 
HETATM    6  C   UNL     1     -45.637  58.944 -50.734  1.00  0.00     0.042 C 
HETATM    7  C   UNL     1     -45.352  60.287 -50.071  1.00  0.00     0.236 C 
ENDROOT
BRANCH   5   8
HETATM    8  C   UNL     1     -43.485  58.647 -52.064  1.00  0.00     0.224 C 
HETATM    9  N   UNL     1     -42.858  57.554 -52.666  1.00  0.00    -0.349 N 
HETATM   10  C   UNL     1     -41.388  57.558 -52.592  1.00  0.00     0.153 C 
HETATM   11  C   UNL     1     -43.479  56.222 -52.735  1.00  0.00     0.153 C 
HETATM   12  C   UNL     1     -40.718  56.651 -53.631  1.00  0.00     0.255 C 
HETATM   13  N   UNL     1     -41.283  55.242 -53.540  1.00  0.00    -0.064 N 
HETATM   14  H   UNL     1     -41.063  54.886 -52.601  1.00  0.00     0.280 HD
HETATM   15  C   UNL     1     -42.790  55.256 -53.723  1.00  0.00     0.255 C 
HETATM   16  O   UNL     1     -42.824  59.585 -51.615  1.00  0.00    -0.273 OA
BRANCH  13  17
HETATM   17  C   UNL     1     -40.630  54.275 -54.517  1.00  0.00     0.273 C 
BRANCH  17  18
HETATM   18  C   UNL     1     -40.297  52.938 -53.912  1.00  0.00    -0.030 A 
HETATM   19  C   UNL     1     -40.231  52.802 -52.513  1.00  0.00     0.048 A 
HETATM   20  C   UNL     1     -39.978  51.552 -51.990  1.00  0.00     0.105 A 
HETATM   21  C   UNL     1     -39.785  50.456 -52.793  1.00  0.00     0.105 A 
HETATM   22  O   UNL     1     -39.903  51.251 -50.669  1.00  0.00    -0.323 OA
HETATM   23  O   UNL     1     -39.557  49.326 -52.077  1.00  0.00    -0.323 OA
HETATM   24  C   UNL     1     -39.830  50.550 -54.167  1.00  0.00     0.040 A 
HETATM   25  C   UNL     1     -39.594  49.838 -50.727  1.00  0.00     0.352 A 
HETATM   26  C   UNL     1     -40.090  51.803 -54.731  1.00  0.00     0.012 A 
ENDBRANCH  17  18
ENDBRANCH  13  17
ENDBRANCH   5   8
BRANCH   1  27
HETATM   27  C   UNL     1     -45.286  62.746 -50.318  1.00  0.00     0.273 C 
BRANCH  27  28
HETATM   28  C   UNL     1     -46.118  63.049 -49.103  1.00  0.00    -0.027 A 
HETATM   29  C   UNL     1     -47.455  63.440 -49.252  1.00  0.00     0.048 A 
HETATM   30  C   UNL     1     -48.221  63.744 -48.131  1.00  0.00     0.104 A 
HETATM   31  C   UNL     1     -47.653  63.692 -46.859  1.00  0.00     0.133 A 
HETATM   32  C   UNL     1     -46.320  63.303 -46.685  1.00  0.00     0.104 A 
HETATM   33  C   UNL     1     -45.558  62.976 -47.810  1.00  0.00     0.048 A 
BRANCH  30  34
HETATM   34  O   UNL     1     -49.505  64.172 -48.321  1.00  0.00    -0.353 OA
HETATM   35  C   UNL     1     -50.014  63.678 -49.561  1.00  0.00     0.210 C 
ENDBRANCH  30  34
BRANCH  31  36
HETATM   36  O   UNL     1     -48.413  64.022 -45.768  1.00  0.00    -0.356 OA
HETATM   37  H   UNL     1     -49.300  64.246 -46.109  1.00  0.00     0.218 HD
ENDBRANCH  31  36
BRANCH  32  38
HETATM   38  O   UNL     1     -45.883  63.299 -45.388  1.00  0.00    -0.353 OA
HETATM   39  C   UNL     1     -44.815  64.175 -45.049  1.00  0.00     0.210 C 
ENDBRANCH  32  38
ENDBRANCH  27  28
ENDBRANCH   1  27
TORSDOF 8
ENDMDL
MODEL 2
REMARK VINA RESULT:      -8.5      0.344      2.134
REMARK  8 active torsions:
REMARK  status: ('A' for Active; 'I' for Inactive)
REMARK    1  A    between atoms: O_2  and  C_3 
REMARK    2  A    between atoms: C_4  and  O_5 
REMARK    3  A    between atoms: C_6  and  O_7 
REMARK    4  A    between atoms: C_10  and  C_11 
REMARK    5  A    between atoms: C_11  and  N_12 
REMARK    6  A    between atoms: C_16  and  C_17 
REMARK       I    between atoms: C_17  and  N_18 
REMARK    7  A    between atoms: N_21  and  C_23 
REMARK    8  A    between atoms: C_23  and  C_24 
ROOT
HETATM    1  N   UNL     1     -45.273  61.323 -50.917  1.00  0.00    -0.067 N 
HETATM    2  H   UNL     1     -46.297  61.402 -50.987  1.00  0.00     0.280 HD
HETATM    3  C   UNL     1     -44.720  61.310 -52.319  1.00  0.00     0.236 C 
HETATM    4  C   UNL     1     -45.183  60.061 -53.070  1.00  0.00     0.042 C 
HETATM    5  C   UNL     1     -44.800  58.772 -52.342  1.00  0.00     0.081 C 
HETATM    6  C   UNL     1     -45.329  58.820 -50.901  1.00  0.00     0.042 C 
HETATM    7  C   UNL     1     -44.954  60.078 -50.127  1.00  0.00     0.236 C 
ENDROOT
BRANCH   5   8
HETATM    8  C   UNL     1     -43.278  58.597 -52.395  1.00  0.00     0.224 C 
HETATM    9  N   UNL     1     -42.737  57.442 -52.963  1.00  0.00    -0.349 N 
HETATM   10  C   UNL     1     -41.267  57.396 -53.009  1.00  0.00     0.153 C 
HETATM   11  C   UNL     1     -43.402  56.131 -52.882  1.00  0.00     0.153 C 
HETATM   12  C   UNL     1     -40.714  56.394 -54.029  1.00  0.00     0.255 C 
HETATM   13  N   UNL     1     -41.312  55.017 -53.788  1.00  0.00    -0.064 N 
HETATM   14  H   UNL     1     -41.026  54.721 -52.845  1.00  0.00     0.280 HD
HETATM   15  C   UNL     1     -42.828  55.072 -53.847  1.00  0.00     0.255 C 
HETATM   16  O   UNL     1     -42.554  59.540 -52.072  1.00  0.00    -0.273 OA
BRANCH  13  17
HETATM   17  C   UNL     1     -40.774  53.959 -54.739  1.00  0.00     0.273 C 
BRANCH  17  18
HETATM   18  C   UNL     1     -40.382  52.675 -54.058  1.00  0.00    -0.030 A 
HETATM   19  C   UNL     1     -40.264  52.638 -52.656  1.00  0.00     0.048 A 
HETATM   20  C   UNL     1     -39.959  51.434 -52.060  1.00  0.00     0.105 A 
HETATM   21  C   UNL     1     -39.763  50.290 -52.793  1.00  0.00     0.105 A 
HETATM   22  O   UNL     1     -39.830  51.225 -50.724  1.00  0.00    -0.323 OA
HETATM   23  O   UNL     1     -39.480  49.218 -52.010  1.00  0.00    -0.323 OA
HETATM   24  C   UNL     1     -39.858  50.288 -54.167  1.00  0.00     0.040 A 
HETATM   25  C   UNL     1     -39.484  49.820 -50.697  1.00  0.00     0.352 A 
HETATM   26  C   UNL     1     -40.172  51.493 -54.805  1.00  0.00     0.012 A 
ENDBRANCH  17  18
ENDBRANCH  13  17
ENDBRANCH   5   8
BRANCH   1  27
HETATM   27  C   UNL     1     -44.814  62.547 -50.129  1.00  0.00     0.273 C 
BRANCH  27  28
HETATM   28  C   UNL     1     -45.755  62.944 -49.026  1.00  0.00    -0.027 A 
HETATM   29  C   UNL     1     -45.396  62.727 -47.690  1.00  0.00     0.048 A 
HETATM   30  C   UNL     1     -46.274  63.072 -46.667  1.00  0.00     0.104 A 
HETATM   31  C   UNL     1     -47.527  63.604 -46.969  1.00  0.00     0.133 A 
HETATM   32  C   UNL     1     -47.908  63.831 -48.296  1.00  0.00     0.104 A 
HETATM   33  C   UNL     1     -47.015  63.505 -49.321  1.00  0.00     0.048 A 
BRANCH  30  34
HETATM   34  O   UNL     1     -45.909  62.796 -45.379  1.00  0.00    -0.353 OA
HETATM   35  C   UNL     1     -45.044  63.818 -44.880  1.00  0.00     0.210 C 
ENDBRANCH  30  34
BRANCH  31  36
HETATM   36  O   UNL     1     -48.391  63.911 -45.952  1.00  0.00    -0.356 OA
HETATM   37  H   UNL     1     -49.087  63.225 -45.965  1.00  0.00     0.218 HD
ENDBRANCH  31  36
BRANCH  32  38
HETATM   38  O   UNL     1     -49.164  64.351 -48.457  1.00  0.00    -0.353 OA
HETATM   39  C   UNL     1     -50.073  63.636 -49.284  1.00  0.00     0.210 C 
ENDBRANCH  32  38
ENDBRANCH  27  28
ENDBRANCH   1  27
TORSDOF 8
ENDMDL
MODEL 3
REMARK VINA RESULT:      -8.4      5.397      8.569
REMARK  8 active torsions:
REMARK  status: ('A' for Active; 'I' for Inactive)
REMARK    1  A    between atoms: O_2  and  C_3 
REMARK    2  A    between atoms: C_4  and  O_5 
REMARK    3  A    between atoms: C_6  and  O_7 
REMARK    4  A    between atoms: C_10  and  C_11 
REMARK    5  A    between atoms: C_11  and  N_12 
REMARK    6  A    between atoms: C_16  and  C_17 
REMARK       I    between atoms: C_17  and  N_18 
REMARK    7  A    between atoms: N_21  and  C_23 
REMARK    8  A    between atoms: C_23  and  C_24 
ROOT
HETATM    1  N   UNL     1     -43.029  58.544 -55.813  1.00  0.00    -0.067 N 
HETATM    2  H   UNL     1     -43.559  58.214 -56.632  1.00  0.00     0.280 HD
HETATM    3  C   UNL     1     -42.255  57.372 -55.268  1.00  0.00     0.236 C 
HETATM    4  C   UNL     1     -43.205  56.296 -54.741  1.00  0.00     0.042 C 
HETATM    5  C   UNL     1     -44.160  56.837 -53.675  1.00  0.00     0.081 C 
HETATM    6  C   UNL     1     -44.906  58.060 -54.229  1.00  0.00     0.042 C 
HETATM    7  C   UNL     1     -44.009  59.135 -54.830  1.00  0.00     0.236 C 
ENDROOT
BRANCH   5   8
HETATM    8  C   UNL     1     -43.364  57.169 -52.409  1.00  0.00     0.224 C 
HETATM    9  N   UNL     1     -42.678  56.153 -51.740  1.00  0.00    -0.349 N 
HETATM   10  C   UNL     1     -41.905  56.588 -50.565  1.00  0.00     0.153 C 
HETATM   11  C   UNL     1     -43.167  54.766 -51.690  1.00  0.00     0.153 C 
HETATM   12  C   UNL     1     -40.814  55.596 -50.146  1.00  0.00     0.255 C 
HETATM   13  N   UNL     1     -41.411  54.212 -49.946  1.00  0.00    -0.064 N 
HETATM   14  H   UNL     1     -42.101  54.285 -49.186  1.00  0.00     0.280 HD
HETATM   15  C   UNL     1     -42.115  53.744 -51.207  1.00  0.00     0.255 C 
HETATM   16  O   UNL     1     -43.218  58.349 -52.083  1.00  0.00    -0.273 OA
BRANCH  13  17
HETATM   17  C   UNL     1     -40.390  53.183 -49.485  1.00  0.00     0.273 C 
BRANCH  17  18
HETATM   18  C   UNL     1     -40.191  52.051 -50.457  1.00  0.00    -0.030 A 
HETATM   19  C   UNL     1     -39.890  52.331 -51.802  1.00  0.00     0.048 A 
HETATM   20  C   UNL     1     -39.659  51.272 -52.654  1.00  0.00     0.105 A 
HETATM   21  C   UNL     1     -39.723  49.970 -52.225  1.00  0.00     0.105 A 
HETATM   22  O   UNL     1     -39.338  51.373 -53.969  1.00  0.00    -0.323 OA
HETATM   23  O   UNL     1     -39.457  49.086 -53.220  1.00  0.00    -0.323 OA
HETATM   24  C   UNL     1     -40.026  49.654 -50.919  1.00  0.00     0.040 A 
HETATM   25  C   UNL     1     -39.250  49.977 -54.338  1.00  0.00     0.352 A 
HETATM   26  C   UNL     1     -40.261  50.705 -50.026  1.00  0.00     0.012 A 
ENDBRANCH  17  18
ENDBRANCH  13  17
ENDBRANCH   5   8
BRANCH   1  27
HETATM   27  C   UNL     1     -42.112  59.649 -56.330  1.00  0.00     0.273 C 
BRANCH  27  28
HETATM   28  C   UNL     1     -42.036  59.721 -57.829  1.00  0.00    -0.027 A 
HETATM   29  C   UNL     1     -42.185  58.556 -58.593  1.00  0.00     0.048 A 
HETATM   30  C   UNL     1     -42.091  58.615 -59.980  1.00  0.00     0.104 A 
HETATM   31  C   UNL     1     -41.818  59.826 -60.613  1.00  0.00     0.133 A 
HETATM   32  C   UNL     1     -41.667  61.004 -59.872  1.00  0.00     0.104 A 
HETATM   33  C   UNL     1     -41.783  60.946 -58.480  1.00  0.00     0.048 A 
BRANCH  30  34
HETATM   34  O   UNL     1     -42.189  57.449 -60.686  1.00  0.00    -0.353 OA
HETATM   35  C   UNL     1     -42.736  56.415 -59.864  1.00  0.00     0.210 C 
ENDBRANCH  30  34
BRANCH  31  36
HETATM   36  O   UNL     1     -41.700  59.862 -61.977  1.00  0.00    -0.356 OA
HETATM   37  H   UNL     1     -42.359  59.231 -62.327  1.00  0.00     0.218 HD
ENDBRANCH  31  36
BRANCH  32  38
HETATM   38  O   UNL     1     -41.395  62.123 -60.612  1.00  0.00    -0.353 OA
HETATM   39  C   UNL     1     -41.005  63.298 -59.913  1.00  0.00     0.210 C 
ENDBRANCH  32  38
ENDBRANCH  27  28
ENDBRANCH   1  27
TORSDOF 8
ENDMDL
MODEL 4
REMARK VINA RESULT:      -8.3      4.342      7.331
REMARK  8 active torsions:
REMARK  status: ('A' for Active; 'I' for Inactive)
REMARK    1  A    between atoms: O_2  and  C_3 
REMARK    2  A    between atoms: C_4  and  O_5 
REMARK    3  A    between atoms: C_6  and  O_7 
REMARK    4  A    between atoms: C_10  and  C_11 
REMARK    5  A    between atoms: C_11  and  N_12 
REMARK    6  A    between atoms: C_16  and  C_17 
REMARK       I    between atoms: C_17  and  N_18 
REMARK    7  A    between atoms: N_21  and  C_23 
REMARK    8  A    between atoms: C_23  and  C_24 
ROOT
HETATM    1  N   UNL     1     -42.664  60.567 -54.226  1.00  0.00    -0.067 N 
HETATM    2  H   UNL     1     -42.443  61.549 -54.008  1.00  0.00     0.280 HD
HETATM    3  C   UNL     1     -44.091  60.317 -53.812  1.00  0.00     0.236 C 
HETATM    4  C   UNL     1     -44.244  60.450 -52.297  1.00  0.00     0.042 C 
HETATM    5  C   UNL     1     -43.304  59.515 -51.534  1.00  0.00     0.081 C 
HETATM    6  C   UNL     1     -41.859  59.748 -52.001  1.00  0.00     0.042 C 
HETATM    7  C   UNL     1     -41.662  59.694 -53.511  1.00  0.00     0.236 C 
ENDROOT
BRANCH   5   8
HETATM    8  C   UNL     1     -43.755  58.066 -51.747  1.00  0.00     0.224 C 
HETATM    9  N   UNL     1     -42.940  57.020 -51.309  1.00  0.00    -0.349 N 
HETATM   10  C   UNL     1     -43.488  55.670 -51.516  1.00  0.00     0.153 C 
HETATM   11  C   UNL     1     -41.470  57.106 -51.307  1.00  0.00     0.153 C 
HETATM   12  C   UNL     1     -42.839  54.600 -50.631  1.00  0.00     0.255 C 
HETATM   13  N   UNL     1     -41.328  54.625 -50.800  1.00  0.00    -0.064 N 
HETATM   14  H   UNL     1     -41.128  54.406 -51.784  1.00  0.00     0.280 HD
HETATM   15  C   UNL     1     -40.776  56.003 -50.480  1.00  0.00     0.255 C 
HETATM   16  O   UNL     1     -44.893  57.846 -52.166  1.00  0.00    -0.273 OA
BRANCH  13  17
HETATM   17  C   UNL     1     -40.619  53.557 -49.981  1.00  0.00     0.273 C 
BRANCH  17  18
HETATM   18  C   UNL     1     -40.320  52.301 -50.754  1.00  0.00    -0.030 A 
HETATM   19  C   UNL     1     -40.136  52.367 -52.147  1.00  0.00     0.048 A 
HETATM   20  C   UNL     1     -39.809  51.208 -52.818  1.00  0.00     0.105 A 
HETATM   21  C   UNL     1     -39.668  50.008 -52.167  1.00  0.00     0.105 A 
HETATM   22  O   UNL     1     -39.578  51.107 -54.152  1.00  0.00    -0.323 OA
HETATM   23  O   UNL     1     -39.338  48.999 -53.011  1.00  0.00    -0.323 OA
HETATM   24  C   UNL     1     -39.852  49.900 -50.806  1.00  0.00     0.040 A 
HETATM   25  C   UNL     1     -39.318  49.690 -54.279  1.00  0.00     0.352 A 
HETATM   26  C   UNL     1     -40.180  51.058 -50.093  1.00  0.00     0.012 A 
ENDBRANCH  17  18
ENDBRANCH  13  17
ENDBRANCH   5   8
BRANCH   1  27
HETATM   27  C   UNL     1     -42.467  60.422 -55.732  1.00  0.00     0.273 C 
BRANCH  27  28
HETATM   28  C   UNL     1     -42.735  59.035 -56.247  1.00  0.00    -0.027 A 
HETATM   29  C   UNL     1     -43.677  58.838 -57.266  1.00  0.00     0.048 A 
HETATM   30  C   UNL     1     -43.945  57.553 -57.727  1.00  0.00     0.104 A 
HETATM   31  C   UNL     1     -43.302  56.455 -57.158  1.00  0.00     0.133 A 
HETATM   32  C   UNL     1     -42.357  56.627 -56.141  1.00  0.00     0.104 A 
HETATM   33  C   UNL     1     -42.072  57.920 -55.693  1.00  0.00     0.048 A 
BRANCH  30  34
HETATM   34  O   UNL     1     -44.907  57.397 -58.685  1.00  0.00    -0.353 OA
HETATM   35  C   UNL     1     -45.967  58.333 -58.481  1.00  0.00     0.210 C 
ENDBRANCH  30  34
BRANCH  31  36
HETATM   36  O   UNL     1     -43.598  55.195 -57.605  1.00  0.00    -0.356 OA
HETATM   37  H   UNL     1     -43.808  55.282 -58.555  1.00  0.00     0.218 HD
ENDBRANCH  31  36
BRANCH  32  38
HETATM   38  O   UNL     1     -41.803  55.469 -55.663  1.00  0.00    -0.353 OA
HETATM   39  C   UNL     1     -40.792  55.582 -54.670  1.00  0.00     0.210 C 
ENDBRANCH  32  38
ENDBRANCH  27  28
ENDBRANCH   1  27
TORSDOF 8
ENDMDL
MODEL 5
REMARK VINA RESULT:      -8.2      4.228      7.214
REMARK  8 active torsions:
REMARK  status: ('A' for Active; 'I' for Inactive)
REMARK    1  A    between atoms: O_2  and  C_3 
REMARK    2  A    between atoms: C_4  and  O_5 
REMARK    3  A    between atoms: C_6  and  O_7 
REMARK    4  A    between atoms: C_10  and  C_11 
REMARK    5  A    between atoms: C_11  and  N_12 
REMARK    6  A    between atoms: C_16  and  C_17 
REMARK       I    between atoms: C_17  and  N_18 
REMARK    7  A    between atoms: N_21  and  C_23 
REMARK    8  A    between atoms: C_23  and  C_24 
ROOT
HETATM    1  N   UNL     1     -44.346  61.112 -53.486  1.00  0.00    -0.067 N 
HETATM    2  H   UNL     1     -44.405  62.010 -52.985  1.00  0.00     0.280 HD
HETATM    3  C   UNL     1     -45.476  60.243 -52.998  1.00  0.00     0.236 C 
HETATM    4  C   UNL     1     -45.295  59.904 -51.518  1.00  0.00     0.042 C 
HETATM    5  C   UNL     1     -43.952  59.228 -51.238  1.00  0.00     0.081 C 
HETATM    6  C   UNL     1     -42.814  60.103 -51.783  1.00  0.00     0.042 C 
HETATM    7  C   UNL     1     -42.978  60.528 -53.237  1.00  0.00     0.236 C 
ENDROOT
BRANCH   5   8
HETATM    8  C   UNL     1     -43.954  57.827 -51.860  1.00  0.00     0.224 C 
HETATM    9  N   UNL     1     -43.082  56.854 -51.367  1.00  0.00    -0.349 N 
HETATM   10  C   UNL     1     -43.200  55.530 -52.000  1.00  0.00     0.153 C 
HETATM   11  C   UNL     1     -41.747  57.179 -50.838  1.00  0.00     0.153 C 
HETATM   12  C   UNL     1     -42.609  54.392 -51.160  1.00  0.00     0.255 C 
HETATM   13  N   UNL     1     -41.170  54.710 -50.783  1.00  0.00    -0.064 N 
HETATM   14  H   UNL     1     -40.636  54.786 -51.659  1.00  0.00     0.280 HD
HETATM   15  C   UNL     1     -41.089  56.032 -50.041  1.00  0.00     0.255 C 
HETATM   16  O   UNL     1     -44.825  57.536 -52.682  1.00  0.00    -0.273 OA
BRANCH  13  17
HETATM   17  C   UNL     1     -40.505  53.601 -49.983  1.00  0.00     0.273 C 
BRANCH  17  18
HETATM   18  C   UNL     1     -40.252  52.348 -50.779  1.00  0.00    -0.030 A 
HETATM   19  C   UNL     1     -40.064  52.433 -52.170  1.00  0.00     0.048 A 
HETATM   20  C   UNL     1     -39.778  51.275 -52.862  1.00  0.00     0.105 A 
HETATM   21  C   UNL     1     -39.684  50.059 -52.232  1.00  0.00     0.105 A 
HETATM   22  O   UNL     1     -39.550  51.190 -54.198  1.00  0.00    -0.323 OA
HETATM   23  O   UNL     1     -39.390  49.053 -53.095  1.00  0.00    -0.323 OA
HETATM   24  C   UNL     1     -39.873  49.933 -50.873  1.00  0.00     0.040 A 
HETATM   25  C   UNL     1     -39.343  49.766 -54.350  1.00  0.00     0.352 A 
HETATM   26  C   UNL     1     -40.159  51.090 -50.140  1.00  0.00     0.012 A 
ENDBRANCH  17  18
ENDBRANCH  13  17
ENDBRANCH   5   8
BRANCH   1  27
HETATM   27  C   UNL     1     -44.482  61.454 -54.967  1.00  0.00     0.273 C 
BRANCH  27  28
HETATM   28  C   UNL     1     -43.681  60.559 -55.871  1.00  0.00    -0.027 A 
HETATM   29  C   UNL     1     -42.564  61.067 -56.546  1.00  0.00     0.048 A 
HETATM   30  C   UNL     1     -41.835  60.248 -57.402  1.00  0.00     0.104 A 
HETATM   31  C   UNL     1     -42.232  58.929 -57.616  1.00  0.00     0.133 A 
HETATM   32  C   UNL     1     -43.343  58.398 -56.953  1.00  0.00     0.104 A 
HETATM   33  C   UNL     1     -44.061  59.216 -56.076  1.00  0.00     0.048 A 
BRANCH  30  34
HETATM   34  O   UNL     1     -40.783  60.795 -58.082  1.00  0.00    -0.353 OA
HETATM   35  C   UNL     1     -41.257  61.656 -59.120  1.00  0.00     0.210 C 
ENDBRANCH  30  34
BRANCH  31  36
HETATM   36  O   UNL     1     -41.519  58.144 -58.484  1.00  0.00    -0.356 OA
HETATM   37  H   UNL     1     -40.638  58.019 -58.082  1.00  0.00     0.218 HD
ENDBRANCH  31  36
BRANCH  32  38
HETATM   38  O   UNL     1     -43.629  57.094 -57.255  1.00  0.00    -0.353 OA
HETATM   39  C   UNL     1     -43.178  56.093 -56.352  1.00  0.00     0.210 C 
ENDBRANCH  32  38
ENDBRANCH  27  28
ENDBRANCH   1  27
TORSDOF 8
ENDMDL
MODEL 6
REMARK VINA RESULT:      -8.2      4.317      7.142
REMARK  8 active torsions:
REMARK  status: ('A' for Active; 'I' for Inactive)
REMARK    1  A    between atoms: O_2  and  C_3 
REMARK    2  A    between atoms: C_4  and  O_5 
REMARK    3  A    between atoms: C_6  and  O_7 
REMARK    4  A    between atoms: C_10  and  C_11 
REMARK    5  A    between atoms: C_11  and  N_12 
REMARK    6  A    between atoms: C_16  and  C_17 
REMARK       I    between atoms: C_17  and  N_18 
REMARK    7  A    between atoms: N_21  and  C_23 
REMARK    8  A    between atoms: C_23  and  C_24 
ROOT
HETATM    1  N   UNL     1     -44.505  61.110 -53.649  1.00  0.00    -0.067 N 
HETATM    2  H   UNL     1     -44.623  61.992 -53.133  1.00  0.00     0.280 HD
HETATM    3  C   UNL     1     -45.587  60.166 -53.194  1.00  0.00     0.236 C 
HETATM    4  C   UNL     1     -45.406  59.809 -51.718  1.00  0.00     0.042 C 
HETATM    5  C   UNL     1     -44.028  59.208 -51.432  1.00  0.00     0.081 C 
HETATM    6  C   UNL     1     -42.937  60.160 -51.944  1.00  0.00     0.042 C 
HETATM    7  C   UNL     1     -43.107  60.602 -53.393  1.00  0.00     0.236 C 
ENDROOT
BRANCH   5   8
HETATM    8  C   UNL     1     -43.940  57.822 -52.080  1.00  0.00     0.224 C 
HETATM    9  N   UNL     1     -43.071  56.868 -51.548  1.00  0.00    -0.349 N 
HETATM   10  C   UNL     1     -43.099  55.555 -52.213  1.00  0.00     0.153 C 
HETATM   11  C   UNL     1     -41.787  57.224 -50.921  1.00  0.00     0.153 C 
HETATM   12  C   UNL     1     -42.529  54.419 -51.356  1.00  0.00     0.255 C 
HETATM   13  N   UNL     1     -41.131  54.776 -50.875  1.00  0.00    -0.064 N 
HETATM   14  H   UNL     1     -40.541  54.888 -51.710  1.00  0.00     0.280 HD
HETATM   15  C   UNL     1     -41.146  56.083 -50.103  1.00  0.00     0.255 C 
HETATM   16  O   UNL     1     -44.742  57.521 -52.966  1.00  0.00    -0.273 OA
BRANCH  13  17
HETATM   17  C   UNL     1     -40.485  53.671 -50.053  1.00  0.00     0.273 C 
BRANCH  17  18
HETATM   18  C   UNL     1     -40.245  52.402 -50.826  1.00  0.00    -0.030 A 
HETATM   19  C   UNL     1     -40.029  52.462 -52.215  1.00  0.00     0.048 A 
HETATM   20  C   UNL     1     -39.757  51.289 -52.884  1.00  0.00     0.105 A 
HETATM   21  C   UNL     1     -39.700  50.080 -52.235  1.00  0.00     0.105 A 
HETATM   22  O   UNL     1     -39.507  51.179 -54.214  1.00  0.00    -0.323 OA
HETATM   23  O   UNL     1     -39.413  49.056 -53.078  1.00  0.00    -0.323 OA
HETATM   24  C   UNL     1     -39.916  49.978 -50.879  1.00  0.00     0.040 A 
HETATM   25  C   UNL     1     -39.328  49.749 -54.342  1.00  0.00     0.352 A 
HETATM   26  C   UNL     1     -40.190  51.152 -50.167  1.00  0.00     0.012 A 
ENDBRANCH  17  18
ENDBRANCH  13  17
ENDBRANCH   5   8
BRANCH   1  27
HETATM   27  C   UNL     1     -44.641  61.472 -55.126  1.00  0.00     0.273 C 
BRANCH  27  28
HETATM   28  C   UNL     1     -43.832  60.597 -56.041  1.00  0.00    -0.027 A 
HETATM   29  C   UNL     1     -44.184  59.252 -56.214  1.00  0.00     0.048 A 
HETATM   30  C   UNL     1     -43.423  58.433 -57.042  1.00  0.00     0.104 A 
HETATM   31  C   UNL     1     -42.289  58.938 -57.677  1.00  0.00     0.133 A 
HETATM   32  C   UNL     1     -41.918  60.278 -57.521  1.00  0.00     0.104 A 
HETATM   33  C   UNL     1     -42.696  61.105 -56.707  1.00  0.00     0.048 A 
BRANCH  30  34
HETATM   34  O   UNL     1     -43.768  57.115 -57.144  1.00  0.00    -0.353 OA
HETATM   35  C   UNL     1     -43.248  56.378 -56.036  1.00  0.00     0.210 C 
ENDBRANCH  30  34
BRANCH  31  36
HETATM   36  O   UNL     1     -41.534  58.111 -58.466  1.00  0.00    -0.356 OA
HETATM   37  H   UNL     1     -40.689  57.978 -57.995  1.00  0.00     0.218 HD
ENDBRANCH  31  36
BRANCH  32  38
HETATM   38  O   UNL     1     -40.783  60.646 -58.192  1.00  0.00    -0.353 OA
HETATM   39  C   UNL     1     -40.582  62.033 -58.437  1.00  0.00     0.210 C 
ENDBRANCH  32  38
ENDBRANCH  27  28
ENDBRANCH   1  27
TORSDOF 8
ENDMDL
MODEL 7
REMARK VINA RESULT:      -8.1      5.441     10.746
REMARK  8 active torsions:
REMARK  status: ('A' for Active; 'I' for Inactive)
REMARK    1  A    between atoms: O_2  and  C_3 
REMARK    2  A    between atoms: C_4  and  O_5 
REMARK    3  A    between atoms: C_6  and  O_7 
REMARK    4  A    between atoms: C_10  and  C_11 
REMARK    5  A    between atoms: C_11  and  N_12 
REMARK    6  A    between atoms: C_16  and  C_17 
REMARK       I    between atoms: C_17  and  N_18 
REMARK    7  A    between atoms: N_21  and  C_23 
REMARK    8  A    between atoms: C_23  and  C_24 
ROOT
HETATM    1  N   UNL     1     -42.476  56.217 -50.293  1.00  0.00    -0.067 N 
HETATM    2  H   UNL     1     -42.693  56.663 -49.391  1.00  0.00     0.280 HD
HETATM    3  C   UNL     1     -41.288  56.933 -50.881  1.00  0.00     0.236 C 
HETATM    4  C   UNL     1     -41.642  58.383 -51.212  1.00  0.00     0.042 C 
HETATM    5  C   UNL     1     -42.840  58.487 -52.157  1.00  0.00     0.081 C 
HETATM    6  C   UNL     1     -44.028  57.713 -51.566  1.00  0.00     0.042 C 
HETATM    7  C   UNL     1     -43.712  56.280 -51.155  1.00  0.00     0.236 C 
ENDROOT
BRANCH   5   8
HETATM    8  C   UNL     1     -42.437  57.964 -53.539  1.00  0.00     0.224 C 
HETATM    9  N   UNL     1     -43.181  58.337 -54.660  1.00  0.00    -0.349 N 
HETATM   10  C   UNL     1     -42.681  57.820 -55.944  1.00  0.00     0.153 C 
HETATM   11  C   UNL     1     -44.632  58.579 -54.606  1.00  0.00     0.153 C 
HETATM   12  C   UNL     1     -43.192  58.599 -57.162  1.00  0.00     0.255 C 
HETATM   13  N   UNL     1     -44.711  58.671 -57.138  1.00  0.00    -0.064 N 
HETATM   14  H   UNL     1     -45.063  57.706 -57.192  1.00  0.00     0.280 HD
HETATM   15  C   UNL     1     -45.198  59.302 -55.847  1.00  0.00     0.255 C 
HETATM   16  O   UNL     1     -41.379  57.344 -53.662  1.00  0.00    -0.273 OA
BRANCH  13  17
HETATM   17  C   UNL     1     -45.291  59.394 -58.344  1.00  0.00     0.273 C 
BRANCH  17  18
HETATM   18  C   UNL     1     -46.039  58.492 -59.289  1.00  0.00    -0.030 A 
HETATM   19  C   UNL     1     -46.955  59.045 -60.203  1.00  0.00     0.048 A 
HETATM   20  C   UNL     1     -47.582  58.199 -61.091  1.00  0.00     0.105 A 
HETATM   21  C   UNL     1     -47.342  56.847 -61.098  1.00  0.00     0.105 A 
HETATM   22  O   UNL     1     -48.471  58.575 -62.046  1.00  0.00    -0.323 OA
HETATM   23  O   UNL     1     -48.056  56.201 -62.054  1.00  0.00    -0.323 OA
HETATM   24  C   UNL     1     -46.462  56.266 -60.212  1.00  0.00     0.040 A 
HETATM   25  C   UNL     1     -48.803  57.294 -62.632  1.00  0.00     0.352 A 
HETATM   26  C   UNL     1     -45.803  57.097 -59.299  1.00  0.00     0.012 A 
ENDBRANCH  17  18
ENDBRANCH  13  17
ENDBRANCH   5   8
BRANCH   1  27
HETATM   27  C   UNL     1     -42.165  54.758 -49.970  1.00  0.00     0.273 C 
BRANCH  27  28
HETATM   28  C   UNL     1     -41.653  53.973 -51.145  1.00  0.00    -0.027 A 
HETATM   29  C   UNL     1     -40.588  53.079 -50.977  1.00  0.00     0.048 A 
HETATM   30  C   UNL     1     -40.096  52.369 -52.067  1.00  0.00     0.104 A 
HETATM   31  C   UNL     1     -40.638  52.568 -53.336  1.00  0.00     0.133 A 
HETATM   32  C   UNL     1     -41.703  53.454 -53.529  1.00  0.00     0.104 A 
HETATM   33  C   UNL     1     -42.212  54.150 -52.429  1.00  0.00     0.048 A 
BRANCH  30  34
HETATM   34  O   UNL     1     -39.022  51.546 -51.873  1.00  0.00    -0.353 OA
HETATM   35  C   UNL     1     -39.453  50.276 -51.378  1.00  0.00     0.210 C 
ENDBRANCH  30  34
BRANCH  31  36
HETATM   36  O   UNL     1     -40.123  51.882 -54.404  1.00  0.00    -0.356 OA
HETATM   37  H   UNL     1     -39.352  52.395 -54.715  1.00  0.00     0.218 HD
ENDBRANCH  31  36
BRANCH  32  38
HETATM   38  O   UNL     1     -42.140  53.562 -54.822  1.00  0.00    -0.353 OA
HETATM   39  C   UNL     1     -43.314  54.328 -55.060  1.00  0.00     0.210 C 
ENDBRANCH  32  38
ENDBRANCH  27  28
ENDBRANCH   1  27
TORSDOF 8
ENDMDL
MODEL 8
REMARK VINA RESULT:      -8.1      4.232      7.131
REMARK  8 active torsions:
REMARK  status: ('A' for Active; 'I' for Inactive)
REMARK    1  A    between atoms: O_2  and  C_3 
REMARK    2  A    between atoms: C_4  and  O_5 
REMARK    3  A    between atoms: C_6  and  O_7 
REMARK    4  A    between atoms: C_10  and  C_11 
REMARK    5  A    between atoms: C_11  and  N_12 
REMARK    6  A    between atoms: C_16  and  C_17 
REMARK       I    between atoms: C_17  and  N_18 
REMARK    7  A    between atoms: N_21  and  C_23 
REMARK    8  A    between atoms: C_23  and  C_24 
ROOT
HETATM    1  N   UNL     1     -43.997  61.164 -53.698  1.00  0.00    -0.067 N 
HETATM    2  H   UNL     1     -43.994  62.086 -53.241  1.00  0.00     0.280 HD
HETATM    3  C   UNL     1     -45.189  60.402 -53.178  1.00  0.00     0.236 C 
HETATM    4  C   UNL     1     -45.040  60.123 -51.682  1.00  0.00     0.042 C 
HETATM    5  C   UNL     1     -43.749  59.367 -51.359  1.00  0.00     0.081 C 
HETATM    6  C   UNL     1     -42.549  60.132 -51.936  1.00  0.00     0.042 C 
HETATM    7  C   UNL     1     -42.676  60.496 -53.410  1.00  0.00     0.236 C 
ENDROOT
BRANCH   5   8
HETATM    8  C   UNL     1     -43.849  57.942 -51.912  1.00  0.00     0.224 C 
HETATM    9  N   UNL     1     -43.001  56.950 -51.417  1.00  0.00    -0.349 N 
HETATM   10  C   UNL     1     -43.213  55.606 -51.979  1.00  0.00     0.153 C 
HETATM   11  C   UNL     1     -41.627  57.231 -50.968  1.00  0.00     0.153 C 
HETATM   12  C   UNL     1     -42.636  54.480 -51.115  1.00  0.00     0.255 C 
HETATM   13  N   UNL     1     -41.166  54.742 -50.824  1.00  0.00    -0.064 N 
HETATM   14  H   UNL     1     -40.674  54.751 -51.727  1.00  0.00     0.280 HD
HETATM   15  C   UNL     1     -40.985  56.091 -50.150  1.00  0.00     0.255 C 
HETATM   16  O   UNL     1     -44.774  57.658 -52.676  1.00  0.00    -0.273 OA
BRANCH  13  17
HETATM   17  C   UNL     1     -40.515  53.638 -50.004  1.00  0.00     0.273 C 
BRANCH  17  18
HETATM   18  C   UNL     1     -40.256  52.378 -50.785  1.00  0.00    -0.030 A 
HETATM   19  C   UNL     1     -40.080  52.444 -52.179  1.00  0.00     0.048 A 
HETATM   20  C   UNL     1     -39.790  51.280 -52.856  1.00  0.00     0.105 A 
HETATM   21  C   UNL     1     -39.678  50.074 -52.211  1.00  0.00     0.105 A 
HETATM   22  O   UNL     1     -39.572  51.178 -54.193  1.00  0.00    -0.323 OA
HETATM   23  O   UNL     1     -39.381  49.059 -53.062  1.00  0.00    -0.323 OA
HETATM   24  C   UNL     1     -39.854  49.965 -50.849  1.00  0.00     0.040 A 
HETATM   25  C   UNL     1     -39.352  49.754 -54.327  1.00  0.00     0.352 A 
HETATM   26  C   UNL     1     -40.145  51.129 -50.129  1.00  0.00     0.012 A 
ENDBRANCH  17  18
ENDBRANCH  13  17
ENDBRANCH   5   8
BRANCH   1  27
HETATM   27  C   UNL     1     -44.101  61.442 -55.195  1.00  0.00     0.273 C 
BRANCH  27  28
HETATM   28  C   UNL     1     -44.434  60.227 -56.015  1.00  0.00    -0.027 A 
HETATM   29  C   UNL     1     -43.449  59.263 -56.267  1.00  0.00     0.048 A 
HETATM   30  C   UNL     1     -43.747  58.149 -57.046  1.00  0.00     0.104 A 
HETATM   31  C   UNL     1     -45.016  58.004 -57.604  1.00  0.00     0.133 A 
HETATM   32  C   UNL     1     -46.016  58.952 -57.366  1.00  0.00     0.104 A 
HETATM   33  C   UNL     1     -45.722  60.059 -56.565  1.00  0.00     0.048 A 
BRANCH  30  34
HETATM   34  O   UNL     1     -42.745  57.258 -57.312  1.00  0.00    -0.353 OA
HETATM   35  C   UNL     1     -42.499  56.432 -56.172  1.00  0.00     0.210 C 
ENDBRANCH  30  34
BRANCH  31  36
HETATM   36  O   UNL     1     -45.284  56.916 -58.392  1.00  0.00    -0.356 OA
HETATM   37  H   UNL     1     -46.220  56.995 -58.662  1.00  0.00     0.218 HD
ENDBRANCH  31  36
BRANCH  32  38
HETATM   38  O   UNL     1     -47.215  58.695 -57.977  1.00  0.00    -0.353 OA
HETATM   39  C   UNL     1     -47.587  59.521 -59.073  1.00  0.00     0.210 C 
ENDBRANCH  32  38
ENDBRANCH  27  28
ENDBRANCH   1  27
TORSDOF 8
ENDMDL
MODEL 9
REMARK VINA RESULT:      -8.0      3.407     12.163
REMARK  8 active torsions:
REMARK  status: ('A' for Active; 'I' for Inactive)
REMARK    1  A    between atoms: O_2  and  C_3 
REMARK    2  A    between atoms: C_4  and  O_5 
REMARK    3  A    between atoms: C_6  and  O_7 
REMARK    4  A    between atoms: C_10  and  C_11 
REMARK    5  A    between atoms: C_11  and  N_12 
REMARK    6  A    between atoms: C_16  and  C_17 
REMARK       I    between atoms: C_17  and  N_18 
REMARK    7  A    between atoms: N_21  and  C_23 
REMARK    8  A    between atoms: C_23  and  C_24 
ROOT
HETATM    1  N   UNL     1     -41.430  55.877 -52.925  1.00  0.00    -0.067 N 
HETATM    2  H   UNL     1     -40.930  55.778 -52.031  1.00  0.00     0.280 HD
HETATM    3  C   UNL     1     -40.958  57.153 -53.572  1.00  0.00     0.236 C 
HETATM    4  C   UNL     1     -41.364  58.365 -52.734  1.00  0.00     0.042 C 
HETATM    5  C   UNL     1     -42.874  58.424 -52.493  1.00  0.00     0.081 C 
HETATM    6  C   UNL     1     -43.347  57.099 -51.877  1.00  0.00     0.042 C 
HETATM    7  C   UNL     1     -42.910  55.853 -52.637  1.00  0.00     0.236 C 
ENDROOT
BRANCH   5   8
HETATM    8  C   UNL     1     -43.582  58.734 -53.816  1.00  0.00     0.224 C 
HETATM    9  N   UNL     1     -44.579  59.712 -53.851  1.00  0.00    -0.349 N 
HETATM   10  C   UNL     1     -45.159  59.967 -55.179  1.00  0.00     0.153 C 
HETATM   11  C   UNL     1     -45.478  59.969 -52.714  1.00  0.00     0.153 C 
HETATM   12  C   UNL     1     -45.872  61.319 -55.289  1.00  0.00     0.255 C 
HETATM   13  N   UNL     1     -46.909  61.458 -54.186  1.00  0.00    -0.064 N 
HETATM   14  H   UNL     1     -47.600  60.708 -54.322  1.00  0.00     0.280 HD
HETATM   15  C   UNL     1     -46.266  61.292 -52.821  1.00  0.00     0.255 C 
HETATM   16  O   UNL     1     -43.162  58.225 -54.856  1.00  0.00    -0.273 OA
BRANCH  13  17
HETATM   17  C   UNL     1     -47.687  62.762 -54.261  1.00  0.00     0.273 C 
BRANCH  17  18
HETATM   18  C   UNL     1     -49.124  62.636 -53.830  1.00  0.00    -0.030 A 
HETATM   19  C   UNL     1     -49.496  63.007 -52.525  1.00  0.00     0.048 A 
HETATM   20  C   UNL     1     -50.829  62.931 -52.180  1.00  0.00     0.105 A 
HETATM   21  C   UNL     1     -51.784  62.501 -53.067  1.00  0.00     0.105 A 
HETATM   22  O   UNL     1     -51.352  63.271 -50.974  1.00  0.00    -0.323 OA
HETATM   23  O   UNL     1     -53.029  62.509 -52.527  1.00  0.00    -0.323 OA
HETATM   24  C   UNL     1     -51.458  62.118 -54.349  1.00  0.00     0.040 A 
HETATM   25  C   UNL     1     -52.750  62.962 -51.185  1.00  0.00     0.352 A 
HETATM   26  C   UNL     1     -50.115  62.187 -54.735  1.00  0.00     0.012 A 
ENDBRANCH  17  18
ENDBRANCH  13  17
ENDBRANCH   5   8
BRANCH   1  27
HETATM   27  C   UNL     1     -41.060  54.645 -53.746  1.00  0.00     0.273 C 
BRANCH  27  28
HETATM   28  C   UNL     1     -40.606  53.477 -52.915  1.00  0.00    -0.027 A 
HETATM   29  C   UNL     1     -40.169  52.302 -53.542  1.00  0.00     0.048 A 
HETATM   30  C   UNL     1     -39.771  51.211 -52.776  1.00  0.00     0.104 A 
HETATM   31  C   UNL     1     -39.836  51.271 -51.384  1.00  0.00     0.133 A 
HETATM   32  C   UNL     1     -40.267  52.433 -50.736  1.00  0.00     0.104 A 
HETATM   33  C   UNL     1     -40.646  53.536 -51.507  1.00  0.00     0.048 A 
BRANCH  30  34
HETATM   34  O   UNL     1     -39.401  50.066 -53.423  1.00  0.00    -0.353 OA
HETATM   35  C   UNL     1     -39.984  50.022 -54.727  1.00  0.00     0.210 C 
ENDBRANCH  30  34
BRANCH  31  36
HETATM   36  O   UNL     1     -39.468  50.178 -50.646  1.00  0.00    -0.356 OA
HETATM   37  H   UNL     1     -40.112  49.474 -50.856  1.00  0.00     0.218 HD
ENDBRANCH  31  36
BRANCH  32  38
HETATM   38  O   UNL     1     -40.290  52.360 -49.369  1.00  0.00    -0.353 OA
HETATM   39  C   UNL     1     -40.626  53.540 -48.650  1.00  0.00     0.210 C 
ENDBRANCH  32  38
ENDBRANCH  27  28
ENDBRANCH   1  27
TORSDOF 8
ENDMDL
MODEL 10
REMARK VINA RESULT:      -8.0      1.709      2.148
REMARK  8 active torsions:
REMARK  status: ('A' for Active; 'I' for Inactive)
REMARK    1  A    between atoms: O_2  and  C_3 
REMARK    2  A    between atoms: C_4  and  O_5 
REMARK    3  A    between atoms: C_6  and  O_7 
REMARK    4  A    between atoms: C_10  and  C_11 
REMARK    5  A    between atoms: C_11  and  N_12 
REMARK    6  A    between atoms: C_16  and  C_17 
REMARK       I    between atoms: C_17  and  N_18 
REMARK    7  A    between atoms: N_21  and  C_23 
REMARK    8  A    between atoms: C_23  and  C_24 
ROOT
HETATM    1  N   UNL     1     -44.334  61.908 -51.182  1.00  0.00    -0.067 N 
HETATM    2  H   UNL     1     -44.330  62.646 -51.900  1.00  0.00     0.280 HD
HETATM    3  C   UNL     1     -43.298  60.886 -51.572  1.00  0.00     0.236 C 
HETATM    4  C   UNL     1     -43.688  60.195 -52.879  1.00  0.00     0.042 C 
HETATM    5  C   UNL     1     -45.068  59.541 -52.799  1.00  0.00     0.081 C 
HETATM    6  C   UNL     1     -46.105  60.583 -52.355  1.00  0.00     0.042 C 
HETATM    7  C   UNL     1     -45.733  61.352 -51.093  1.00  0.00     0.236 C 
ENDROOT
BRANCH   5   8
HETATM    8  C   UNL     1     -45.004  58.344 -51.844  1.00  0.00     0.224 C 
HETATM    9  N   UNL     1     -43.878  57.519 -51.849  1.00  0.00    -0.349 N 
HETATM   10  C   UNL     1     -43.895  56.430 -50.859  1.00  0.00     0.153 C 
HETATM   11  C   UNL     1     -43.099  57.245 -53.068  1.00  0.00     0.153 C 
HETATM   12  C   UNL     1     -42.508  55.855 -50.553  1.00  0.00     0.255 C 
HETATM   13  N   UNL     1     -41.818  55.433 -51.841  1.00  0.00    -0.064 N 
HETATM   14  H   UNL     1     -42.394  54.696 -52.268  1.00  0.00     0.280 HD
HETATM   15  C   UNL     1     -41.721  56.602 -52.805  1.00  0.00     0.255 C 
HETATM   16  O   UNL     1     -45.878  58.214 -50.985  1.00  0.00    -0.273 OA
BRANCH  13  17
HETATM   17  C   UNL     1     -40.450  54.811 -51.608  1.00  0.00     0.273 C 
BRANCH  17  18
HETATM   18  C   UNL     1     -40.263  53.484 -52.293  1.00  0.00    -0.030 A 
HETATM   19  C   UNL     1     -39.833  52.370 -51.549  1.00  0.00     0.048 A 
HETATM   20  C   UNL     1     -39.726  51.157 -52.195  1.00  0.00     0.105 A 
HETATM   21  C   UNL     1     -40.018  51.016 -53.528  1.00  0.00     0.105 A 
HETATM   22  O   UNL     1     -39.346  49.988 -51.618  1.00  0.00    -0.323 OA
HETATM   23  O   UNL     1     -39.853  49.741 -53.961  1.00  0.00    -0.323 OA
HETATM   24  C   UNL     1     -40.431  52.085 -54.293  1.00  0.00     0.040 A 
HETATM   25  C   UNL     1     -39.389  49.094 -52.756  1.00  0.00     0.352 A 
HETATM   26  C   UNL     1     -40.556  53.331 -53.669  1.00  0.00     0.012 A 
ENDBRANCH  17  18
ENDBRANCH  13  17
ENDBRANCH   5   8
BRANCH   1  27
HETATM   27  C   UNL     1     -43.989  62.605 -49.869  1.00  0.00     0.273 C 
BRANCH  27  28
HETATM   28  C   UNL     1     -45.027  62.426 -48.797  1.00  0.00    -0.027 A 
HETATM   29  C   UNL     1     -46.089  63.334 -48.694  1.00  0.00     0.048 A 
HETATM   30  C   UNL     1     -47.038  63.185 -47.688  1.00  0.00     0.104 A 
HETATM   31  C   UNL     1     -46.919  62.151 -46.760  1.00  0.00     0.133 A 
HETATM   32  C   UNL     1     -45.869  61.231 -46.843  1.00  0.00     0.104 A 
HETATM   33  C   UNL     1     -44.928  61.369 -47.867  1.00  0.00     0.048 A 
BRANCH  30  34
HETATM   34  O   UNL     1     -48.029  64.121 -47.588  1.00  0.00    -0.353 OA
HETATM   35  C   UNL     1     -48.372  64.620 -48.882  1.00  0.00     0.210 C 
ENDBRANCH  30  34
BRANCH  31  36
HETATM   36  O   UNL     1     -47.846  62.035 -45.758  1.00  0.00    -0.356 OA
HETATM   37  H   UNL     1     -47.443  61.466 -45.074  1.00  0.00     0.218 HD
ENDBRANCH  31  36
BRANCH  32  38
HETATM   38  O   UNL     1     -45.863  60.269 -45.869  1.00  0.00    -0.353 OA
HETATM   39  C   UNL     1     -46.670  59.116 -46.075  1.00  0.00     0.210 C 
ENDBRANCH  32  38
ENDBRANCH  27  28
ENDBRANCH   1  27
TORSDOF 8
ENDMDL
