MODEL 1
REMARK VINA RESULT:      -7.9      0.000      0.000
REMARK  8 active torsions:
REMARK  status: ('A' for Active; 'I' for Inactive)
REMARK    1  A    between atoms: C_4  and  C_5 
REMARK    2  A    between atoms: C_9  and  C_10 
REMARK       I    between atoms: C_10  and  N_11 
REMARK    3  A    between atoms: N_11  and  C_12 
REMARK    4  A    between atoms: C_12  and  C_13 
REMARK    5  A    between atoms: C_13  and  C_14 
REMARK    6  A    between atoms: C_14  and  C_15 
REMARK    7  A    between atoms: C_15  and  O_16 
REMARK    8  A    between atoms: O_16  and  C_17 
ROOT
HETATM    1  C   UNL     1     -42.764  56.197 -55.071  1.00  0.00     0.270 C 
HETATM    2  N   UNL     1     -42.238  57.228 -55.806  1.00  0.00    -0.345 N 
HETATM    3  O   UNL     1     -43.918  56.203 -54.658  1.00  0.00    -0.266 OA
HETATM    4  H   UNL     1     -41.323  57.135 -56.220  1.00  0.00     0.163 HD
ENDROOT
BRANCH   2   5
HETATM    5  C   UNL     1     -43.040  58.363 -56.179  1.00  0.00     0.217 C 
BRANCH   5   6
HETATM    6  C   UNL     1     -42.988  59.384 -55.054  1.00  0.00    -0.085 C 
BRANCH   6   7
HETATM    7  C   UNL     1     -42.942  60.259 -54.089  1.00  0.00    -0.078 C 
BRANCH   7   8
HETATM    8  C   UNL     1     -42.888  61.280 -52.964  1.00  0.00     0.269 C 
BRANCH   8   9
HETATM    9  O   UNL     1     -43.397  60.673 -51.779  1.00  0.00    -0.339 OA
BRANCH   9  10
HETATM   10  C   UNL     1     -42.876  59.457 -51.434  1.00  0.00     0.072 A 
HETATM   11  C   UNL     1     -43.554  58.235 -51.451  1.00  0.00     0.069 A 
HETATM   12  C   UNL     1     -42.932  57.050 -51.073  1.00  0.00     0.069 A 
HETATM   13  C   UNL     1     -41.582  57.095 -50.668  1.00  0.00    -0.007 A 
HETATM   14  N   UNL     1     -43.633  55.903 -51.106  1.00  0.00    -0.260 NA
HETATM   15  C   UNL     1     -40.892  58.317 -50.652  1.00  0.00     0.016 A 
HETATM   16  C   UNL     1     -40.967  55.896 -50.288  1.00  0.00     0.015 A 
HETATM   17  C   UNL     1     -41.541  59.489 -51.034  1.00  0.00     0.038 A 
HETATM   18  C   UNL     1     -41.689  54.710 -50.319  1.00  0.00     0.020 A 
HETATM   19  C   UNL     1     -43.007  54.765 -50.732  1.00  0.00     0.117 A 
ENDBRANCH   9  10
ENDBRANCH   8   9
ENDBRANCH   7   8
ENDBRANCH   6   7
ENDBRANCH   5   6
ENDBRANCH   2   5
BRANCH   1  20
HETATM   20  C   UNL     1     -41.866  55.099 -54.838  1.00  0.00     0.120 A 
HETATM   21  N   UNL     1     -40.665  55.001 -55.481  1.00  0.00    -0.272 N 
HETATM   22  N   UNL     1     -39.934  53.933 -55.126  1.00  0.00    -0.174 NA
HETATM   23  H   UNL     1     -40.287  55.650 -56.165  1.00  0.00     0.189 HD
HETATM   24  C   UNL     1     -40.702  53.276 -54.241  1.00  0.00     0.089 A 
HETATM   25  C   UNL     1     -41.922  53.978 -54.034  1.00  0.00     0.071 A 
BRANCH  24  26
HETATM   26  C   UNL     1     -40.264  52.027 -53.610  1.00  0.00    -0.006 A 
HETATM   27  C   UNL     1     -39.919  52.002 -52.252  1.00  0.00     0.014 A 
HETATM   28  C   UNL     1     -39.520  50.811 -51.638  1.00  0.00     0.001 A 
HETATM   29  C   UNL     1     -39.454  49.633 -52.378  1.00  0.00     0.000 A 
HETATM   30  C   UNL     1     -39.785  49.645 -53.731  1.00  0.00     0.001 A 
HETATM   31  C   UNL     1     -40.188  50.834 -54.345  1.00  0.00     0.014 A 
ENDBRANCH  24  26
ENDBRANCH   1  20
TORSDOF 8
ENDMDL
MODEL 2
REMARK VINA RESULT:      -7.8      3.054      5.861
REMARK  8 active torsions:
REMARK  status: ('A' for Active; 'I' for Inactive)
REMARK    1  A    between atoms: C_4  and  C_5 
REMARK    2  A    between atoms: C_9  and  C_10 
REMARK       I    between atoms: C_10  and  N_11 
REMARK    3  A    between atoms: N_11  and  C_12 
REMARK    4  A    between atoms: C_12  and  C_13 
REMARK    5  A    between atoms: C_13  and  C_14 
REMARK    6  A    between atoms: C_14  and  C_15 
REMARK    7  A    between atoms: C_15  and  O_16 
REMARK    8  A    between atoms: O_16  and  C_17 
ROOT
HETATM    1  C   UNL     1     -41.855  56.974 -53.692  1.00  0.00     0.270 C 
HETATM    2  N   UNL     1     -40.951  58.004 -53.659  1.00  0.00    -0.345 N 
HETATM    3  O   UNL     1     -43.063  57.153 -53.595  1.00  0.00    -0.266 OA
HETATM    4  H   UNL     1     -39.977  57.826 -53.852  1.00  0.00     0.163 HD
ENDROOT
BRANCH   2   5
HETATM    5  C   UNL     1     -41.384  59.373 -53.559  1.00  0.00     0.217 C 
BRANCH   5   6
HETATM    6  C   UNL     1     -41.793  59.854 -54.942  1.00  0.00    -0.085 C 
BRANCH   6   7
HETATM    7  C   UNL     1     -42.145  60.267 -56.127  1.00  0.00    -0.078 C 
BRANCH   7   8
HETATM    8  C   UNL     1     -42.555  60.748 -57.510  1.00  0.00     0.269 C 
BRANCH   8   9
HETATM    9  O   UNL     1     -41.905  59.934 -58.482  1.00  0.00    -0.339 OA
BRANCH   9  10
HETATM   10  C   UNL     1     -42.615  58.874 -58.976  1.00  0.00     0.072 A 
HETATM   11  C   UNL     1     -44.006  58.747 -58.987  1.00  0.00     0.069 A 
HETATM   12  C   UNL     1     -44.632  57.621 -59.509  1.00  0.00     0.069 A 
HETATM   13  C   UNL     1     -43.832  56.589 -60.042  1.00  0.00    -0.007 A 
HETATM   14  N   UNL     1     -45.975  57.550 -59.491  1.00  0.00    -0.260 NA
HETATM   15  C   UNL     1     -42.434  56.710 -60.040  1.00  0.00     0.016 A 
HETATM   16  C   UNL     1     -44.473  55.459 -60.564  1.00  0.00     0.015 A 
HETATM   17  C   UNL     1     -41.833  57.849 -59.508  1.00  0.00     0.038 A 
HETATM   18  C   UNL     1     -45.861  55.383 -60.545  1.00  0.00     0.020 A 
HETATM   19  C   UNL     1     -46.559  56.445 -60.003  1.00  0.00     0.117 A 
ENDBRANCH   9  10
ENDBRANCH   8   9
ENDBRANCH   7   8
ENDBRANCH   6   7
ENDBRANCH   5   6
ENDBRANCH   2   5
BRANCH   1  20
HETATM   20  C   UNL     1     -41.280  55.668 -53.868  1.00  0.00     0.120 A 
HETATM   21  N   UNL     1     -40.589  55.331 -54.997  1.00  0.00    -0.272 N 
HETATM   22  N   UNL     1     -40.090  54.086 -54.988  1.00  0.00    -0.174 NA
HETATM   23  H   UNL     1     -40.415  55.925 -55.803  1.00  0.00     0.189 HD
HETATM   24  C   UNL     1     -40.503  53.564 -53.822  1.00  0.00     0.089 A 
HETATM   25  C   UNL     1     -41.252  54.528 -53.090  1.00  0.00     0.071 A 
BRANCH  24  26
HETATM   26  C   UNL     1     -40.173  52.192 -53.425  1.00  0.00    -0.006 A 
HETATM   27  C   UNL     1     -40.209  51.153 -54.366  1.00  0.00     0.014 A 
HETATM   28  C   UNL     1     -39.877  49.846 -54.001  1.00  0.00     0.001 A 
HETATM   29  C   UNL     1     -39.509  49.561 -52.688  1.00  0.00     0.000 A 
HETATM   30  C   UNL     1     -39.478  50.580 -51.740  1.00  0.00     0.001 A 
HETATM   31  C   UNL     1     -39.807  51.889 -52.105  1.00  0.00     0.014 A 
ENDBRANCH  24  26
ENDBRANCH   1  20
TORSDOF 8
ENDMDL
MODEL 3
REMARK VINA RESULT:      -7.6      2.825      5.428
REMARK  8 active torsions:
REMARK  status: ('A' for Active; 'I' for Inactive)
REMARK    1  A    between atoms: C_4  and  C_5 
REMARK    2  A    between atoms: C_9  and  C_10 
REMARK       I    between atoms: C_10  and  N_11 
REMARK    3  A    between atoms: N_11  and  C_12 
REMARK    4  A    between atoms: C_12  and  C_13 
REMARK    5  A    between atoms: C_13  and  C_14 
REMARK    6  A    between atoms: C_14  and  C_15 
REMARK    7  A    between atoms: C_15  and  O_16 
REMARK    8  A    between atoms: O_16  and  C_17 
ROOT
HETATM    1  C   UNL     1     -42.263  57.037 -52.823  1.00  0.00     0.270 C 
HETATM    2  N   UNL     1     -43.630  56.999 -52.914  1.00  0.00    -0.345 N 
HETATM    3  O   UNL     1     -41.654  58.032 -52.446  1.00  0.00    -0.266 OA
HETATM    4  H   UNL     1     -44.096  56.129 -53.122  1.00  0.00     0.163 HD
ENDROOT
BRANCH   2   5
HETATM    5  C   UNL     1     -44.436  58.123 -52.516  1.00  0.00     0.217 C 
BRANCH   5   6
HETATM    6  C   UNL     1     -44.806  58.917 -53.759  1.00  0.00    -0.085 C 
BRANCH   6   7
HETATM    7  C   UNL     1     -45.124  59.598 -54.824  1.00  0.00    -0.078 C 
BRANCH   7   8
HETATM    8  C   UNL     1     -45.495  60.391 -56.066  1.00  0.00     0.269 C 
BRANCH   8   9
HETATM    9  O   UNL     1     -44.415  60.312 -56.992  1.00  0.00    -0.339 OA
BRANCH   9  10
HETATM   10  C   UNL     1     -44.263  59.132 -57.667  1.00  0.00     0.072 A 
HETATM   11  C   UNL     1     -45.264  58.441 -58.354  1.00  0.00     0.069 A 
HETATM   12  C   UNL     1     -45.006  57.240 -59.006  1.00  0.00     0.069 A 
HETATM   13  C   UNL     1     -43.697  56.718 -58.967  1.00  0.00    -0.007 A 
HETATM   14  N   UNL     1     -46.009  56.616 -59.649  1.00  0.00    -0.260 NA
HETATM   15  C   UNL     1     -42.684  57.407 -58.283  1.00  0.00     0.016 A 
HETATM   16  C   UNL     1     -43.450  55.507 -59.625  1.00  0.00     0.015 A 
HETATM   17  C   UNL     1     -42.971  58.608 -57.638  1.00  0.00     0.038 A 
HETATM   18  C   UNL     1     -44.484  54.859 -60.290  1.00  0.00     0.020 A 
HETATM   19  C   UNL     1     -45.733  55.449 -60.273  1.00  0.00     0.117 A 
ENDBRANCH   9  10
ENDBRANCH   8   9
ENDBRANCH   7   8
ENDBRANCH   6   7
ENDBRANCH   5   6
ENDBRANCH   2   5
BRANCH   1  20
HETATM   20  C   UNL     1     -41.596  55.816 -53.185  1.00  0.00     0.120 A 
HETATM   21  N   UNL     1     -40.794  55.733 -54.288  1.00  0.00    -0.272 N 
HETATM   22  N   UNL     1     -40.222  54.532 -54.465  1.00  0.00    -0.174 NA
HETATM   23  H   UNL     1     -40.590  56.477 -54.949  1.00  0.00     0.189 HD
HETATM   24  C   UNL     1     -40.698  53.779 -53.460  1.00  0.00     0.089 A 
HETATM   25  C   UNL     1     -41.563  54.550 -52.635  1.00  0.00     0.071 A 
BRANCH  24  26
HETATM   26  C   UNL     1     -40.317  52.372 -53.298  1.00  0.00    -0.006 A 
HETATM   27  C   UNL     1     -40.441  51.476 -54.368  1.00  0.00     0.014 A 
HETATM   28  C   UNL     1     -40.063  50.138 -54.228  1.00  0.00     0.001 A 
HETATM   29  C   UNL     1     -39.561  49.680 -53.012  1.00  0.00     0.000 A 
HETATM   30  C   UNL     1     -39.440  50.556 -51.936  1.00  0.00     0.001 A 
HETATM   31  C   UNL     1     -39.815  51.895 -52.077  1.00  0.00     0.014 A 
ENDBRANCH  24  26
ENDBRANCH   1  20
TORSDOF 8
ENDMDL
MODEL 4
REMARK VINA RESULT:      -7.5      2.916      5.565
REMARK  8 active torsions:
REMARK  status: ('A' for Active; 'I' for Inactive)
REMARK    1  A    between atoms: C_4  and  C_5 
REMARK    2  A    between atoms: C_9  and  C_10 
REMARK       I    between atoms: C_10  and  N_11 
REMARK    3  A    between atoms: N_11  and  C_12 
REMARK    4  A    between atoms: C_12  and  C_13 
REMARK    5  A    between atoms: C_13  and  C_14 
REMARK    6  A    between atoms: C_14  and  C_15 
REMARK    7  A    between atoms: C_15  and  O_16 
REMARK    8  A    between atoms: O_16  and  C_17 
ROOT
HETATM    1  C   UNL     1     -41.685  56.942 -52.939  1.00  0.00     0.270 C 
HETATM    2  N   UNL     1     -40.938  57.993 -53.404  1.00  0.00    -0.345 N 
HETATM    3  O   UNL     1     -42.711  57.099 -52.286  1.00  0.00    -0.266 OA
HETATM    4  H   UNL     1     -40.165  57.823 -54.029  1.00  0.00     0.163 HD
ENDROOT
BRANCH   2   5
HETATM    5  C   UNL     1     -41.352  59.354 -53.191  1.00  0.00     0.217 C 
BRANCH   5   6
HETATM    6  C   UNL     1     -42.221  59.785 -54.362  1.00  0.00    -0.085 C 
BRANCH   6   7
HETATM    7  C   UNL     1     -42.966  60.154 -55.366  1.00  0.00    -0.078 C 
BRANCH   7   8
HETATM    8  C   UNL     1     -43.835  60.584 -56.537  1.00  0.00     0.269 C 
BRANCH   8   9
HETATM    9  O   UNL     1     -45.067  59.870 -56.470  1.00  0.00    -0.339 OA
BRANCH   9  10
HETATM   10  C   UNL     1     -45.261  58.882 -57.396  1.00  0.00     0.072 A 
HETATM   11  C   UNL     1     -44.334  57.903 -57.761  1.00  0.00     0.069 A 
HETATM   12  C   UNL     1     -44.628  56.942 -58.722  1.00  0.00     0.069 A 
HETATM   13  C   UNL     1     -45.899  56.966 -59.335  1.00  0.00    -0.007 A 
HETATM   14  N   UNL     1     -43.697  56.024 -59.038  1.00  0.00    -0.260 NA
HETATM   15  C   UNL     1     -46.837  57.943 -58.970  1.00  0.00     0.016 A 
HETATM   16  C   UNL     1     -46.183  55.995 -60.302  1.00  0.00     0.015 A 
HETATM   17  C   UNL     1     -46.515  58.895 -58.005  1.00  0.00     0.038 A 
HETATM   18  C   UNL     1     -45.223  55.046 -60.631  1.00  0.00     0.020 A 
HETATM   19  C   UNL     1     -44.007  55.103 -59.977  1.00  0.00     0.117 A 
ENDBRANCH   9  10
ENDBRANCH   8   9
ENDBRANCH   7   8
ENDBRANCH   6   7
ENDBRANCH   5   6
ENDBRANCH   2   5
BRANCH   1  20
HETATM   20  C   UNL     1     -41.186  55.640 -53.291  1.00  0.00     0.120 A 
HETATM   21  N   UNL     1     -40.689  55.371 -54.534  1.00  0.00    -0.272 N 
HETATM   22  N   UNL     1     -40.234  54.117 -54.687  1.00  0.00    -0.174 NA
HETATM   23  H   UNL     1     -40.621  56.017 -55.315  1.00  0.00     0.189 HD
HETATM   24  C   UNL     1     -40.479  53.522 -53.508  1.00  0.00     0.089 A 
HETATM   25  C   UNL     1     -41.076  54.446 -52.605  1.00  0.00     0.071 A 
BRANCH  24  26
HETATM   26  C   UNL     1     -40.136  52.118 -53.262  1.00  0.00    -0.006 A 
HETATM   27  C   UNL     1     -39.790  51.689 -51.973  1.00  0.00     0.014 A 
HETATM   28  C   UNL     1     -39.480  50.349 -51.725  1.00  0.00     0.001 A 
HETATM   29  C   UNL     1     -39.507  49.423 -52.766  1.00  0.00     0.000 A 
HETATM   30  C   UNL     1     -39.839  49.837 -54.054  1.00  0.00     0.001 A 
HETATM   31  C   UNL     1     -40.153  51.176 -54.301  1.00  0.00     0.014 A 
ENDBRANCH  24  26
ENDBRANCH   1  20
TORSDOF 8
ENDMDL
MODEL 5
REMARK VINA RESULT:      -7.4     15.534     18.400
REMARK  8 active torsions:
REMARK  status: ('A' for Active; 'I' for Inactive)
REMARK    1  A    between atoms: C_4  and  C_5 
REMARK    2  A    between atoms: C_9  and  C_10 
REMARK       I    between atoms: C_10  and  N_11 
REMARK    3  A    between atoms: N_11  and  C_12 
REMARK    4  A    between atoms: C_12  and  C_13 
REMARK    5  A    between atoms: C_13  and  C_14 
REMARK    6  A    between atoms: C_14  and  C_15 
REMARK    7  A    between atoms: C_15  and  O_16 
REMARK    8  A    between atoms: O_16  and  C_17 
ROOT
HETATM    1  C   UNL     1     -35.713  41.667 -52.655  1.00  0.00     0.270 C 
HETATM    2  N   UNL     1     -36.448  40.632 -52.139  1.00  0.00    -0.345 N 
HETATM    3  O   UNL     1     -35.068  42.435 -51.949  1.00  0.00    -0.266 OA
HETATM    4  H   UNL     1     -36.873  39.959 -52.758  1.00  0.00     0.163 HD
ENDROOT
BRANCH   2   5
HETATM    5  C   UNL     1     -36.460  40.357 -50.726  1.00  0.00     0.217 C 
BRANCH   5   6
HETATM    6  C   UNL     1     -35.117  39.759 -50.337  1.00  0.00    -0.085 C 
BRANCH   6   7
HETATM    7  C   UNL     1     -33.966  39.246 -50.005  1.00  0.00    -0.078 C 
BRANCH   7   8
HETATM    8  C   UNL     1     -32.624  38.648 -49.617  1.00  0.00     0.269 C 
BRANCH   8   9
HETATM    9  O   UNL     1     -31.630  39.158 -50.502  1.00  0.00    -0.339 OA
BRANCH   9  10
HETATM   10  C   UNL     1     -31.831  38.959 -51.840  1.00  0.00     0.072 A 
HETATM   11  C   UNL     1     -32.016  39.955 -52.802  1.00  0.00     0.069 A 
HETATM   12  C   UNL     1     -32.220  39.646 -54.142  1.00  0.00     0.069 A 
HETATM   13  C   UNL     1     -32.236  38.290 -54.528  1.00  0.00    -0.007 A 
HETATM   14  N   UNL     1     -32.395  40.645 -55.026  1.00  0.00    -0.260 NA
HETATM   15  C   UNL     1     -32.047  37.283 -53.569  1.00  0.00     0.016 A 
HETATM   16  C   UNL     1     -32.444  37.991 -55.880  1.00  0.00     0.015 A 
HETATM   17  C   UNL     1     -31.846  37.622 -52.233  1.00  0.00     0.038 A 
HETATM   18  C   UNL     1     -32.628  39.021 -56.794  1.00  0.00     0.020 A 
HETATM   19  C   UNL     1     -32.594  40.319 -56.322  1.00  0.00     0.117 A 
ENDBRANCH   9  10
ENDBRANCH   8   9
ENDBRANCH   7   8
ENDBRANCH   6   7
ENDBRANCH   5   6
ENDBRANCH   2   5
BRANCH   1  20
HETATM   20  C   UNL     1     -35.739  41.774 -54.088  1.00  0.00     0.120 A 
HETATM   21  N   UNL     1     -35.022  42.729 -54.752  1.00  0.00    -0.272 N 
HETATM   22  N   UNL     1     -35.130  42.671 -56.089  1.00  0.00    -0.174 NA
HETATM   23  H   UNL     1     -34.425  43.439 -54.338  1.00  0.00     0.189 HD
HETATM   24  C   UNL     1     -35.987  41.661 -56.315  1.00  0.00     0.089 A 
HETATM   25  C   UNL     1     -36.389  41.073 -55.084  1.00  0.00     0.071 A 
BRANCH  24  26
HETATM   26  C   UNL     1     -36.386  41.272 -57.671  1.00  0.00    -0.006 A 
HETATM   27  C   UNL     1     -36.226  39.949 -58.106  1.00  0.00     0.014 A 
HETATM   28  C   UNL     1     -36.622  39.565 -59.390  1.00  0.00     0.001 A 
HETATM   29  C   UNL     1     -37.179  40.503 -60.257  1.00  0.00     0.000 A 
HETATM   30  C   UNL     1     -37.336  41.824 -59.842  1.00  0.00     0.001 A 
HETATM   31  C   UNL     1     -36.943  42.207 -58.557  1.00  0.00     0.014 A 
ENDBRANCH  24  26
ENDBRANCH   1  20
TORSDOF 8
ENDMDL
MODEL 6
REMARK VINA RESULT:      -7.4      2.231      3.472
REMARK  8 active torsions:
REMARK  status: ('A' for Active; 'I' for Inactive)
REMARK    1  A    between atoms: C_4  and  C_5 
REMARK    2  A    between atoms: C_9  and  C_10 
REMARK       I    between atoms: C_10  and  N_11 
REMARK    3  A    between atoms: N_11  and  C_12 
REMARK    4  A    between atoms: C_12  and  C_13 
REMARK    5  A    between atoms: C_13  and  C_14 
REMARK    6  A    between atoms: C_14  and  C_15 
REMARK    7  A    between atoms: C_15  and  O_16 
REMARK    8  A    between atoms: O_16  and  C_17 
ROOT
HETATM    1  C   UNL     1     -42.881  56.646 -56.926  1.00  0.00     0.270 C 
HETATM    2  N   UNL     1     -44.039  56.449 -57.632  1.00  0.00    -0.345 N 
HETATM    3  O   UNL     1     -42.137  57.598 -57.131  1.00  0.00    -0.266 OA
HETATM    4  H   UNL     1     -44.677  55.718 -57.358  1.00  0.00     0.163 HD
ENDROOT
BRANCH   2   5
HETATM    5  C   UNL     1     -44.473  57.391 -58.630  1.00  0.00     0.217 C 
BRANCH   5   6
HETATM    6  C   UNL     1     -45.020  58.624 -57.928  1.00  0.00    -0.085 C 
BRANCH   6   7
HETATM    7  C   UNL     1     -45.488  59.680 -57.325  1.00  0.00    -0.078 C 
BRANCH   7   8
HETATM    8  C   UNL     1     -46.033  60.912 -56.621  1.00  0.00     0.269 C 
BRANCH   8   9
HETATM    9  O   UNL     1     -45.036  61.401 -55.728  1.00  0.00    -0.339 OA
BRANCH   9  10
HETATM   10  C   UNL     1     -44.367  60.473 -54.980  1.00  0.00     0.072 A 
HETATM   11  C   UNL     1     -42.980  60.334 -54.888  1.00  0.00     0.069 A 
HETATM   12  C   UNL     1     -42.395  59.349 -54.100  1.00  0.00     0.069 A 
HETATM   13  C   UNL     1     -43.235  58.476 -53.377  1.00  0.00    -0.007 A 
HETATM   14  N   UNL     1     -41.054  59.258 -54.051  1.00  0.00    -0.260 NA
HETATM   15  C   UNL     1     -44.629  58.611 -53.459  1.00  0.00     0.016 A 
HETATM   16  C   UNL     1     -42.636  57.487 -52.588  1.00  0.00     0.015 A 
HETATM   17  C   UNL     1     -45.187  59.607 -54.259  1.00  0.00     0.038 A 
HETATM   18  C   UNL     1     -41.251  57.390 -52.537  1.00  0.00     0.020 A 
HETATM   19  C   UNL     1     -40.511  58.291 -53.279  1.00  0.00     0.117 A 
ENDBRANCH   9  10
ENDBRANCH   8   9
ENDBRANCH   7   8
ENDBRANCH   6   7
ENDBRANCH   5   6
ENDBRANCH   2   5
BRANCH   1  20
HETATM   20  C   UNL     1     -42.614  55.663 -55.912  1.00  0.00     0.120 A 
HETATM   21  N   UNL     1     -43.609  55.141 -55.134  1.00  0.00    -0.272 N 
HETATM   22  N   UNL     1     -43.195  54.211 -54.260  1.00  0.00    -0.174 NA
HETATM   23  H   UNL     1     -44.597  55.375 -55.172  1.00  0.00     0.189 HD
HETATM   24  C   UNL     1     -41.866  54.145 -54.439  1.00  0.00     0.089 A 
HETATM   25  C   UNL     1     -41.464  55.041 -55.468  1.00  0.00     0.071 A 
BRANCH  24  26
HETATM   26  C   UNL     1     -41.021  53.239 -53.654  1.00  0.00    -0.006 A 
HETATM   27  C   UNL     1     -40.546  52.047 -54.217  1.00  0.00     0.014 A 
HETATM   28  C   UNL     1     -39.724  51.187 -53.483  1.00  0.00     0.001 A 
HETATM   29  C   UNL     1     -39.373  51.508 -52.173  1.00  0.00     0.000 A 
HETATM   30  C   UNL     1     -39.846  52.685 -51.597  1.00  0.00     0.001 A 
HETATM   31  C   UNL     1     -40.664  53.547 -52.332  1.00  0.00     0.014 A 
ENDBRANCH  24  26
ENDBRANCH   1  20
TORSDOF 8
ENDMDL
MODEL 7
REMARK VINA RESULT:      -7.2      4.374      7.148
REMARK  8 active torsions:
REMARK  status: ('A' for Active; 'I' for Inactive)
REMARK    1  A    between atoms: C_4  and  C_5 
REMARK    2  A    between atoms: C_9  and  C_10 
REMARK       I    between atoms: C_10  and  N_11 
REMARK    3  A    between atoms: N_11  and  C_12 
REMARK    4  A    between atoms: C_12  and  C_13 
REMARK    5  A    between atoms: C_13  and  C_14 
REMARK    6  A    between atoms: C_14  and  C_15 
REMARK    7  A    between atoms: C_15  and  O_16 
REMARK    8  A    between atoms: O_16  and  C_17 
ROOT
HETATM    1  C   UNL     1     -41.637  56.985 -52.973  1.00  0.00     0.270 C 
HETATM    2  N   UNL     1     -40.817  58.009 -53.369  1.00  0.00    -0.345 N 
HETATM    3  O   UNL     1     -42.704  57.176 -52.401  1.00  0.00    -0.266 OA
HETATM    4  H   UNL     1     -40.004  57.815 -53.933  1.00  0.00     0.163 HD
ENDROOT
BRANCH   2   5
HETATM    5  C   UNL     1     -41.197  59.384 -53.176  1.00  0.00     0.217 C 
BRANCH   5   6
HETATM    6  C   UNL     1     -41.778  59.914 -54.477  1.00  0.00    -0.085 C 
BRANCH   6   7
HETATM    7  C   UNL     1     -42.278  60.367 -55.592  1.00  0.00    -0.078 C 
BRANCH   7   8
HETATM    8  C   UNL     1     -42.860  60.895 -56.893  1.00  0.00     0.269 C 
BRANCH   8   9
HETATM    9  O   UNL     1     -42.175  60.276 -57.979  1.00  0.00    -0.339 OA
BRANCH   9  10
HETATM   10  C   UNL     1     -41.508  61.101 -58.842  1.00  0.00     0.072 A 
HETATM   11  C   UNL     1     -40.557  62.062 -58.493  1.00  0.00     0.069 A 
HETATM   12  C   UNL     1     -39.938  62.858 -59.451  1.00  0.00     0.069 A 
HETATM   13  C   UNL     1     -40.287  62.679 -60.806  1.00  0.00    -0.007 A 
HETATM   14  N   UNL     1     -39.030  63.769 -59.058  1.00  0.00    -0.260 NA
HETATM   15  C   UNL     1     -41.239  61.713 -61.165  1.00  0.00     0.016 A 
HETATM   16  C   UNL     1     -39.659  63.487 -61.761  1.00  0.00     0.015 A 
HETATM   17  C   UNL     1     -41.844  60.930 -60.184  1.00  0.00     0.038 A 
HETATM   18  C   UNL     1     -38.722  64.431 -61.358  1.00  0.00     0.020 A 
HETATM   19  C   UNL     1     -38.445  64.532 -60.008  1.00  0.00     0.117 A 
ENDBRANCH   9  10
ENDBRANCH   8   9
ENDBRANCH   7   8
ENDBRANCH   6   7
ENDBRANCH   5   6
ENDBRANCH   2   5
BRANCH   1  20
HETATM   20  C   UNL     1     -41.161  55.667 -53.297  1.00  0.00     0.120 A 
HETATM   21  N   UNL     1     -40.686  55.358 -54.540  1.00  0.00    -0.272 N 
HETATM   22  N   UNL     1     -40.251  54.095 -54.667  1.00  0.00    -0.174 NA
HETATM   23  H   UNL     1     -40.623  55.982 -55.340  1.00  0.00     0.189 HD
HETATM   24  C   UNL     1     -40.484  53.535 -53.469  1.00  0.00     0.089 A 
HETATM   25  C   UNL     1     -41.054  54.491 -52.582  1.00  0.00     0.071 A 
BRANCH  24  26
HETATM   26  C   UNL     1     -40.155  52.134 -53.190  1.00  0.00    -0.006 A 
HETATM   27  C   UNL     1     -40.125  51.192 -54.228  1.00  0.00     0.014 A 
HETATM   28  C   UNL     1     -39.793  49.859 -53.974  1.00  0.00     0.001 A 
HETATM   29  C   UNL     1     -39.492  49.450 -52.677  1.00  0.00     0.000 A 
HETATM   30  C   UNL     1     -39.526  50.373 -51.633  1.00  0.00     0.001 A 
HETATM   31  C   UNL     1     -39.855  51.707 -51.888  1.00  0.00     0.014 A 
ENDBRANCH  24  26
ENDBRANCH   1  20
TORSDOF 8
ENDMDL
MODEL 8
REMARK VINA RESULT:      -7.1      2.545      4.236
REMARK  8 active torsions:
REMARK  status: ('A' for Active; 'I' for Inactive)
REMARK    1  A    between atoms: C_4  and  C_5 
REMARK    2  A    between atoms: C_9  and  C_10 
REMARK       I    between atoms: C_10  and  N_11 
REMARK    3  A    between atoms: N_11  and  C_12 
REMARK    4  A    between atoms: C_12  and  C_13 
REMARK    5  A    between atoms: C_13  and  C_14 
REMARK    6  A    between atoms: C_14  and  C_15 
REMARK    7  A    between atoms: C_15  and  O_16 
REMARK    8  A    between atoms: O_16  and  C_17 
ROOT
HETATM    1  C   UNL     1     -43.163  56.258 -57.159  1.00  0.00     0.270 C 
HETATM    2  N   UNL     1     -42.388  56.072 -58.274  1.00  0.00    -0.345 N 
HETATM    3  O   UNL     1     -44.099  57.050 -57.129  1.00  0.00    -0.266 OA
HETATM    4  H   UNL     1     -41.701  55.335 -58.292  1.00  0.00     0.163 HD
ENDROOT
BRANCH   2   5
HETATM    5  C   UNL     1     -42.669  56.769 -59.501  1.00  0.00     0.217 C 
BRANCH   5   6
HETATM    6  C   UNL     1     -42.290  58.231 -59.327  1.00  0.00    -0.085 C 
BRANCH   6   7
HETATM    7  C   UNL     1     -41.966  59.484 -59.176  1.00  0.00    -0.078 C 
BRANCH   7   8
HETATM    8  C   UNL     1     -41.587  60.946 -59.000  1.00  0.00     0.269 C 
BRANCH   8   9
HETATM    9  O   UNL     1     -41.204  61.152 -57.642  1.00  0.00    -0.339 OA
BRANCH   9  10
HETATM   10  C   UNL     1     -42.131  60.847 -56.684  1.00  0.00     0.072 A 
HETATM   11  C   UNL     1     -42.094  59.749 -55.822  1.00  0.00     0.069 A 
HETATM   12  C   UNL     1     -43.094  59.525 -54.882  1.00  0.00     0.069 A 
HETATM   13  C   UNL     1     -44.167  60.437 -54.807  1.00  0.00    -0.007 A 
HETATM   14  N   UNL     1     -43.009  58.450 -54.079  1.00  0.00    -0.260 NA
HETATM   15  C   UNL     1     -44.210  61.545 -55.666  1.00  0.00     0.016 A 
HETATM   16  C   UNL     1     -45.169  60.200 -53.858  1.00  0.00     0.015 A 
HETATM   17  C   UNL     1     -43.195  61.745 -56.599  1.00  0.00     0.038 A 
HETATM   18  C   UNL     1     -45.084  59.089 -53.028  1.00  0.00     0.020 A 
HETATM   19  C   UNL     1     -43.994  58.252 -53.176  1.00  0.00     0.117 A 
ENDBRANCH   9  10
ENDBRANCH   8   9
ENDBRANCH   7   8
ENDBRANCH   6   7
ENDBRANCH   5   6
ENDBRANCH   2   5
BRANCH   1  20
HETATM   20  C   UNL     1     -42.809  55.441 -56.030  1.00  0.00     0.120 A 
HETATM   21  N   UNL     1     -43.663  55.251 -54.982  1.00  0.00    -0.272 N 
HETATM   22  N   UNL     1     -43.192  54.435 -54.026  1.00  0.00    -0.174 NA
HETATM   23  H   UNL     1     -44.593  55.646 -54.876  1.00  0.00     0.189 HD
HETATM   24  C   UNL     1     -41.959  54.104 -54.442  1.00  0.00     0.089 A 
HETATM   25  C   UNL     1     -41.682  54.716 -55.697  1.00  0.00     0.071 A 
BRANCH  24  26
HETATM   26  C   UNL     1     -41.088  53.219 -53.662  1.00  0.00    -0.006 A 
HETATM   27  C   UNL     1     -40.923  53.421 -52.284  1.00  0.00     0.014 A 
HETATM   28  C   UNL     1     -40.111  52.570 -51.529  1.00  0.00     0.001 A 
HETATM   29  C   UNL     1     -39.449  51.510 -52.146  1.00  0.00     0.000 A 
HETATM   30  C   UNL     1     -39.596  51.303 -53.515  1.00  0.00     0.001 A 
HETATM   31  C   UNL     1     -40.411  52.151 -54.270  1.00  0.00     0.014 A 
ENDBRANCH  24  26
ENDBRANCH   1  20
TORSDOF 8
ENDMDL
MODEL 9
REMARK VINA RESULT:      -7.0      1.677      2.423
REMARK  8 active torsions:
REMARK  status: ('A' for Active; 'I' for Inactive)
REMARK    1  A    between atoms: C_4  and  C_5 
REMARK    2  A    between atoms: C_9  and  C_10 
REMARK       I    between atoms: C_10  and  N_11 
REMARK    3  A    between atoms: N_11  and  C_12 
REMARK    4  A    between atoms: C_12  and  C_13 
REMARK    5  A    between atoms: C_13  and  C_14 
REMARK    6  A    between atoms: C_14  and  C_15 
REMARK    7  A    between atoms: C_15  and  O_16 
REMARK    8  A    between atoms: O_16  and  C_17 
ROOT
HETATM    1  C   UNL     1     -42.103  57.852 -54.943  1.00  0.00     0.270 C 
HETATM    2  N   UNL     1     -43.118  58.149 -55.816  1.00  0.00    -0.345 N 
HETATM    3  O   UNL     1     -41.338  58.704 -54.506  1.00  0.00    -0.266 OA
HETATM    4  H   UNL     1     -43.791  57.440 -56.065  1.00  0.00     0.163 HD
ENDROOT
BRANCH   2   5
HETATM    5  C   UNL     1     -43.374  59.504 -56.228  1.00  0.00     0.217 C 
BRANCH   5   6
HETATM    6  C   UNL     1     -44.232  60.179 -55.170  1.00  0.00    -0.085 C 
BRANCH   6   7
HETATM    7  C   UNL     1     -44.967  60.758 -54.263  1.00  0.00    -0.078 C 
BRANCH   7   8
HETATM    8  C   UNL     1     -45.825  61.434 -53.205  1.00  0.00     0.269 C 
BRANCH   8   9
HETATM    9  O   UNL     1     -45.178  61.293 -51.943  1.00  0.00    -0.339 OA
BRANCH   9  10
HETATM   10  C   UNL     1     -44.612  60.079 -51.669  1.00  0.00     0.072 A 
HETATM   11  C   UNL     1     -43.251  59.831 -51.472  1.00  0.00     0.069 A 
HETATM   12  C   UNL     1     -42.774  58.552 -51.202  1.00  0.00     0.069 A 
HETATM   13  C   UNL     1     -43.698  57.489 -51.127  1.00  0.00    -0.007 A 
HETATM   14  N   UNL     1     -41.454  58.370 -51.024  1.00  0.00    -0.260 NA
HETATM   15  C   UNL     1     -45.067  57.730 -51.320  1.00  0.00     0.016 A 
HETATM   16  C   UNL     1     -43.206  56.206 -50.858  1.00  0.00     0.015 A 
HETATM   17  C   UNL     1     -45.516  59.021 -51.589  1.00  0.00     0.038 A 
HETATM   18  C   UNL     1     -41.842  56.014 -50.674  1.00  0.00     0.020 A 
HETATM   19  C   UNL     1     -41.016  57.118 -50.766  1.00  0.00     0.117 A 
ENDBRANCH   9  10
ENDBRANCH   8   9
ENDBRANCH   7   8
ENDBRANCH   6   7
ENDBRANCH   5   6
ENDBRANCH   2   5
BRANCH   1  20
HETATM   20  C   UNL     1     -42.014  56.468 -54.565  1.00  0.00     0.120 A 
HETATM   21  N   UNL     1     -43.118  55.667 -54.497  1.00  0.00    -0.272 N 
HETATM   22  N   UNL     1     -42.857  54.395 -54.160  1.00  0.00    -0.174 NA
HETATM   23  H   UNL     1     -44.079  55.938 -54.687  1.00  0.00     0.189 HD
HETATM   24  C   UNL     1     -41.530  54.363 -53.957  1.00  0.00     0.089 A 
HETATM   25  C   UNL     1     -40.965  55.646 -54.203  1.00  0.00     0.071 A 
BRANCH  24  26
HETATM   26  C   UNL     1     -40.835  53.136 -53.557  1.00  0.00    -0.006 A 
HETATM   27  C   UNL     1     -40.691  52.075 -54.462  1.00  0.00     0.014 A 
HETATM   28  C   UNL     1     -40.013  50.909 -54.095  1.00  0.00     0.001 A 
HETATM   29  C   UNL     1     -39.476  50.789 -52.815  1.00  0.00     0.000 A 
HETATM   30  C   UNL     1     -39.620  51.831 -51.902  1.00  0.00     0.001 A 
HETATM   31  C   UNL     1     -40.295  52.998 -52.270  1.00  0.00     0.014 A 
ENDBRANCH  24  26
ENDBRANCH   1  20
TORSDOF 8
ENDMDL
MODEL 10
REMARK VINA RESULT:      -7.0      2.916      5.744
REMARK  8 active torsions:
REMARK  status: ('A' for Active; 'I' for Inactive)
REMARK    1  A    between atoms: C_4  and  C_5 
REMARK    2  A    between atoms: C_9  and  C_10 
REMARK       I    between atoms: C_10  and  N_11 
REMARK    3  A    between atoms: N_11  and  C_12 
REMARK    4  A    between atoms: C_12  and  C_13 
REMARK    5  A    between atoms: C_13  and  C_14 
REMARK    6  A    between atoms: C_14  and  C_15 
REMARK    7  A    between atoms: C_15  and  O_16 
REMARK    8  A    between atoms: O_16  and  C_17 
ROOT
HETATM    1  C   UNL     1     -44.441  57.529 -52.075  1.00  0.00     0.270 C 
HETATM    2  N   UNL     1     -44.291  58.213 -53.254  1.00  0.00    -0.345 N 
HETATM    3  O   UNL     1     -45.164  57.927 -51.169  1.00  0.00    -0.266 OA
HETATM    4  H   UNL     1     -43.775  57.798 -54.015  1.00  0.00     0.163 HD
ENDROOT
BRANCH   2   5
HETATM    5  C   UNL     1     -45.026  59.423 -53.512  1.00  0.00     0.217 C 
BRANCH   5   6
HETATM    6  C   UNL     1     -44.374  60.147 -54.679  1.00  0.00    -0.085 C 
BRANCH   6   7
HETATM    7  C   UNL     1     -43.814  60.767 -55.680  1.00  0.00    -0.078 C 
BRANCH   7   8
HETATM    8  C   UNL     1     -43.161  61.489 -56.847  1.00  0.00     0.269 C 
BRANCH   8   9
HETATM    9  O   UNL     1     -43.830  61.106 -58.046  1.00  0.00    -0.339 OA
BRANCH   9  10
HETATM   10  C   UNL     1     -43.693  59.804 -58.442  1.00  0.00     0.072 A 
HETATM   11  C   UNL     1     -44.727  58.952 -58.839  1.00  0.00     0.069 A 
HETATM   12  C   UNL     1     -44.482  57.637 -59.220  1.00  0.00     0.069 A 
HETATM   13  C   UNL     1     -43.153  57.165 -59.204  1.00  0.00    -0.007 A 
HETATM   14  N   UNL     1     -45.515  56.859 -59.591  1.00  0.00    -0.260 NA
HETATM   15  C   UNL     1     -42.109  58.016 -58.811  1.00  0.00     0.016 A 
HETATM   16  C   UNL     1     -42.919  55.839 -59.587  1.00  0.00     0.015 A 
HETATM   17  C   UNL     1     -42.383  59.328 -58.433  1.00  0.00     0.038 A 
HETATM   18  C   UNL     1     -43.984  55.032 -59.969  1.00  0.00     0.020 A 
HETATM   19  C   UNL     1     -45.251  55.585 -59.954  1.00  0.00     0.117 A 
ENDBRANCH   9  10
ENDBRANCH   8   9
ENDBRANCH   7   8
ENDBRANCH   6   7
ENDBRANCH   5   6
ENDBRANCH   2   5
BRANCH   1  20
HETATM   20  C   UNL     1     -43.700  56.301 -51.989  1.00  0.00     0.120 A 
HETATM   21  N   UNL     1     -43.940  55.382 -51.006  1.00  0.00    -0.272 N 
HETATM   22  N   UNL     1     -43.184  54.276 -51.087  1.00  0.00    -0.174 NA
HETATM   23  H   UNL     1     -44.624  55.456 -50.259  1.00  0.00     0.189 HD
HETATM   24  C   UNL     1     -42.384  54.490 -52.144  1.00  0.00     0.089 A 
HETATM   25  C   UNL     1     -42.678  55.750 -52.737  1.00  0.00     0.071 A 
BRANCH  24  26
HETATM   26  C   UNL     1     -41.384  53.507 -52.572  1.00  0.00    -0.006 A 
HETATM   27  C   UNL     1     -40.569  52.868 -51.627  1.00  0.00     0.014 A 
HETATM   28  C   UNL     1     -39.626  51.915 -52.024  1.00  0.00     0.001 A 
HETATM   29  C   UNL     1     -39.484  51.594 -53.372  1.00  0.00     0.000 A 
HETATM   30  C   UNL     1     -40.281  52.228 -54.323  1.00  0.00     0.001 A 
HETATM   31  C   UNL     1     -41.226  53.178 -53.926  1.00  0.00     0.014 A 
ENDBRANCH  24  26
ENDBRANCH   1  20
TORSDOF 8
ENDMDL
