MODEL 1
REMARK VINA RESULT:      -8.3      0.000      0.000
REMARK  7 active torsions:
REMARK  status: ('A' for Active; 'I' for Inactive)
REMARK       I    between atoms: C_2  and  N_3 
REMARK    1  A    between atoms: N_3  and  C_4 
REMARK    2  A    between atoms: C_6  and  N_7 
REMARK       I    between atoms: N_7  and  C_8 
REMARK    3  A    between atoms: C_8  and  C_9 
REMARK       I    between atoms: C_9  and  N_10 
REMARK    4  A    between atoms: N_10  and  C_11 
REMARK    5  A    between atoms: C_11  and  C_12 
REMARK    6  A    between atoms: C_12  and  O_13 
REMARK    7  A    between atoms: C_12  and  C_14 
ROOT
HETATM    1  C   UNL     1     -41.518  58.266 -51.660  1.00  0.00     0.309 C 
HETATM    2  N   UNL     1     -40.929  57.069 -51.335  1.00  0.00    -0.350 N 
HETATM    3  O   UNL     1     -42.306  58.900 -50.970  1.00  0.00    -0.262 OA
HETATM    4  H   UNL     1     -40.453  56.579 -52.092  1.00  0.00     0.163 HD
ENDROOT
BRANCH   1   5
HETATM    5  C   UNL     1     -41.143  58.783 -53.066  1.00  0.00     0.313 C 
HETATM    6  N   UNL     1     -42.190  58.658 -53.955  1.00  0.00    -0.319 N 
HETATM    7  H   UNL     1     -43.037  58.263 -53.549  1.00  0.00     0.169 HD
HETATM    8  O   UNL     1     -40.009  59.197 -53.262  1.00  0.00    -0.262 OA
BRANCH   6   9
HETATM    9  C   UNL     1     -42.185  58.936 -55.332  1.00  0.00     0.037 A 
HETATM   10  C   UNL     1     -42.160  57.949 -56.322  1.00  0.00     0.059 A 
HETATM   11  C   UNL     1     -42.227  58.281 -57.684  1.00  0.00     0.036 A 
HETATM   12  C   UNL     1     -42.265  59.625 -58.047  1.00  0.00     0.029 A 
HETATM   13  C   UNL     1     -42.265  60.621 -57.067  1.00  0.00     0.004 A 
HETATM   14  C   UNL     1     -42.230  60.278 -55.716  1.00  0.00     0.029 A 
BRANCH  11  15
HETATM   15  N   UNL     1     -42.204  57.209 -58.593  1.00  0.00    -0.327 N 
HETATM   16  C   UNL     1     -43.167  56.622 -59.358  1.00  0.00     0.218 C 
HETATM   17  C   UNL     1     -44.622  56.932 -59.145  1.00  0.00     0.117 C 
HETATM   18  O   UNL     1     -42.825  55.784 -60.197  1.00  0.00    -0.274 OA
HETATM   19  H   UNL     1     -41.310  56.744 -58.713  1.00  0.00     0.169 HD
ENDBRANCH  11  15
ENDBRANCH   6   9
ENDBRANCH   1   5
BRANCH   2  20
HETATM   20  C   UNL     1     -41.346  56.288 -50.183  1.00  0.00     0.159 C 
BRANCH  20  21
HETATM   21  C   UNL     1     -42.493  55.327 -50.536  1.00  0.00     0.171 C 
BRANCH  21  22
HETATM   22  O   UNL     1     -42.585  54.329 -49.507  1.00  0.00    -0.389 OA
HETATM   23  H   UNL     1     -42.506  53.473 -49.964  1.00  0.00     0.210 HD
ENDBRANCH  21  22
BRANCH  21  24
HETATM   24  C   UNL     1     -42.310  54.702 -51.885  1.00  0.00     0.000 A 
HETATM   25  C   UNL     1     -41.376  53.668 -52.219  1.00  0.00     0.001 A 
HETATM   26  C   UNL     1     -41.534  53.375 -53.579  1.00  0.00     0.044 A 
HETATM   27  C   UNL     1     -40.411  52.954 -51.478  1.00  0.00     0.014 A 
HETATM   28  C   UNL     1     -40.752  52.400 -54.220  1.00  0.00     0.030 A 
HETATM   29  N   UNL     1     -42.534  54.197 -54.051  1.00  0.00    -0.360 N 
HETATM   30  C   UNL     1     -39.800  51.710 -53.463  1.00  0.00     0.002 A 
HETATM   31  C   UNL     1     -39.632  51.980 -52.109  1.00  0.00     0.001 A 
HETATM   32  C   UNL     1     -43.048  54.241 -55.402  1.00  0.00     0.155 C 
HETATM   33  C   UNL     1     -43.005  54.997 -53.042  1.00  0.00     0.101 A 
ENDBRANCH  21  24
ENDBRANCH  20  21
ENDBRANCH   2  20
TORSDOF 7
ENDMDL
MODEL 2
REMARK VINA RESULT:      -8.3      3.870      6.730
REMARK  7 active torsions:
REMARK  status: ('A' for Active; 'I' for Inactive)
REMARK       I    between atoms: C_2  and  N_3 
REMARK    1  A    between atoms: N_3  and  C_4 
REMARK    2  A    between atoms: C_6  and  N_7 
REMARK       I    between atoms: N_7  and  C_8 
REMARK    3  A    between atoms: C_8  and  C_9 
REMARK       I    between atoms: C_9  and  N_10 
REMARK    4  A    between atoms: N_10  and  C_11 
REMARK    5  A    between atoms: C_11  and  C_12 
REMARK    6  A    between atoms: C_12  and  O_13 
REMARK    7  A    between atoms: C_12  and  C_14 
ROOT
HETATM    1  C   UNL     1     -41.202  58.970 -52.634  1.00  0.00     0.309 C 
HETATM    2  N   UNL     1     -42.109  57.994 -52.965  1.00  0.00    -0.350 N 
HETATM    3  O   UNL     1     -40.153  59.216 -53.215  1.00  0.00    -0.262 OA
HETATM    4  H   UNL     1     -42.829  57.791 -52.272  1.00  0.00     0.163 HD
ENDROOT
BRANCH   1   5
HETATM    5  C   UNL     1     -41.580  59.765 -51.365  1.00  0.00     0.313 C 
HETATM    6  N   UNL     1     -42.745  60.483 -51.536  1.00  0.00    -0.319 N 
HETATM    7  H   UNL     1     -43.175  60.368 -52.452  1.00  0.00     0.169 HD
HETATM    8  O   UNL     1     -40.837  59.719 -50.394  1.00  0.00    -0.262 OA
BRANCH   6   9
HETATM    9  C   UNL     1     -43.338  61.385 -50.636  1.00  0.00     0.037 A 
HETATM   10  C   UNL     1     -44.428  61.063 -49.822  1.00  0.00     0.059 A 
HETATM   11  C   UNL     1     -44.937  61.981 -48.890  1.00  0.00     0.036 A 
HETATM   12  C   UNL     1     -44.372  63.252 -48.821  1.00  0.00     0.029 A 
HETATM   13  C   UNL     1     -43.299  63.593 -49.648  1.00  0.00     0.004 A 
HETATM   14  C   UNL     1     -42.781  62.662 -50.547  1.00  0.00     0.029 A 
BRANCH  11  15
HETATM   15  N   UNL     1     -46.029  61.550 -48.117  1.00  0.00    -0.327 N 
HETATM   16  C   UNL     1     -46.151  61.181 -46.811  1.00  0.00     0.218 C 
HETATM   17  C   UNL     1     -44.938  60.937 -45.958  1.00  0.00     0.117 C 
HETATM   18  O   UNL     1     -47.282  60.995 -46.352  1.00  0.00    -0.274 OA
HETATM   19  H   UNL     1     -46.916  61.468 -48.603  1.00  0.00     0.169 HD
ENDBRANCH  11  15
ENDBRANCH   6   9
ENDBRANCH   1   5
BRANCH   2  20
HETATM   20  C   UNL     1     -41.820  56.972 -53.956  1.00  0.00     0.159 C 
BRANCH  20  21
HETATM   21  C   UNL     1     -42.481  55.632 -53.596  1.00  0.00     0.171 C 
BRANCH  21  22
HETATM   22  O   UNL     1     -43.746  55.901 -52.972  1.00  0.00    -0.389 OA
HETATM   23  H   UNL     1     -44.306  55.129 -53.168  1.00  0.00     0.210 HD
ENDBRANCH  21  22
BRANCH  21  24
HETATM   24  C   UNL     1     -41.608  54.792 -52.714  1.00  0.00     0.000 A 
HETATM   25  C   UNL     1     -41.009  53.538 -53.062  1.00  0.00     0.001 A 
HETATM   26  C   UNL     1     -40.276  53.094 -51.955  1.00  0.00     0.044 A 
HETATM   27  C   UNL     1     -41.027  52.743 -54.227  1.00  0.00     0.014 A 
HETATM   28  C   UNL     1     -39.570  51.881 -51.974  1.00  0.00     0.030 A 
HETATM   29  N   UNL     1     -40.419  54.051 -50.973  1.00  0.00    -0.360 N 
HETATM   30  C   UNL     1     -39.607  51.111 -53.141  1.00  0.00     0.002 A 
HETATM   31  C   UNL     1     -40.323  51.536 -54.255  1.00  0.00     0.001 A 
HETATM   32  C   UNL     1     -39.829  54.025 -49.652  1.00  0.00     0.155 C 
HETATM   33  C   UNL     1     -41.217  55.072 -51.419  1.00  0.00     0.101 A 
ENDBRANCH  21  24
ENDBRANCH  20  21
ENDBRANCH   2  20
TORSDOF 7
ENDMDL
MODEL 3
REMARK VINA RESULT:      -8.3      2.185      3.611
REMARK  7 active torsions:
REMARK  status: ('A' for Active; 'I' for Inactive)
REMARK       I    between atoms: C_2  and  N_3 
REMARK    1  A    between atoms: N_3  and  C_4 
REMARK    2  A    between atoms: C_6  and  N_7 
REMARK       I    between atoms: N_7  and  C_8 
REMARK    3  A    between atoms: C_8  and  C_9 
REMARK       I    between atoms: C_9  and  N_10 
REMARK    4  A    between atoms: N_10  and  C_11 
REMARK    5  A    between atoms: C_11  and  C_12 
REMARK    6  A    between atoms: C_12  and  O_13 
REMARK    7  A    between atoms: C_12  and  C_14 
ROOT
HETATM    1  C   UNL     1     -41.898  58.867 -55.172  1.00  0.00     0.309 C 
HETATM    2  N   UNL     1     -41.774  57.571 -54.733  1.00  0.00    -0.350 N 
HETATM    3  O   UNL     1     -41.419  59.862 -54.646  1.00  0.00    -0.262 OA
HETATM    4  H   UNL     1     -42.389  56.885 -55.168  1.00  0.00     0.163 HD
ENDROOT
BRANCH   1   5
HETATM    5  C   UNL     1     -42.783  59.015 -56.429  1.00  0.00     0.313 C 
HETATM    6  N   UNL     1     -43.892  58.198 -56.377  1.00  0.00    -0.319 N 
HETATM    7  H   UNL     1     -43.961  57.642 -55.525  1.00  0.00     0.169 HD
HETATM    8  O   UNL     1     -42.422  59.771 -57.321  1.00  0.00    -0.262 OA
BRANCH   6   9
HETATM    9  C   UNL     1     -44.862  58.000 -57.375  1.00  0.00     0.037 A 
HETATM   10  C   UNL     1     -44.611  57.333 -58.577  1.00  0.00     0.059 A 
HETATM   11  C   UNL     1     -45.634  57.101 -59.509  1.00  0.00     0.036 A 
HETATM   12  C   UNL     1     -46.909  57.598 -59.246  1.00  0.00     0.029 A 
HETATM   13  C   UNL     1     -47.165  58.290 -58.058  1.00  0.00     0.004 A 
HETATM   14  C   UNL     1     -46.147  58.485 -57.125  1.00  0.00     0.029 A 
BRANCH  11  15
HETATM   15  N   UNL     1     -45.273  56.412 -60.680  1.00  0.00    -0.327 N 
HETATM   16  C   UNL     1     -45.016  55.100 -60.940  1.00  0.00     0.218 C 
HETATM   17  C   UNL     1     -44.841  54.108 -59.825  1.00  0.00     0.117 C 
HETATM   18  O   UNL     1     -44.872  54.747 -62.114  1.00  0.00    -0.274 OA
HETATM   19  H   UNL     1     -45.153  56.979 -61.513  1.00  0.00     0.169 HD
ENDBRANCH  11  15
ENDBRANCH   6   9
ENDBRANCH   1   5
BRANCH   2  20
HETATM   20  C   UNL     1     -41.210  57.245 -53.435  1.00  0.00     0.159 C 
BRANCH  20  21
HETATM   21  C   UNL     1     -42.189  56.418 -52.585  1.00  0.00     0.171 C 
BRANCH  21  22
HETATM   22  O   UNL     1     -42.854  57.300 -51.668  1.00  0.00    -0.389 OA
HETATM   23  H   UNL     1     -42.692  58.199 -52.004  1.00  0.00     0.210 HD
ENDBRANCH  21  22
BRANCH  21  24
HETATM   24  C   UNL     1     -41.502  55.300 -51.862  1.00  0.00     0.000 A 
HETATM   25  C   UNL     1     -40.930  54.130 -52.459  1.00  0.00     0.001 A 
HETATM   26  C   UNL     1     -40.392  53.347 -51.431  1.00  0.00     0.044 A 
HETATM   27  C   UNL     1     -40.823  53.671 -53.789  1.00  0.00     0.014 A 
HETATM   28  C   UNL     1     -39.760  52.120 -51.690  1.00  0.00     0.030 A 
HETATM   29  N   UNL     1     -40.622  54.024 -50.252  1.00  0.00    -0.360 N 
HETATM   30  C   UNL     1     -39.670  51.688 -53.017  1.00  0.00     0.002 A 
HETATM   31  C   UNL     1     -40.191  52.453 -54.054  1.00  0.00     0.001 A 
HETATM   32  C   UNL     1     -40.233  53.600 -48.925  1.00  0.00     0.155 C 
HETATM   33  C   UNL     1     -41.288  55.195 -50.501  1.00  0.00     0.101 A 
ENDBRANCH  21  24
ENDBRANCH  20  21
ENDBRANCH   2  20
TORSDOF 7
ENDMDL
MODEL 4
REMARK VINA RESULT:      -8.2      1.991      3.262
REMARK  7 active torsions:
REMARK  status: ('A' for Active; 'I' for Inactive)
REMARK       I    between atoms: C_2  and  N_3 
REMARK    1  A    between atoms: N_3  and  C_4 
REMARK    2  A    between atoms: C_6  and  N_7 
REMARK       I    between atoms: N_7  and  C_8 
REMARK    3  A    between atoms: C_8  and  C_9 
REMARK       I    between atoms: C_9  and  N_10 
REMARK    4  A    between atoms: N_10  and  C_11 
REMARK    5  A    between atoms: C_11  and  C_12 
REMARK    6  A    between atoms: C_12  and  O_13 
REMARK    7  A    between atoms: C_12  and  C_14 
ROOT
HETATM    1  C   UNL     1     -41.586  58.876 -54.144  1.00  0.00     0.309 C 
HETATM    2  N   UNL     1     -42.342  57.930 -53.498  1.00  0.00    -0.350 N 
HETATM    3  O   UNL     1     -40.725  59.587 -53.642  1.00  0.00    -0.262 OA
HETATM    4  H   UNL     1     -43.144  57.565 -54.010  1.00  0.00     0.163 HD
ENDROOT
BRANCH   1   5
HETATM    5  C   UNL     1     -41.942  59.044 -55.638  1.00  0.00     0.313 C 
HETATM    6  N   UNL     1     -42.435  57.877 -56.183  1.00  0.00    -0.319 N 
HETATM    7  H   UNL     1     -42.498  57.103 -55.524  1.00  0.00     0.169 HD
HETATM    8  O   UNL     1     -41.734  60.121 -56.178  1.00  0.00    -0.262 OA
BRANCH   6   9
HETATM    9  C   UNL     1     -42.773  57.632 -57.524  1.00  0.00     0.037 A 
HETATM   10  C   UNL     1     -43.979  57.051 -57.926  1.00  0.00     0.059 A 
HETATM   11  C   UNL     1     -44.296  56.893 -59.284  1.00  0.00     0.036 A 
HETATM   12  C   UNL     1     -43.359  57.276 -60.242  1.00  0.00     0.029 A 
HETATM   13  C   UNL     1     -42.139  57.834 -59.851  1.00  0.00     0.004 A 
HETATM   14  C   UNL     1     -41.850  58.016 -58.499  1.00  0.00     0.029 A 
BRANCH  11  15
HETATM   15  N   UNL     1     -45.540  56.305 -59.574  1.00  0.00    -0.327 N 
HETATM   16  C   UNL     1     -46.719  56.812 -60.029  1.00  0.00     0.218 C 
HETATM   17  C   UNL     1     -46.958  58.295 -60.079  1.00  0.00     0.117 C 
HETATM   18  O   UNL     1     -47.616  56.027 -60.349  1.00  0.00    -0.274 OA
HETATM   19  H   UNL     1     -45.613  55.307 -59.405  1.00  0.00     0.169 HD
ENDBRANCH  11  15
ENDBRANCH   6   9
ENDBRANCH   1   5
BRANCH   2  20
HETATM   20  C   UNL     1     -42.350  57.801 -52.051  1.00  0.00     0.159 C 
BRANCH  20  21
HETATM   21  C   UNL     1     -43.073  56.520 -51.602  1.00  0.00     0.171 C 
BRANCH  21  22
HETATM   22  O   UNL     1     -44.056  56.874 -50.616  1.00  0.00    -0.389 OA
HETATM   23  H   UNL     1     -44.307  56.038 -50.184  1.00  0.00     0.210 HD
ENDBRANCH  21  22
BRANCH  21  24
HETATM   24  C   UNL     1     -42.121  55.490 -51.076  1.00  0.00     0.000 A 
HETATM   25  C   UNL     1     -41.496  54.449 -51.834  1.00  0.00     0.001 A 
HETATM   26  C   UNL     1     -40.685  53.713 -50.961  1.00  0.00     0.044 A 
HETATM   27  C   UNL     1     -41.549  54.069 -53.192  1.00  0.00     0.014 A 
HETATM   28  C   UNL     1     -39.936  52.610 -51.400  1.00  0.00     0.030 A 
HETATM   29  N   UNL     1     -40.809  54.296 -49.717  1.00  0.00    -0.360 N 
HETATM   30  C   UNL     1     -40.010  52.254 -52.751  1.00  0.00     0.002 A 
HETATM   31  C   UNL     1     -40.803  52.974 -53.637  1.00  0.00     0.001 A 
HETATM   32  C   UNL     1     -40.145  53.880 -48.502  1.00  0.00     0.155 C 
HETATM   33  C   UNL     1     -41.669  55.361 -49.777  1.00  0.00     0.101 A 
ENDBRANCH  21  24
ENDBRANCH  20  21
ENDBRANCH   2  20
TORSDOF 7
ENDMDL
MODEL 5
REMARK VINA RESULT:      -8.1      1.801      2.641
REMARK  7 active torsions:
REMARK  status: ('A' for Active; 'I' for Inactive)
REMARK       I    between atoms: C_2  and  N_3 
REMARK    1  A    between atoms: N_3  and  C_4 
REMARK    2  A    between atoms: C_6  and  N_7 
REMARK       I    between atoms: N_7  and  C_8 
REMARK    3  A    between atoms: C_8  and  C_9 
REMARK       I    between atoms: C_9  and  N_10 
REMARK    4  A    between atoms: N_10  and  C_11 
REMARK    5  A    between atoms: C_11  and  C_12 
REMARK    6  A    between atoms: C_12  and  O_13 
REMARK    7  A    between atoms: C_12  and  C_14 
ROOT
HETATM    1  C   UNL     1     -44.044  56.910 -51.587  1.00  0.00     0.309 C 
HETATM    2  N   UNL     1     -42.973  56.058 -51.473  1.00  0.00    -0.350 N 
HETATM    3  O   UNL     1     -44.908  57.109 -50.743  1.00  0.00    -0.262 OA
HETATM    4  H   UNL     1     -42.459  55.862 -52.331  1.00  0.00     0.163 HD
ENDROOT
BRANCH   1   5
HETATM    5  C   UNL     1     -44.134  57.618 -52.957  1.00  0.00     0.313 C 
HETATM    6  N   UNL     1     -42.945  57.545 -53.651  1.00  0.00    -0.319 N 
HETATM    7  H   UNL     1     -42.209  57.034 -53.167  1.00  0.00     0.169 HD
HETATM    8  O   UNL     1     -45.177  58.176 -53.267  1.00  0.00    -0.262 OA
BRANCH   6   9
HETATM    9  C   UNL     1     -42.630  58.149 -54.880  1.00  0.00     0.037 A 
HETATM   10  C   UNL     1     -42.437  57.436 -56.067  1.00  0.00     0.059 A 
HETATM   11  C   UNL     1     -42.195  58.096 -57.282  1.00  0.00     0.036 A 
HETATM   12  C   UNL     1     -42.092  59.485 -57.284  1.00  0.00     0.029 A 
HETATM   13  C   UNL     1     -42.257  60.206 -56.099  1.00  0.00     0.004 A 
HETATM   14  C   UNL     1     -42.530  59.541 -54.904  1.00  0.00     0.029 A 
BRANCH  11  15
HETATM   15  N   UNL     1     -42.024  57.281 -58.416  1.00  0.00    -0.327 N 
HETATM   16  C   UNL     1     -42.900  56.756 -59.318  1.00  0.00     0.218 C 
HETATM   17  C   UNL     1     -44.382  56.791 -59.071  1.00  0.00     0.117 C 
HETATM   18  O   UNL     1     -42.449  56.196 -60.321  1.00  0.00    -0.274 OA
HETATM   19  H   UNL     1     -41.073  56.993 -58.620  1.00  0.00     0.169 HD
ENDBRANCH  11  15
ENDBRANCH   6   9
ENDBRANCH   1   5
BRANCH   2  20
HETATM   20  C   UNL     1     -42.851  55.109 -50.380  1.00  0.00     0.159 C 
BRANCH  20  21
HETATM   21  C   UNL     1     -41.379  54.838 -50.029  1.00  0.00     0.171 C 
BRANCH  21  22
HETATM   22  O   UNL     1     -40.613  56.013 -50.337  1.00  0.00    -0.389 OA
HETATM   23  H   UNL     1     -41.220  56.763 -50.208  1.00  0.00     0.210 HD
ENDBRANCH  21  22
BRANCH  21  24
HETATM   24  C   UNL     1     -40.841  53.636 -50.743  1.00  0.00     0.000 A 
HETATM   25  C   UNL     1     -40.613  53.519 -52.152  1.00  0.00     0.001 A 
HETATM   26  C   UNL     1     -40.107  52.238 -52.398  1.00  0.00     0.044 A 
HETATM   27  C   UNL     1     -40.795  54.398 -53.241  1.00  0.00     0.014 A 
HETATM   28  C   UNL     1     -39.784  51.807 -53.695  1.00  0.00     0.030 A 
HETATM   29  N   UNL     1     -40.021  51.603 -51.178  1.00  0.00    -0.360 N 
HETATM   30  C   UNL     1     -39.976  52.697 -54.757  1.00  0.00     0.002 A 
HETATM   31  C   UNL     1     -40.473  53.976 -54.535  1.00  0.00     0.001 A 
HETATM   32  C   UNL     1     -39.541  50.260 -50.937  1.00  0.00     0.155 C 
HETATM   33  C   UNL     1     -40.461  52.433 -50.180  1.00  0.00     0.101 A 
ENDBRANCH  21  24
ENDBRANCH  20  21
ENDBRANCH   2  20
TORSDOF 7
ENDMDL
MODEL 6
REMARK VINA RESULT:      -7.9      2.223      3.115
REMARK  7 active torsions:
REMARK  status: ('A' for Active; 'I' for Inactive)
REMARK       I    between atoms: C_2  and  N_3 
REMARK    1  A    between atoms: N_3  and  C_4 
REMARK    2  A    between atoms: C_6  and  N_7 
REMARK       I    between atoms: N_7  and  C_8 
REMARK    3  A    between atoms: C_8  and  C_9 
REMARK       I    between atoms: C_9  and  N_10 
REMARK    4  A    between atoms: N_10  and  C_11 
REMARK    5  A    between atoms: C_11  and  C_12 
REMARK    6  A    between atoms: C_12  and  O_13 
REMARK    7  A    between atoms: C_12  and  C_14 
ROOT
HETATM    1  C   UNL     1     -44.349  57.852 -53.644  1.00  0.00     0.309 C 
HETATM    2  N   UNL     1     -43.390  56.973 -53.204  1.00  0.00    -0.350 N 
HETATM    3  O   UNL     1     -45.101  58.519 -52.944  1.00  0.00    -0.262 OA
HETATM    4  H   UNL     1     -42.985  56.356 -53.908  1.00  0.00     0.163 HD
ENDROOT
BRANCH   1   5
HETATM    5  C   UNL     1     -44.472  57.920 -55.182  1.00  0.00     0.313 C 
HETATM    6  N   UNL     1     -43.289  57.588 -55.808  1.00  0.00    -0.319 N 
HETATM    7  H   UNL     1     -42.535  57.341 -55.169  1.00  0.00     0.169 HD
HETATM    8  O   UNL     1     -45.533  58.277 -55.676  1.00  0.00    -0.262 OA
BRANCH   6   9
HETATM    9  C   UNL     1     -43.003  57.629 -57.183  1.00  0.00     0.037 A 
HETATM   10  C   UNL     1     -43.437  56.662 -58.093  1.00  0.00     0.059 A 
HETATM   11  C   UNL     1     -43.183  56.789 -59.468  1.00  0.00     0.036 A 
HETATM   12  C   UNL     1     -42.437  57.877 -59.916  1.00  0.00     0.029 A 
HETATM   13  C   UNL     1     -41.976  58.837 -59.011  1.00  0.00     0.004 A 
HETATM   14  C   UNL     1     -42.263  58.716 -57.652  1.00  0.00     0.029 A 
BRANCH  11  15
HETATM   15  N   UNL     1     -43.673  55.762 -60.295  1.00  0.00    -0.327 N 
HETATM   16  C   UNL     1     -44.883  55.544 -60.881  1.00  0.00     0.218 C 
HETATM   17  C   UNL     1     -46.088  56.356 -60.498  1.00  0.00     0.117 C 
HETATM   18  O   UNL     1     -44.987  54.624 -61.697  1.00  0.00    -0.274 OA
HETATM   19  H   UNL     1     -43.027  55.008 -60.500  1.00  0.00     0.169 HD
ENDBRANCH  11  15
ENDBRANCH   6   9
ENDBRANCH   1   5
BRANCH   2  20
HETATM   20  C   UNL     1     -43.291  56.567 -51.813  1.00  0.00     0.159 C 
BRANCH  20  21
HETATM   21  C   UNL     1     -41.826  56.437 -51.365  1.00  0.00     0.171 C 
BRANCH  21  22
HETATM   22  O   UNL     1     -41.030  57.346 -52.141  1.00  0.00    -0.389 OA
HETATM   23  H   UNL     1     -40.916  56.920 -53.009  1.00  0.00     0.210 HD
ENDBRANCH  21  22
BRANCH  21  24
HETATM   24  C   UNL     1     -41.322  55.032 -51.488  1.00  0.00     0.000 A 
HETATM   25  C   UNL     1     -40.912  54.381 -52.697  1.00  0.00     0.001 A 
HETATM   26  C   UNL     1     -40.512  53.081 -52.367  1.00  0.00     0.044 A 
HETATM   27  C   UNL     1     -40.847  54.791 -54.046  1.00  0.00     0.014 A 
HETATM   28  C   UNL     1     -40.059  52.178 -53.342  1.00  0.00     0.030 A 
HETATM   29  N   UNL     1     -40.666  52.951 -51.003  1.00  0.00    -0.360 N 
HETATM   30  C   UNL     1     -40.006  52.609 -54.671  1.00  0.00     0.002 A 
HETATM   31  C   UNL     1     -40.392  53.898 -55.021  1.00  0.00     0.001 A 
HETATM   32  C   UNL     1     -40.367  51.779 -50.211  1.00  0.00     0.155 C 
HETATM   33  C   UNL     1     -41.152  54.115 -50.468  1.00  0.00     0.101 A 
ENDBRANCH  21  24
ENDBRANCH  20  21
ENDBRANCH   2  20
TORSDOF 7
ENDMDL
MODEL 7
REMARK VINA RESULT:      -7.9      1.362      2.309
REMARK  7 active torsions:
REMARK  status: ('A' for Active; 'I' for Inactive)
REMARK       I    between atoms: C_2  and  N_3 
REMARK    1  A    between atoms: N_3  and  C_4 
REMARK    2  A    between atoms: C_6  and  N_7 
REMARK       I    between atoms: N_7  and  C_8 
REMARK    3  A    between atoms: C_8  and  C_9 
REMARK       I    between atoms: C_9  and  N_10 
REMARK    4  A    between atoms: N_10  and  C_11 
REMARK    5  A    between atoms: C_11  and  C_12 
REMARK    6  A    between atoms: C_12  and  O_13 
REMARK    7  A    between atoms: C_12  and  C_14 
ROOT
HETATM    1  C   UNL     1     -41.025  58.504 -51.769  1.00  0.00     0.309 C 
HETATM    2  N   UNL     1     -41.158  57.164 -51.498  1.00  0.00    -0.350 N 
HETATM    3  O   UNL     1     -40.635  59.367 -50.994  1.00  0.00    -0.262 OA
HETATM    4  H   UNL     1     -41.676  56.613 -52.182  1.00  0.00     0.163 HD
ENDROOT
BRANCH   1   5
HETATM    5  C   UNL     1     -41.476  58.898 -53.192  1.00  0.00     0.313 C 
HETATM    6  N   UNL     1     -42.541  58.135 -53.624  1.00  0.00    -0.319 N 
HETATM    7  H   UNL     1     -42.866  57.450 -52.944  1.00  0.00     0.169 HD
HETATM    8  O   UNL     1     -40.863  59.774 -53.786  1.00  0.00    -0.262 OA
BRANCH   6   9
HETATM    9  C   UNL     1     -43.150  58.150 -54.890  1.00  0.00     0.037 A 
HETATM   10  C   UNL     1     -42.514  57.729 -56.061  1.00  0.00     0.059 A 
HETATM   11  C   UNL     1     -43.193  57.698 -57.289  1.00  0.00     0.036 A 
HETATM   12  C   UNL     1     -44.510  58.149 -57.340  1.00  0.00     0.029 A 
HETATM   13  C   UNL     1     -45.148  58.597 -56.180  1.00  0.00     0.004 A 
HETATM   14  C   UNL     1     -44.473  58.591 -54.960  1.00  0.00     0.029 A 
BRANCH  11  15
HETATM   15  N   UNL     1     -42.459  57.249 -58.402  1.00  0.00    -0.327 N 
HETATM   16  C   UNL     1     -42.688  56.281 -59.332  1.00  0.00     0.218 C 
HETATM   17  C   UNL     1     -43.790  55.275 -59.149  1.00  0.00     0.117 C 
HETATM   18  O   UNL     1     -41.935  56.208 -60.306  1.00  0.00    -0.274 OA
HETATM   19  H   UNL     1     -41.567  57.704 -58.561  1.00  0.00     0.169 HD
ENDBRANCH  11  15
ENDBRANCH   6   9
ENDBRANCH   1   5
BRANCH   2  20
HETATM   20  C   UNL     1     -41.040  56.631 -50.152  1.00  0.00     0.159 C 
BRANCH  20  21
HETATM   21  C   UNL     1     -41.746  55.271 -50.018  1.00  0.00     0.171 C 
BRANCH  21  22
HETATM   22  O   UNL     1     -41.479  54.746 -48.709  1.00  0.00    -0.389 OA
HETATM   23  H   UNL     1     -41.315  53.795 -48.835  1.00  0.00     0.210 HD
ENDBRANCH  21  22
BRANCH  21  24
HETATM   24  C   UNL     1     -41.322  54.309 -51.086  1.00  0.00     0.000 A 
HETATM   25  C   UNL     1     -41.896  54.188 -52.393  1.00  0.00     0.001 A 
HETATM   26  C   UNL     1     -41.207  53.173 -53.068  1.00  0.00     0.044 A 
HETATM   27  C   UNL     1     -42.944  54.857 -53.060  1.00  0.00     0.014 A 
HETATM   28  C   UNL     1     -41.538  52.803 -54.382  1.00  0.00     0.030 A 
HETATM   29  N   UNL     1     -40.243  52.703 -52.203  1.00  0.00    -0.360 N 
HETATM   30  C   UNL     1     -42.582  53.482 -55.019  1.00  0.00     0.002 A 
HETATM   31  C   UNL     1     -43.276  54.497 -54.369  1.00  0.00     0.001 A 
HETATM   32  C   UNL     1     -39.282  51.655 -52.471  1.00  0.00     0.155 C 
HETATM   33  C   UNL     1     -40.305  53.377 -51.012  1.00  0.00     0.101 A 
ENDBRANCH  21  24
ENDBRANCH  20  21
ENDBRANCH   2  20
TORSDOF 7
ENDMDL
MODEL 8
REMARK VINA RESULT:      -7.7      1.873      2.202
REMARK  7 active torsions:
REMARK  status: ('A' for Active; 'I' for Inactive)
REMARK       I    between atoms: C_2  and  N_3 
REMARK    1  A    between atoms: N_3  and  C_4 
REMARK    2  A    between atoms: C_6  and  N_7 
REMARK       I    between atoms: N_7  and  C_8 
REMARK    3  A    between atoms: C_8  and  C_9 
REMARK       I    between atoms: C_9  and  N_10 
REMARK    4  A    between atoms: N_10  and  C_11 
REMARK    5  A    between atoms: C_11  and  C_12 
REMARK    6  A    between atoms: C_12  and  O_13 
REMARK    7  A    between atoms: C_12  and  C_14 
ROOT
HETATM    1  C   UNL     1     -41.487  57.134 -51.314  1.00  0.00     0.309 C 
HETATM    2  N   UNL     1     -41.760  55.788 -51.281  1.00  0.00    -0.350 N 
HETATM    3  O   UNL     1     -41.007  57.801 -50.407  1.00  0.00    -0.262 OA
HETATM    4  H   UNL     1     -42.334  55.425 -52.041  1.00  0.00     0.163 HD
ENDROOT
BRANCH   1   5
HETATM    5  C   UNL     1     -41.893  57.819 -52.637  1.00  0.00     0.313 C 
HETATM    6  N   UNL     1     -42.835  57.085 -53.327  1.00  0.00    -0.319 N 
HETATM    7  H   UNL     1     -43.120  56.226 -52.860  1.00  0.00     0.169 HD
HETATM    8  O   UNL     1     -41.350  58.869 -52.951  1.00  0.00    -0.262 OA
BRANCH   6   9
HETATM    9  C   UNL     1     -43.365  57.350 -54.601  1.00  0.00     0.037 A 
HETATM   10  C   UNL     1     -42.688  57.078 -55.794  1.00  0.00     0.059 A 
HETATM   11  C   UNL     1     -43.293  57.297 -57.041  1.00  0.00     0.036 A 
HETATM   12  C   UNL     1     -44.571  57.848 -57.081  1.00  0.00     0.029 A 
HETATM   13  C   UNL     1     -45.247  58.149 -55.895  1.00  0.00     0.004 A 
HETATM   14  C   UNL     1     -44.648  57.896 -54.662  1.00  0.00     0.029 A 
BRANCH  11  15
HETATM   15  N   UNL     1     -42.525  56.980 -58.176  1.00  0.00    -0.327 N 
HETATM   16  C   UNL     1     -42.755  56.183 -59.256  1.00  0.00     0.218 C 
HETATM   17  C   UNL     1     -43.919  55.233 -59.285  1.00  0.00     0.117 C 
HETATM   18  O   UNL     1     -41.954  56.213 -60.195  1.00  0.00    -0.274 OA
HETATM   19  H   UNL     1     -41.601  57.397 -58.221  1.00  0.00     0.169 HD
ENDBRANCH  11  15
ENDBRANCH   6   9
ENDBRANCH   1   5
BRANCH   2  20
HETATM   20  C   UNL     1     -41.700  55.016 -50.052  1.00  0.00     0.159 C 
BRANCH  20  21
HETATM   21  C   UNL     1     -40.564  53.980 -50.092  1.00  0.00     0.171 C 
BRANCH  21  22
HETATM   22  O   UNL     1     -39.354  54.613 -49.645  1.00  0.00    -0.389 OA
HETATM   23  H   UNL     1     -39.638  55.379 -49.116  1.00  0.00     0.210 HD
ENDBRANCH  21  22
BRANCH  21  24
HETATM   24  C   UNL     1     -40.393  53.382 -51.455  1.00  0.00     0.000 A 
HETATM   25  C   UNL     1     -40.095  52.012 -51.747  1.00  0.00     0.001 A 
HETATM   26  C   UNL     1     -40.023  51.880 -53.139  1.00  0.00     0.044 A 
HETATM   27  C   UNL     1     -39.883  50.871 -50.945  1.00  0.00     0.014 A 
HETATM   28  C   UNL     1     -39.736  50.648 -53.750  1.00  0.00     0.030 A 
HETATM   29  N   UNL     1     -40.277  53.125 -53.671  1.00  0.00    -0.360 N 
HETATM   30  C   UNL     1     -39.528  49.534 -52.931  1.00  0.00     0.002 A 
HETATM   31  C   UNL     1     -39.602  49.641 -51.547  1.00  0.00     0.001 A 
HETATM   32  C   UNL     1     -40.317  53.470 -55.075  1.00  0.00     0.155 C 
HETATM   33  C   UNL     1     -40.499  54.033 -52.669  1.00  0.00     0.101 A 
ENDBRANCH  21  24
ENDBRANCH  20  21
ENDBRANCH   2  20
TORSDOF 7
ENDMDL
MODEL 9
REMARK VINA RESULT:      -7.6      2.762      8.052
REMARK  7 active torsions:
REMARK  status: ('A' for Active; 'I' for Inactive)
REMARK       I    between atoms: C_2  and  N_3 
REMARK    1  A    between atoms: N_3  and  C_4 
REMARK    2  A    between atoms: C_6  and  N_7 
REMARK       I    between atoms: N_7  and  C_8 
REMARK    3  A    between atoms: C_8  and  C_9 
REMARK       I    between atoms: C_9  and  N_10 
REMARK    4  A    between atoms: N_10  and  C_11 
REMARK    5  A    between atoms: C_11  and  C_12 
REMARK    6  A    between atoms: C_12  and  O_13 
REMARK    7  A    between atoms: C_12  and  C_14 
ROOT
HETATM    1  C   UNL     1     -43.100  56.835 -56.076  1.00  0.00     0.309 C 
HETATM    2  N   UNL     1     -42.106  57.326 -56.887  1.00  0.00    -0.350 N 
HETATM    3  O   UNL     1     -44.169  57.378 -55.826  1.00  0.00    -0.262 OA
HETATM    4  H   UNL     1     -41.206  56.850 -56.838  1.00  0.00     0.163 HD
ENDROOT
BRANCH   1   5
HETATM    5  C   UNL     1     -42.750  55.488 -55.408  1.00  0.00     0.313 C 
HETATM    6  N   UNL     1     -41.929  55.655 -54.313  1.00  0.00    -0.319 N 
HETATM    7  H   UNL     1     -41.696  56.626 -54.111  1.00  0.00     0.169 HD
HETATM    8  O   UNL     1     -43.177  54.453 -55.902  1.00  0.00    -0.262 OA
BRANCH   6   9
HETATM    9  C   UNL     1     -41.338  54.655 -53.522  1.00  0.00     0.037 A 
HETATM   10  C   UNL     1     -40.865  53.443 -54.032  1.00  0.00     0.059 A 
HETATM   11  C   UNL     1     -40.219  52.509 -53.207  1.00  0.00     0.036 A 
HETATM   12  C   UNL     1     -40.101  52.780 -51.846  1.00  0.00     0.029 A 
HETATM   13  C   UNL     1     -40.594  53.978 -51.321  1.00  0.00     0.004 A 
HETATM   14  C   UNL     1     -41.205  54.913 -52.156  1.00  0.00     0.029 A 
BRANCH  11  15
HETATM   15  N   UNL     1     -39.774  51.327 -53.826  1.00  0.00    -0.327 N 
HETATM   16  C   UNL     1     -39.614  50.050 -53.378  1.00  0.00     0.218 C 
HETATM   17  C   UNL     1     -39.686  49.729 -51.911  1.00  0.00     0.117 C 
HETATM   18  O   UNL     1     -39.351  49.165 -54.196  1.00  0.00    -0.274 OA
HETATM   19  H   UNL     1     -39.490  51.410 -54.797  1.00  0.00     0.169 HD
ENDBRANCH  11  15
ENDBRANCH   6   9
ENDBRANCH   1   5
BRANCH   2  20
HETATM   20  C   UNL     1     -42.123  58.686 -57.397  1.00  0.00     0.159 C 
BRANCH  20  21
HETATM   21  C   UNL     1     -42.195  58.713 -58.932  1.00  0.00     0.171 C 
BRANCH  21  22
HETATM   22  O   UNL     1     -41.792  60.016 -59.384  1.00  0.00    -0.389 OA
HETATM   23  H   UNL     1     -42.340  60.203 -60.167  1.00  0.00     0.210 HD
ENDBRANCH  21  22
BRANCH  21  24
HETATM   24  C   UNL     1     -43.560  58.360 -59.440  1.00  0.00     0.000 A 
HETATM   25  C   UNL     1     -44.047  57.042 -59.714  1.00  0.00     0.001 A 
HETATM   26  C   UNL     1     -45.366  57.160 -60.168  1.00  0.00     0.044 A 
HETATM   27  C   UNL     1     -43.477  55.755 -59.612  1.00  0.00     0.014 A 
HETATM   28  C   UNL     1     -46.127  56.037 -60.530  1.00  0.00     0.030 A 
HETATM   29  N   UNL     1     -45.670  58.504 -60.160  1.00  0.00    -0.360 N 
HETATM   30  C   UNL     1     -45.536  54.773 -60.422  1.00  0.00     0.002 A 
HETATM   31  C   UNL     1     -44.230  54.632 -59.968  1.00  0.00     0.001 A 
HETATM   32  C   UNL     1     -46.930  59.105 -60.541  1.00  0.00     0.155 C 
HETATM   33  C   UNL     1     -44.593  59.232 -59.726  1.00  0.00     0.101 A 
ENDBRANCH  21  24
ENDBRANCH  20  21
ENDBRANCH   2  20
TORSDOF 7
ENDMDL
MODEL 10
REMARK VINA RESULT:      -7.6      3.285      9.380
REMARK  7 active torsions:
REMARK  status: ('A' for Active; 'I' for Inactive)
REMARK       I    between atoms: C_2  and  N_3 
REMARK    1  A    between atoms: N_3  and  C_4 
REMARK    2  A    between atoms: C_6  and  N_7 
REMARK       I    between atoms: N_7  and  C_8 
REMARK    3  A    between atoms: C_8  and  C_9 
REMARK       I    between atoms: C_9  and  N_10 
REMARK    4  A    between atoms: N_10  and  C_11 
REMARK    5  A    between atoms: C_11  and  C_12 
REMARK    6  A    between atoms: C_12  and  O_13 
REMARK    7  A    between atoms: C_12  and  C_14 
ROOT
HETATM    1  C   UNL     1     -43.077  55.893 -56.836  1.00  0.00     0.309 C 
HETATM    2  N   UNL     1     -43.522  55.388 -58.033  1.00  0.00    -0.350 N 
HETATM    3  O   UNL     1     -42.828  57.066 -56.589  1.00  0.00    -0.262 OA
HETATM    4  H   UNL     1     -43.496  54.374 -58.133  1.00  0.00     0.163 HD
ENDROOT
BRANCH   1   5
HETATM    5  C   UNL     1     -42.844  54.816 -55.754  1.00  0.00     0.313 C 
HETATM    6  N   UNL     1     -41.795  55.143 -54.921  1.00  0.00    -0.319 N 
HETATM    7  H   UNL     1     -41.352  56.035 -55.138  1.00  0.00     0.169 HD
HETATM    8  O   UNL     1     -43.546  53.814 -55.755  1.00  0.00    -0.262 OA
BRANCH   6   9
HETATM    9  C   UNL     1     -41.242  54.364 -53.891  1.00  0.00     0.037 A 
HETATM   10  C   UNL     1     -40.752  53.068 -54.077  1.00  0.00     0.059 A 
HETATM   11  C   UNL     1     -40.145  52.361 -53.028  1.00  0.00     0.036 A 
HETATM   12  C   UNL     1     -40.083  52.950 -51.767  1.00  0.00     0.029 A 
HETATM   13  C   UNL     1     -40.592  54.236 -51.563  1.00  0.00     0.004 A 
HETATM   14  C   UNL     1     -41.164  54.941 -52.622  1.00  0.00     0.029 A 
BRANCH  11  15
HETATM   15  N   UNL     1     -39.680  51.068 -53.328  1.00  0.00    -0.327 N 
HETATM   16  C   UNL     1     -39.575  49.928 -52.590  1.00  0.00     0.218 C 
HETATM   17  C   UNL     1     -39.754  49.950 -51.098  1.00  0.00     0.117 C 
HETATM   18  O   UNL     1     -39.272  48.878 -53.165  1.00  0.00    -0.274 OA
HETATM   19  H   UNL     1     -39.328  50.927 -54.269  1.00  0.00     0.169 HD
ENDBRANCH  11  15
ENDBRANCH   6   9
ENDBRANCH   1   5
BRANCH   2  20
HETATM   20  C   UNL     1     -43.553  56.186 -59.246  1.00  0.00     0.159 C 
BRANCH  20  21
HETATM   21  C   UNL     1     -44.863  55.981 -60.024  1.00  0.00     0.171 C 
BRANCH  21  22
HETATM   22  O   UNL     1     -44.547  55.425 -61.310  1.00  0.00    -0.389 OA
HETATM   23  H   UNL     1     -43.962  54.668 -61.132  1.00  0.00     0.210 HD
ENDBRANCH  21  22
BRANCH  21  24
HETATM   24  C   UNL     1     -45.644  57.253 -60.159  1.00  0.00     0.000 A 
HETATM   25  C   UNL     1     -46.863  57.424 -60.891  1.00  0.00     0.001 A 
HETATM   26  C   UNL     1     -47.256  58.762 -60.758  1.00  0.00     0.044 A 
HETATM   27  C   UNL     1     -47.669  56.553 -61.655  1.00  0.00     0.014 A 
HETATM   28  C   UNL     1     -48.420  59.255 -61.370  1.00  0.00     0.030 A 
HETATM   29  N   UNL     1     -46.311  59.377 -59.965  1.00  0.00    -0.360 N 
HETATM   30  C   UNL     1     -49.198  58.370 -62.123  1.00  0.00     0.002 A 
HETATM   31  C   UNL     1     -48.831  57.037 -62.263  1.00  0.00     0.001 A 
HETATM   32  C   UNL     1     -46.306  60.762 -59.548  1.00  0.00     0.155 C 
HETATM   33  C   UNL     1     -45.340  58.480 -59.603  1.00  0.00     0.101 A 
ENDBRANCH  21  24
ENDBRANCH  20  21
ENDBRANCH   2  20
TORSDOF 7
ENDMDL
