MODEL 1
REMARK VINA RESULT:      -8.6      0.000      0.000
REMARK  5 active torsions:
REMARK  status: ('A' for Active; 'I' for Inactive)
REMARK    1  A    between atoms: C_2  and  C_3 
REMARK    2  A    between atoms: C_8  and  C_9 
REMARK       I    between atoms: C_9  and  N_10 
REMARK    3  A    between atoms: N_10  and  C_11 
REMARK    4  A    between atoms: C_11  and  C_12 
REMARK    5  A    between atoms: C_19  and  C_20 
ROOT
HETATM    1  C   UNL     1     -41.740  54.375 -51.534  1.00  0.00     0.118 C 
HETATM    2  N   UNL     1     -41.078  55.655 -51.799  1.00  0.00    -0.366 N 
HETATM    3  C   UNL     1     -41.763  56.793 -51.566  1.00  0.00     0.123 A 
HETATM    4  N   UNL     1     -43.101  56.837 -51.808  1.00  0.00    -0.240 N 
HETATM    5  N   UNL     1     -43.688  57.994 -51.466  1.00  0.00    -0.165 NA
HETATM    6  C   UNL     1     -42.646  58.766 -51.076  1.00  0.00     0.148 A 
HETATM    7  C   UNL     1     -41.417  58.047 -51.139  1.00  0.00     0.088 A 
HETATM    8  C   UNL     1     -43.832  55.715 -52.351  1.00  0.00     0.221 C 
HETATM    9  C   UNL     1     -43.260  54.388 -51.818  1.00  0.00     0.066 C 
HETATM   10  H   UNL     1     -40.084  55.639 -51.559  1.00  0.00     0.161 HD
ENDROOT
BRANCH   6  11
HETATM   11  C   UNL     1     -42.823  60.163 -50.644  1.00  0.00     0.272 C 
HETATM   12  N   UNL     1     -43.969  60.366 -49.910  1.00  0.00    -0.353 N 
HETATM   13  H   UNL     1     -44.621  59.586 -49.903  1.00  0.00     0.162 HD
HETATM   14  O   UNL     1     -42.032  61.057 -50.930  1.00  0.00    -0.266 OA
BRANCH  12  15
HETATM   15  C   UNL     1     -44.443  61.689 -49.558  1.00  0.00     0.155 C 
BRANCH  15  16
HETATM   16  C   UNL     1     -45.484  61.650 -48.439  1.00  0.00     0.139 C 
HETATM   17  O   UNL     1     -45.762  60.290 -48.055  1.00  0.00    -0.384 OA
HETATM   18  C   UNL     1     -46.142  60.289 -46.670  1.00  0.00     0.168 C 
HETATM   19  C   UNL     1     -45.910  61.689 -46.129  1.00  0.00     0.029 C 
HETATM   20  C   UNL     1     -45.009  62.319 -47.163  1.00  0.00     0.035 C 
ENDBRANCH  15  16
ENDBRANCH  12  15
ENDBRANCH   6  11
BRANCH   8  21
HETATM   21  C   UNL     1     -43.831  55.780 -53.861  1.00  0.00     0.409 C 
HETATM   22  F   UNL     1     -44.821  56.567 -54.342  1.00  0.00    -0.169 F 
HETATM   23  F   UNL     1     -42.671  56.213 -54.392  1.00  0.00    -0.169 F 
HETATM   24  F   UNL     1     -44.052  54.539 -54.374  1.00  0.00    -0.169 F 
ENDBRANCH   8  21
BRANCH   1  25
HETATM   25  C   UNL     1     -41.024  53.249 -52.259  1.00  0.00    -0.035 A 
HETATM   26  C   UNL     1     -40.172  52.390 -51.543  1.00  0.00     0.011 A 
HETATM   27  C   UNL     1     -39.505  51.344 -52.187  1.00  0.00     0.024 A 
HETATM   28  C   UNL     1     -39.688  51.143 -53.553  1.00  0.00     0.034 A 
HETATM   29  C   UNL     1     -40.532  51.978 -54.279  1.00  0.00     0.024 A 
HETATM   30 CL   UNL     1     -38.863  49.858 -54.345  1.00  0.00    -0.084 Cl
HETATM   31  C   UNL     1     -41.196  53.026 -53.634  1.00  0.00     0.011 A 
ENDBRANCH   1  25
TORSDOF 5
ENDMDL
MODEL 2
REMARK VINA RESULT:      -8.5      4.856      6.809
REMARK  5 active torsions:
REMARK  status: ('A' for Active; 'I' for Inactive)
REMARK    1  A    between atoms: C_2  and  C_3 
REMARK    2  A    between atoms: C_8  and  C_9 
REMARK       I    between atoms: C_9  and  N_10 
REMARK    3  A    between atoms: N_10  and  C_11 
REMARK    4  A    between atoms: C_11  and  C_12 
REMARK    5  A    between atoms: C_19  and  C_20 
ROOT
HETATM    1  C   UNL     1     -40.577  54.511 -54.398  1.00  0.00     0.118 C 
HETATM    2  N   UNL     1     -41.645  54.184 -55.347  1.00  0.00    -0.366 N 
HETATM    3  C   UNL     1     -42.301  55.197 -55.949  1.00  0.00     0.123 A 
HETATM    4  N   UNL     1     -42.546  56.346 -55.261  1.00  0.00    -0.240 N 
HETATM    5  N   UNL     1     -43.134  57.310 -55.985  1.00  0.00    -0.165 NA
HETATM    6  C   UNL     1     -43.368  56.705 -57.174  1.00  0.00     0.148 A 
HETATM    7  C   UNL     1     -42.869  55.369 -57.183  1.00  0.00     0.088 A 
HETATM    8  C   UNL     1     -42.165  56.523 -53.879  1.00  0.00     0.221 C 
HETATM    9  C   UNL     1     -40.836  55.802 -53.587  1.00  0.00     0.066 C 
HETATM   10  H   UNL     1     -41.432  53.356 -55.906  1.00  0.00     0.161 HD
ENDROOT
BRANCH   6  11
HETATM   11  C   UNL     1     -44.049  57.392 -58.284  1.00  0.00     0.272 C 
HETATM   12  N   UNL     1     -45.135  56.700 -58.771  1.00  0.00    -0.353 N 
HETATM   13  H   UNL     1     -45.226  55.747 -58.429  1.00  0.00     0.162 HD
HETATM   14  O   UNL     1     -43.670  58.467 -58.740  1.00  0.00    -0.266 OA
BRANCH  12  15
HETATM   15  C   UNL     1     -45.824  57.088 -59.984  1.00  0.00     0.155 C 
BRANCH  15  16
HETATM   16  C   UNL     1     -47.017  58.002 -59.702  1.00  0.00     0.139 C 
HETATM   17  O   UNL     1     -47.210  58.157 -58.283  1.00  0.00    -0.384 OA
HETATM   18  C   UNL     1     -47.798  59.447 -58.054  1.00  0.00     0.168 C 
HETATM   19  C   UNL     1     -47.797  60.194 -59.376  1.00  0.00     0.029 C 
HETATM   20  C   UNL     1     -46.816  59.415 -60.218  1.00  0.00     0.035 C 
ENDBRANCH  15  16
ENDBRANCH  12  15
ENDBRANCH   6  11
BRANCH   8  21
HETATM   21  C   UNL     1     -43.284  56.062 -52.972  1.00  0.00     0.409 C 
HETATM   22  F   UNL     1     -44.411  56.791 -53.136  1.00  0.00    -0.169 F 
HETATM   23  F   UNL     1     -43.612  54.763 -53.121  1.00  0.00    -0.169 F 
HETATM   24  F   UNL     1     -42.916  56.222 -51.672  1.00  0.00    -0.169 F 
ENDBRANCH   8  21
BRANCH   1  25
HETATM   25  C   UNL     1     -40.278  53.317 -53.508  1.00  0.00    -0.035 A 
HETATM   26  C   UNL     1     -40.339  53.457 -52.110  1.00  0.00     0.011 A 
HETATM   27  C   UNL     1     -40.073  52.372 -51.270  1.00  0.00     0.024 A 
HETATM   28  C   UNL     1     -39.750  51.134 -51.820  1.00  0.00     0.034 A 
HETATM   29  C   UNL     1     -39.691  50.972 -53.200  1.00  0.00     0.024 A 
HETATM   30 CL   UNL     1     -39.418  49.801 -50.785  1.00  0.00    -0.084 Cl
HETATM   31  C   UNL     1     -39.954  52.059 -54.040  1.00  0.00     0.011 A 
ENDBRANCH   1  25
TORSDOF 5
ENDMDL
MODEL 3
REMARK VINA RESULT:      -8.4      4.925      7.283
REMARK  5 active torsions:
REMARK  status: ('A' for Active; 'I' for Inactive)
REMARK    1  A    between atoms: C_2  and  C_3 
REMARK    2  A    between atoms: C_8  and  C_9 
REMARK       I    between atoms: C_9  and  N_10 
REMARK    3  A    between atoms: N_10  and  C_11 
REMARK    4  A    between atoms: C_11  and  C_12 
REMARK    5  A    between atoms: C_19  and  C_20 
ROOT
HETATM    1  C   UNL     1     -40.668  54.689 -54.542  1.00  0.00     0.118 C 
HETATM    2  N   UNL     1     -41.740  54.344 -55.479  1.00  0.00    -0.366 N 
HETATM    3  C   UNL     1     -42.403  55.345 -56.094  1.00  0.00     0.123 A 
HETATM    4  N   UNL     1     -42.648  56.504 -55.423  1.00  0.00    -0.240 N 
HETATM    5  N   UNL     1     -43.244  57.454 -56.159  1.00  0.00    -0.165 NA
HETATM    6  C   UNL     1     -43.482  56.829 -57.337  1.00  0.00     0.148 A 
HETATM    7  C   UNL     1     -42.979  55.495 -57.326  1.00  0.00     0.088 A 
HETATM    8  C   UNL     1     -42.260  56.703 -54.045  1.00  0.00     0.221 C 
HETATM    9  C   UNL     1     -40.926  55.992 -53.750  1.00  0.00     0.066 C 
HETATM   10  H   UNL     1     -41.527  53.507 -56.026  1.00  0.00     0.161 HD
ENDROOT
BRANCH   6  11
HETATM   11  C   UNL     1     -44.172  57.496 -58.453  1.00  0.00     0.272 C 
HETATM   12  N   UNL     1     -43.314  57.960 -59.425  1.00  0.00    -0.353 N 
HETATM   13  H   UNL     1     -42.329  57.938 -59.176  1.00  0.00     0.162 HD
HETATM   14  O   UNL     1     -45.390  57.639 -58.499  1.00  0.00    -0.266 OA
BRANCH  12  15
HETATM   15  C   UNL     1     -43.754  58.819 -60.505  1.00  0.00     0.155 C 
BRANCH  15  16
HETATM   16  C   UNL     1     -43.165  60.226 -60.400  1.00  0.00     0.139 C 
HETATM   17  O   UNL     1     -42.550  60.421 -59.112  1.00  0.00    -0.384 OA
HETATM   18  C   UNL     1     -41.483  61.368 -59.270  1.00  0.00     0.168 C 
HETATM   19  C   UNL     1     -41.316  61.630 -60.756  1.00  0.00     0.029 C 
HETATM   20  C   UNL     1     -42.052  60.480 -61.399  1.00  0.00     0.035 C 
ENDBRANCH  15  16
ENDBRANCH  12  15
ENDBRANCH   6  11
BRANCH   8  21
HETATM   21  C   UNL     1     -43.372  56.253 -53.125  1.00  0.00     0.409 C 
HETATM   22  F   UNL     1     -44.576  56.746 -53.495  1.00  0.00    -0.169 F 
HETATM   23  F   UNL     1     -43.492  54.915 -53.022  1.00  0.00    -0.169 F 
HETATM   24  F   UNL     1     -43.143  56.719 -51.868  1.00  0.00    -0.169 F 
ENDBRANCH   8  21
BRANCH   1  25
HETATM   25  C   UNL     1     -40.360  53.510 -53.634  1.00  0.00    -0.035 A 
HETATM   26  C   UNL     1     -40.017  52.268 -54.198  1.00  0.00     0.011 A 
HETATM   27  C   UNL     1     -39.725  51.170 -53.384  1.00  0.00     0.024 A 
HETATM   28  C   UNL     1     -39.767  51.304 -51.998  1.00  0.00     0.034 A 
HETATM   29  C   UNL     1     -40.098  52.526 -51.421  1.00  0.00     0.024 A 
HETATM   30 CL   UNL     1     -39.412  49.950 -50.998  1.00  0.00    -0.084 Cl
HETATM   31  C   UNL     1     -40.393  53.623 -52.236  1.00  0.00     0.011 A 
ENDBRANCH   1  25
TORSDOF 5
ENDMDL
MODEL 4
REMARK VINA RESULT:      -8.1      4.023      6.354
REMARK  5 active torsions:
REMARK  status: ('A' for Active; 'I' for Inactive)
REMARK    1  A    between atoms: C_2  and  C_3 
REMARK    2  A    between atoms: C_8  and  C_9 
REMARK       I    between atoms: C_9  and  N_10 
REMARK    3  A    between atoms: N_10  and  C_11 
REMARK    4  A    between atoms: C_11  and  C_12 
REMARK    5  A    between atoms: C_19  and  C_20 
ROOT
HETATM    1  C   UNL     1     -41.030  54.634 -53.498  1.00  0.00     0.118 C 
HETATM    2  N   UNL     1     -42.277  54.578 -54.266  1.00  0.00    -0.366 N 
HETATM    3  C   UNL     1     -43.053  55.680 -54.312  1.00  0.00     0.123 A 
HETATM    4  N   UNL     1     -43.147  56.485 -53.219  1.00  0.00    -0.240 N 
HETATM    5  N   UNL     1     -43.884  57.591 -53.407  1.00  0.00    -0.165 NA
HETATM    6  C   UNL     1     -44.368  57.430 -54.662  1.00  0.00     0.148 A 
HETATM    7  C   UNL     1     -43.876  56.231 -55.257  1.00  0.00     0.088 A 
HETATM    8  C   UNL     1     -42.476  56.190 -51.974  1.00  0.00     0.221 C 
HETATM    9  C   UNL     1     -41.112  55.527 -52.238  1.00  0.00     0.066 C 
HETATM   10  H   UNL     1     -42.186  54.023 -55.119  1.00  0.00     0.161 HD
ENDROOT
BRANCH   6  11
HETATM   11  C   UNL     1     -45.276  58.407 -55.284  1.00  0.00     0.272 C 
HETATM   12  N   UNL     1     -46.041  57.873 -56.297  1.00  0.00    -0.353 N 
HETATM   13  H   UNL     1     -45.769  56.941 -56.596  1.00  0.00     0.162 HD
HETATM   14  O   UNL     1     -45.329  59.585 -54.942  1.00  0.00    -0.266 OA
BRANCH  12  15
HETATM   15  C   UNL     1     -46.851  58.693 -57.175  1.00  0.00     0.155 C 
BRANCH  15  16
HETATM   16  C   UNL     1     -46.476  58.507 -58.645  1.00  0.00     0.139 C 
HETATM   17  O   UNL     1     -45.054  58.658 -58.827  1.00  0.00    -0.384 OA
HETATM   18  C   UNL     1     -44.663  57.851 -59.948  1.00  0.00     0.168 C 
HETATM   19  C   UNL     1     -45.866  57.023 -60.361  1.00  0.00     0.029 C 
HETATM   20  C   UNL     1     -46.782  57.115 -59.165  1.00  0.00     0.035 C 
ENDBRANCH  15  16
ENDBRANCH  12  15
ENDBRANCH   6  11
BRANCH   8  21
HETATM   21  C   UNL     1     -43.369  55.346 -51.093  1.00  0.00     0.409 C 
HETATM   22  F   UNL     1     -43.822  54.242 -51.730  1.00  0.00    -0.169 F 
HETATM   23  F   UNL     1     -42.788  54.946 -49.945  1.00  0.00    -0.169 F 
HETATM   24  F   UNL     1     -44.473  56.059 -50.741  1.00  0.00    -0.169 F 
ENDBRANCH   8  21
BRANCH   1  25
HETATM   25  C   UNL     1     -40.539  53.231 -53.184  1.00  0.00    -0.035 A 
HETATM   26  C   UNL     1     -40.391  52.297 -54.224  1.00  0.00     0.011 A 
HETATM   27  C   UNL     1     -39.937  51.000 -53.961  1.00  0.00     0.024 A 
HETATM   28  C   UNL     1     -39.620  50.629 -52.657  1.00  0.00     0.034 A 
HETATM   29  C   UNL     1     -39.754  51.541 -51.614  1.00  0.00     0.024 A 
HETATM   30 CL   UNL     1     -39.066  49.033 -52.334  1.00  0.00    -0.084 Cl
HETATM   31  C   UNL     1     -40.212  52.836 -51.878  1.00  0.00     0.011 A 
ENDBRANCH   1  25
TORSDOF 5
ENDMDL
MODEL 5
REMARK VINA RESULT:      -8.0      1.471      2.349
REMARK  5 active torsions:
REMARK  status: ('A' for Active; 'I' for Inactive)
REMARK    1  A    between atoms: C_2  and  C_3 
REMARK    2  A    between atoms: C_8  and  C_9 
REMARK       I    between atoms: C_9  and  N_10 
REMARK    3  A    between atoms: N_10  and  C_11 
REMARK    4  A    between atoms: C_11  and  C_12 
REMARK    5  A    between atoms: C_19  and  C_20 
ROOT
HETATM    1  C   UNL     1     -41.679  54.351 -51.485  1.00  0.00     0.118 C 
HETATM    2  N   UNL     1     -40.968  55.609 -51.732  1.00  0.00    -0.366 N 
HETATM    3  C   UNL     1     -41.613  56.768 -51.490  1.00  0.00     0.123 A 
HETATM    4  N   UNL     1     -42.948  56.863 -51.740  1.00  0.00    -0.240 N 
HETATM    5  N   UNL     1     -43.495  58.037 -51.388  1.00  0.00    -0.165 NA
HETATM    6  C   UNL     1     -42.428  58.767 -50.983  1.00  0.00     0.148 A 
HETATM    7  C   UNL     1     -41.225  58.004 -51.047  1.00  0.00     0.088 A 
HETATM    8  C   UNL     1     -43.715  55.774 -52.299  1.00  0.00     0.221 C 
HETATM    9  C   UNL     1     -43.195  54.422 -51.779  1.00  0.00     0.066 C 
HETATM   10  H   UNL     1     -39.978  55.554 -51.485  1.00  0.00     0.161 HD
ENDROOT
BRANCH   6  11
HETATM   11  C   UNL     1     -42.557  60.163 -50.536  1.00  0.00     0.272 C 
HETATM   12  N   UNL     1     -43.796  60.458 -50.015  1.00  0.00    -0.353 N 
HETATM   13  H   UNL     1     -44.504  59.743 -50.158  1.00  0.00     0.162 HD
HETATM   14  O   UNL     1     -41.651  60.985 -50.638  1.00  0.00    -0.266 OA
BRANCH  12  15
HETATM   15  C   UNL     1     -44.208  61.812 -49.704  1.00  0.00     0.155 C 
BRANCH  15  16
HETATM   16  C   UNL     1     -45.496  62.204 -50.428  1.00  0.00     0.139 C 
HETATM   17  O   UNL     1     -45.210  63.106 -51.514  1.00  0.00    -0.384 OA
HETATM   18  C   UNL     1     -46.211  62.913 -52.526  1.00  0.00     0.168 C 
HETATM   19  C   UNL     1     -47.043  61.708 -52.125  1.00  0.00     0.029 C 
HETATM   20  C   UNL     1     -46.192  61.025 -51.083  1.00  0.00     0.035 C 
ENDBRANCH  15  16
ENDBRANCH  12  15
ENDBRANCH   6  11
BRANCH   8  21
HETATM   21  C   UNL     1     -43.702  55.856 -53.809  1.00  0.00     0.409 C 
HETATM   22  F   UNL     1     -42.518  56.302 -54.289  1.00  0.00    -0.169 F 
HETATM   23  F   UNL     1     -43.980  54.691 -54.425  1.00  0.00    -0.169 F 
HETATM   24  F   UNL     1     -44.639  56.749 -54.228  1.00  0.00    -0.169 F 
ENDBRANCH   8  21
BRANCH   1  25
HETATM   25  C   UNL     1     -40.998  53.208 -52.219  1.00  0.00    -0.035 A 
HETATM   26  C   UNL     1     -41.241  53.018 -53.590  1.00  0.00     0.011 A 
HETATM   27  C   UNL     1     -40.624  51.976 -54.289  1.00  0.00     0.024 A 
HETATM   28  C   UNL     1     -39.752  51.118 -53.624  1.00  0.00     0.034 A 
HETATM   29  C   UNL     1     -39.493  51.293 -52.268  1.00  0.00     0.024 A 
HETATM   30 CL   UNL     1     -38.997  49.834 -54.484  1.00  0.00    -0.084 Cl
HETATM   31  C   UNL     1     -40.114  52.333 -51.569  1.00  0.00     0.011 A 
ENDBRANCH   1  25
TORSDOF 5
ENDMDL
MODEL 6
REMARK VINA RESULT:      -8.0      4.928      7.434
REMARK  5 active torsions:
REMARK  status: ('A' for Active; 'I' for Inactive)
REMARK    1  A    between atoms: C_2  and  C_3 
REMARK    2  A    between atoms: C_8  and  C_9 
REMARK       I    between atoms: C_9  and  N_10 
REMARK    3  A    between atoms: N_10  and  C_11 
REMARK    4  A    between atoms: C_11  and  C_12 
REMARK    5  A    between atoms: C_19  and  C_20 
ROOT
HETATM    1  C   UNL     1     -42.530  55.059 -52.571  1.00  0.00     0.118 C 
HETATM    2  N   UNL     1     -42.040  56.344 -53.078  1.00  0.00    -0.366 N 
HETATM    3  C   UNL     1     -42.239  56.639 -54.379  1.00  0.00     0.123 A 
HETATM    4  N   UNL     1     -42.177  55.650 -55.313  1.00  0.00    -0.240 N 
HETATM    5  N   UNL     1     -42.468  56.048 -56.560  1.00  0.00    -0.165 NA
HETATM    6  C   UNL     1     -42.627  57.387 -56.429  1.00  0.00     0.148 A 
HETATM    7  C   UNL     1     -42.476  57.796 -55.072  1.00  0.00     0.088 A 
HETATM    8  C   UNL     1     -41.864  54.280 -54.977  1.00  0.00     0.221 C 
HETATM    9  C   UNL     1     -42.455  53.910 -53.604  1.00  0.00     0.066 C 
HETATM   10  H   UNL     1     -42.144  57.098 -52.397  1.00  0.00     0.161 HD
ENDROOT
BRANCH   6  11
HETATM   11  C   UNL     1     -42.925  58.258 -57.578  1.00  0.00     0.272 C 
HETATM   12  N   UNL     1     -44.249  58.233 -57.954  1.00  0.00    -0.353 N 
HETATM   13  H   UNL     1     -44.807  57.506 -57.514  1.00  0.00     0.162 HD
HETATM   14  O   UNL     1     -42.069  58.925 -58.152  1.00  0.00    -0.266 OA
BRANCH  12  15
HETATM   15  C   UNL     1     -44.723  58.852 -59.174  1.00  0.00     0.155 C 
BRANCH  15  16
HETATM   16  C   UNL     1     -45.357  57.837 -60.127  1.00  0.00     0.139 C 
HETATM   17  O   UNL     1     -44.768  56.535 -59.943  1.00  0.00    -0.384 OA
HETATM   18  C   UNL     1     -45.758  55.550 -60.277  1.00  0.00     0.168 C 
HETATM   19  C   UNL     1     -47.072  56.277 -60.500  1.00  0.00     0.029 C 
HETATM   20  C   UNL     1     -46.838  57.628 -59.870  1.00  0.00     0.035 C 
ENDBRANCH  15  16
ENDBRANCH  12  15
ENDBRANCH   6  11
BRANCH   8  21
HETATM   21  C   UNL     1     -40.369  54.062 -55.041  1.00  0.00     0.409 C 
HETATM   22  F   UNL     1     -39.921  53.279 -54.033  1.00  0.00    -0.169 F 
HETATM   23  F   UNL     1     -39.942  53.522 -56.199  1.00  0.00    -0.169 F 
HETATM   24  F   UNL     1     -39.726  55.253 -54.908  1.00  0.00    -0.169 F 
ENDBRANCH   8  21
BRANCH   1  25
HETATM   25  C   UNL     1     -41.841  54.710 -51.263  1.00  0.00    -0.035 A 
HETATM   26  C   UNL     1     -41.852  55.632 -50.203  1.00  0.00     0.011 A 
HETATM   27  C   UNL     1     -41.228  55.332 -48.988  1.00  0.00     0.024 A 
HETATM   28  C   UNL     1     -40.593  54.103 -48.820  1.00  0.00     0.034 A 
HETATM   29  C   UNL     1     -40.577  53.174 -49.856  1.00  0.00     0.024 A 
HETATM   30 CL   UNL     1     -39.823  53.738 -47.326  1.00  0.00    -0.084 Cl
HETATM   31  C   UNL     1     -41.198  53.477 -51.071  1.00  0.00     0.011 A 
ENDBRANCH   1  25
TORSDOF 5
ENDMDL
MODEL 7
REMARK VINA RESULT:      -7.9      6.608      9.631
REMARK  5 active torsions:
REMARK  status: ('A' for Active; 'I' for Inactive)
REMARK    1  A    between atoms: C_2  and  C_3 
REMARK    2  A    between atoms: C_8  and  C_9 
REMARK       I    between atoms: C_9  and  N_10 
REMARK    3  A    between atoms: N_10  and  C_11 
REMARK    4  A    between atoms: C_11  and  C_12 
REMARK    5  A    between atoms: C_19  and  C_20 
ROOT
HETATM    1  C   UNL     1     -42.239  58.300 -59.448  1.00  0.00     0.118 C 
HETATM    2  N   UNL     1     -43.010  58.394 -58.205  1.00  0.00    -0.366 N 
HETATM    3  C   UNL     1     -42.997  57.343 -57.360  1.00  0.00     0.123 A 
HETATM    4  N   UNL     1     -42.960  56.077 -57.859  1.00  0.00    -0.240 N 
HETATM    5  N   UNL     1     -42.871  55.117 -56.926  1.00  0.00    -0.165 NA
HETATM    6  C   UNL     1     -42.956  55.806 -55.763  1.00  0.00     0.148 A 
HETATM    7  C   UNL     1     -43.051  57.210 -55.999  1.00  0.00     0.088 A 
HETATM    8  C   UNL     1     -42.974  55.797 -59.276  1.00  0.00     0.221 C 
HETATM    9  C   UNL     1     -42.194  56.876 -60.050  1.00  0.00     0.066 C 
HETATM   10  H   UNL     1     -42.986  59.332 -57.800  1.00  0.00     0.161 HD
ENDROOT
BRANCH   6  11
HETATM   11  C   UNL     1     -42.941  55.138 -54.451  1.00  0.00     0.272 C 
HETATM   12  N   UNL     1     -41.694  55.104 -53.871  1.00  0.00    -0.353 N 
HETATM   13  H   UNL     1     -40.928  55.383 -54.478  1.00  0.00     0.162 HD
HETATM   14  O   UNL     1     -43.942  54.646 -53.939  1.00  0.00    -0.266 OA
BRANCH  12  15
HETATM   15  C   UNL     1     -41.409  54.325 -52.683  1.00  0.00     0.155 C 
BRANCH  15  16
HETATM   16  C   UNL     1     -40.269  53.331 -52.905  1.00  0.00     0.139 C 
HETATM   17  O   UNL     1     -40.067  52.524 -51.728  1.00  0.00    -0.384 OA
HETATM   18  C   UNL     1     -39.553  51.251 -52.147  1.00  0.00     0.168 C 
HETATM   19  C   UNL     1     -39.614  51.206 -53.664  1.00  0.00     0.029 C 
HETATM   20  C   UNL     1     -40.559  52.331 -54.009  1.00  0.00     0.035 C 
ENDBRANCH  15  16
ENDBRANCH  12  15
ENDBRANCH   6  11
BRANCH   8  21
HETATM   21  C   UNL     1     -44.400  55.655 -59.760  1.00  0.00     0.409 C 
HETATM   22  F   UNL     1     -45.250  56.473 -59.098  1.00  0.00    -0.169 F 
HETATM   23  F   UNL     1     -44.557  55.881 -61.079  1.00  0.00    -0.169 F 
HETATM   24  F   UNL     1     -44.838  54.388 -59.529  1.00  0.00    -0.169 F 
ENDBRANCH   8  21
BRANCH   1  25
HETATM   25  C   UNL     1     -42.721  59.338 -60.448  1.00  0.00    -0.035 A 
HETATM   26  C   UNL     1     -41.785  60.128 -61.138  1.00  0.00     0.011 A 
HETATM   27  C   UNL     1     -42.203  61.086 -62.066  1.00  0.00     0.024 A 
HETATM   28  C   UNL     1     -43.562  61.258 -62.318  1.00  0.00     0.034 A 
HETATM   29  C   UNL     1     -44.504  60.482 -61.651  1.00  0.00     0.024 A 
HETATM   30 CL   UNL     1     -44.075  62.441 -63.457  1.00  0.00    -0.084 Cl
HETATM   31  C   UNL     1     -44.085  59.526 -60.720  1.00  0.00     0.011 A 
ENDBRANCH   1  25
TORSDOF 5
ENDMDL
MODEL 8
REMARK VINA RESULT:      -7.8      4.504      6.392
REMARK  5 active torsions:
REMARK  status: ('A' for Active; 'I' for Inactive)
REMARK    1  A    between atoms: C_2  and  C_3 
REMARK    2  A    between atoms: C_8  and  C_9 
REMARK       I    between atoms: C_9  and  N_10 
REMARK    3  A    between atoms: N_10  and  C_11 
REMARK    4  A    between atoms: C_11  and  C_12 
REMARK    5  A    between atoms: C_19  and  C_20 
ROOT
HETATM    1  C   UNL     1     -41.982  54.991 -52.408  1.00  0.00     0.118 C 
HETATM    2  N   UNL     1     -41.071  55.939 -53.055  1.00  0.00    -0.366 N 
HETATM    3  C   UNL     1     -41.600  56.946 -53.780  1.00  0.00     0.123 A 
HETATM    4  N   UNL     1     -42.735  56.733 -54.502  1.00  0.00    -0.240 N 
HETATM    5  N   UNL     1     -43.211  57.825 -55.119  1.00  0.00    -0.165 NA
HETATM    6  C   UNL     1     -42.271  58.765 -54.855  1.00  0.00     0.148 A 
HETATM    7  C   UNL     1     -41.235  58.242 -54.026  1.00  0.00     0.088 A 
HETATM    8  C   UNL     1     -43.390  55.447 -54.564  1.00  0.00     0.221 C 
HETATM    9  C   UNL     1     -43.272  54.714 -53.215  1.00  0.00     0.066 C 
HETATM   10  H   UNL     1     -40.249  56.144 -52.483  1.00  0.00     0.161 HD
ENDROOT
BRANCH   6  11
HETATM   11  C   UNL     1     -42.364  60.137 -55.379  1.00  0.00     0.272 C 
HETATM   12  N   UNL     1     -42.289  60.204 -56.752  1.00  0.00    -0.353 N 
HETATM   13  H   UNL     1     -42.014  59.339 -57.210  1.00  0.00     0.162 HD
HETATM   14  O   UNL     1     -42.479  61.123 -54.657  1.00  0.00    -0.266 OA
BRANCH  12  15
HETATM   15  C   UNL     1     -42.157  61.458 -57.463  1.00  0.00     0.155 C 
BRANCH  15  16
HETATM   16  C   UNL     1     -41.489  61.280 -58.828  1.00  0.00     0.139 C 
HETATM   17  O   UNL     1     -41.883  60.027 -59.422  1.00  0.00    -0.384 OA
HETATM   18  C   UNL     1     -41.844  60.183 -60.849  1.00  0.00     0.168 C 
HETATM   19  C   UNL     1     -41.592  61.651 -61.145  1.00  0.00     0.029 C 
HETATM   20  C   UNL     1     -41.911  62.332 -59.837  1.00  0.00     0.035 C 
ENDBRANCH  15  16
ENDBRANCH  12  15
ENDBRANCH   6  11
BRANCH   8  21
HETATM   21  C   UNL     1     -42.831  54.637 -55.712  1.00  0.00     0.409 C 
HETATM   22  F   UNL     1     -43.252  55.093 -56.914  1.00  0.00    -0.169 F 
HETATM   23  F   UNL     1     -41.485  54.585 -55.744  1.00  0.00    -0.169 F 
HETATM   24  F   UNL     1     -43.267  53.352 -55.622  1.00  0.00    -0.169 F 
ENDBRANCH   8  21
BRANCH   1  25
HETATM   25  C   UNL     1     -41.243  53.715 -52.040  1.00  0.00    -0.035 A 
HETATM   26  C   UNL     1     -40.628  52.952 -53.048  1.00  0.00     0.011 A 
HETATM   27  C   UNL     1     -39.938  51.777 -52.735  1.00  0.00     0.024 A 
HETATM   28  C   UNL     1     -39.851  51.358 -51.409  1.00  0.00     0.034 A 
HETATM   29  C   UNL     1     -40.447  52.103 -50.397  1.00  0.00     0.024 A 
HETATM   30 CL   UNL     1     -39.005  49.910 -51.026  1.00  0.00    -0.084 Cl
HETATM   31  C   UNL     1     -41.139  53.276 -50.711  1.00  0.00     0.011 A 
ENDBRANCH   1  25
TORSDOF 5
ENDMDL
MODEL 9
REMARK VINA RESULT:      -7.7      5.448      8.145
REMARK  5 active torsions:
REMARK  status: ('A' for Active; 'I' for Inactive)
REMARK    1  A    between atoms: C_2  and  C_3 
REMARK    2  A    between atoms: C_8  and  C_9 
REMARK       I    between atoms: C_9  and  N_10 
REMARK    3  A    between atoms: N_10  and  C_11 
REMARK    4  A    between atoms: C_11  and  C_12 
REMARK    5  A    between atoms: C_19  and  C_20 
ROOT
HETATM    1  C   UNL     1     -41.161  55.969 -53.537  1.00  0.00     0.118 C 
HETATM    2  N   UNL     1     -41.910  55.019 -54.364  1.00  0.00    -0.366 N 
HETATM    3  C   UNL     1     -42.422  55.451 -55.535  1.00  0.00     0.123 A 
HETATM    4  N   UNL     1     -42.899  56.722 -55.635  1.00  0.00    -0.240 N 
HETATM    5  N   UNL     1     -43.310  57.064 -56.866  1.00  0.00    -0.165 NA
HETATM    6  C   UNL     1     -43.179  55.913 -57.567  1.00  0.00     0.148 A 
HETATM    7  C   UNL     1     -42.635  54.873 -56.757  1.00  0.00     0.088 A 
HETATM    8  C   UNL     1     -42.922  57.636 -54.516  1.00  0.00     0.221 C 
HETATM    9  C   UNL     1     -41.693  57.419 -53.615  1.00  0.00     0.066 C 
HETATM   10  H   UNL     1     -41.513  54.078 -54.336  1.00  0.00     0.161 HD
ENDROOT
BRANCH   6  11
HETATM   11  C   UNL     1     -43.559  55.810 -58.985  1.00  0.00     0.272 C 
HETATM   12  N   UNL     1     -44.907  55.607 -59.176  1.00  0.00    -0.353 N 
HETATM   13  H   UNL     1     -45.433  55.387 -58.334  1.00  0.00     0.162 HD
HETATM   14  O   UNL     1     -42.747  55.881 -59.903  1.00  0.00    -0.266 OA
BRANCH  12  15
HETATM   15  C   UNL     1     -45.469  55.277 -60.469  1.00  0.00     0.155 C 
BRANCH  15  16
HETATM   16  C   UNL     1     -46.150  56.478 -61.126  1.00  0.00     0.139 C 
HETATM   17  O   UNL     1     -47.294  56.052 -61.892  1.00  0.00    -0.384 OA
HETATM   18  C   UNL     1     -48.246  57.127 -61.901  1.00  0.00     0.168 C 
HETATM   19  C   UNL     1     -47.745  58.193 -60.943  1.00  0.00     0.029 C 
HETATM   20  C   UNL     1     -46.710  57.466 -60.120  1.00  0.00     0.035 C 
ENDBRANCH  15  16
ENDBRANCH  12  15
ENDBRANCH   6  11
BRANCH   8  21
HETATM   21  C   UNL     1     -44.225  57.495 -53.761  1.00  0.00     0.409 C 
HETATM   22  F   UNL     1     -44.033  57.161 -52.464  1.00  0.00    -0.169 F 
HETATM   23  F   UNL     1     -44.998  58.598 -53.789  1.00  0.00    -0.169 F 
HETATM   24  F   UNL     1     -44.963  56.490 -54.304  1.00  0.00    -0.169 F 
ENDBRANCH   8  21
BRANCH   1  25
HETATM   25  C   UNL     1     -41.064  55.463 -52.108  1.00  0.00    -0.035 A 
HETATM   26  C   UNL     1     -40.743  54.115 -51.868  1.00  0.00     0.011 A 
HETATM   27  C   UNL     1     -40.643  53.626 -50.562  1.00  0.00     0.024 A 
HETATM   28  C   UNL     1     -40.857  54.482 -49.484  1.00  0.00     0.034 A 
HETATM   29  C   UNL     1     -41.169  55.820 -49.701  1.00  0.00     0.024 A 
HETATM   30 CL   UNL     1     -40.738  53.877 -47.878  1.00  0.00    -0.084 Cl
HETATM   31  C   UNL     1     -41.272  56.308 -51.007  1.00  0.00     0.011 A 
ENDBRANCH   1  25
TORSDOF 5
ENDMDL
MODEL 10
REMARK VINA RESULT:      -7.6      3.033      3.763
REMARK  5 active torsions:
REMARK  status: ('A' for Active; 'I' for Inactive)
REMARK    1  A    between atoms: C_2  and  C_3 
REMARK    2  A    between atoms: C_8  and  C_9 
REMARK       I    between atoms: C_9  and  N_10 
REMARK    3  A    between atoms: N_10  and  C_11 
REMARK    4  A    between atoms: C_11  and  C_12 
REMARK    5  A    between atoms: C_19  and  C_20 
ROOT
HETATM    1  C   UNL     1     -41.842  54.997 -52.382  1.00  0.00     0.118 C 
HETATM    2  N   UNL     1     -40.922  55.941 -53.025  1.00  0.00    -0.366 N 
HETATM    3  C   UNL     1     -41.443  56.976 -53.715  1.00  0.00     0.123 A 
HETATM    4  N   UNL     1     -42.596  56.806 -54.419  1.00  0.00    -0.240 N 
HETATM    5  N   UNL     1     -43.059  57.923 -54.999  1.00  0.00    -0.165 NA
HETATM    6  C   UNL     1     -42.094  58.835 -54.732  1.00  0.00     0.148 A 
HETATM    7  C   UNL     1     -41.054  58.269 -53.937  1.00  0.00     0.088 A 
HETATM    8  C   UNL     1     -43.281  55.537 -54.497  1.00  0.00     0.221 C 
HETATM    9  C   UNL     1     -43.153  54.769 -53.169  1.00  0.00     0.066 C 
HETATM   10  H   UNL     1     -40.085  56.114 -52.465  1.00  0.00     0.161 HD
ENDROOT
BRANCH   6  11
HETATM   11  C   UNL     1     -42.166  60.221 -55.222  1.00  0.00     0.272 C 
HETATM   12  N   UNL     1     -42.708  61.095 -54.307  1.00  0.00    -0.353 N 
HETATM   13  H   UNL     1     -43.137  60.658 -53.495  1.00  0.00     0.162 HD
HETATM   14  O   UNL     1     -41.795  60.556 -56.343  1.00  0.00    -0.266 OA
BRANCH  12  15
HETATM   15  C   UNL     1     -43.059  62.459 -54.646  1.00  0.00     0.155 C 
BRANCH  15  16
HETATM   16  C   UNL     1     -43.580  63.239 -53.439  1.00  0.00     0.139 C 
HETATM   17  O   UNL     1     -43.414  62.470 -52.232  1.00  0.00    -0.384 OA
HETATM   18  C   UNL     1     -43.245  63.389 -51.141  1.00  0.00     0.168 C 
HETATM   19  C   UNL     1     -43.117  64.782 -51.730  1.00  0.00     0.029 C 
HETATM   20  C   UNL     1     -42.810  64.522 -53.184  1.00  0.00     0.035 C 
ENDBRANCH  15  16
ENDBRANCH  12  15
ENDBRANCH   6  11
BRANCH   8  21
HETATM   21  C   UNL     1     -42.763  54.743 -55.676  1.00  0.00     0.409 C 
HETATM   22  F   UNL     1     -43.113  53.438 -55.609  1.00  0.00    -0.169 F 
HETATM   23  F   UNL     1     -43.164  55.213 -56.873  1.00  0.00    -0.169 F 
HETATM   24  F   UNL     1     -41.404  54.769 -55.684  1.00  0.00    -0.169 F 
ENDBRANCH   8  21
BRANCH   1  25
HETATM   25  C   UNL     1     -41.124  53.697 -52.060  1.00  0.00    -0.035 A 
HETATM   26  C   UNL     1     -41.038  53.262 -50.726  1.00  0.00     0.011 A 
HETATM   27  C   UNL     1     -40.387  52.067 -50.405  1.00  0.00     0.024 A 
HETATM   28  C   UNL     1     -39.822  51.293 -51.416  1.00  0.00     0.034 A 
HETATM   29  C   UNL     1     -39.903  51.703 -52.743  1.00  0.00     0.024 A 
HETATM   30 CL   UNL     1     -39.018  49.825 -51.018  1.00  0.00    -0.084 Cl
HETATM   31  C   UNL     1     -40.551  52.900 -53.063  1.00  0.00     0.011 A 
ENDBRANCH   1  25
TORSDOF 5
ENDMDL
