MODEL 1
REMARK VINA RESULT:      -8.9      0.000      0.000
REMARK  6 active torsions:
REMARK  status: ('A' for Active; 'I' for Inactive)
REMARK    1  A    between atoms: C_4  and  C_5 
REMARK    2  A    between atoms: C_7  and  S_8 
REMARK    3  A    between atoms: S_8  and  C_9 
REMARK    4  A    between atoms: C_9  and  C_10 
REMARK       I    between atoms: C_10  and  N_11 
REMARK    5  A    between atoms: N_11  and  C_12 
REMARK    6  A    between atoms: C_26  and  C_27 
ROOT
HETATM    1  C   UNL     1     -42.285  56.196 -51.517  1.00  0.00     0.076 A 
HETATM    2  N   UNL     1     -42.087  55.520 -52.674  1.00  0.00    -0.239 NA
HETATM    3  C   UNL     1     -41.340  54.392 -52.672  1.00  0.00     0.116 A 
HETATM    4  C   UNL     1     -40.767  53.879 -51.509  1.00  0.00     0.095 A 
HETATM    5  C   UNL     1     -39.954  52.698 -51.540  1.00  0.00     0.103 C 
HETATM    6  N   UNL     1     -39.283  51.752 -51.538  1.00  0.00    -0.191 NA
HETATM    7  C   UNL     1     -40.984  54.566 -50.303  1.00  0.00     0.073 A 
HETATM    8  C   UNL     1     -41.754  55.741 -50.319  1.00  0.00     0.050 A 
ENDROOT
BRANCH   3   9
HETATM    9  S   UNL     1     -41.014  53.675 -54.285  1.00  0.00    -0.100 SA
BRANCH   9  10
HETATM   10  C   UNL     1     -41.235  55.107 -55.400  1.00  0.00     0.184 C 
BRANCH  10  11
HETATM   11  C   UNL     1     -42.481  55.080 -56.283  1.00  0.00     0.231 C 
HETATM   12  N   UNL     1     -42.530  56.032 -57.282  1.00  0.00    -0.326 N 
HETATM   13  H   UNL     1     -41.721  56.639 -57.331  1.00  0.00     0.169 HD
HETATM   14  O   UNL     1     -43.349  54.234 -56.067  1.00  0.00    -0.272 OA
BRANCH  12  15
HETATM   15  C   UNL     1     -43.635  56.398 -58.074  1.00  0.00     0.037 A 
HETATM   16  C   UNL     1     -44.026  55.706 -59.226  1.00  0.00     0.061 A 
HETATM   17  C   UNL     1     -45.168  56.141 -59.859  1.00  0.00     0.065 A 
HETATM   18  C   UNL     1     -45.917  57.219 -59.395  1.00  0.00     0.063 A 
HETATM   19  N   UNL     1     -45.792  55.647 -60.999  1.00  0.00    -0.306 N 
HETATM   20  N   UNL     1     -47.003  57.386 -60.244  1.00  0.00    -0.307 N 
HETATM   21  C   UNL     1     -45.557  57.929 -58.278  1.00  0.00     0.034 A 
HETATM   22  C   UNL     1     -46.940  56.411 -61.251  1.00  0.00     0.325 A 
HETATM   23  H   UNL     1     -47.734  58.074 -60.179  1.00  0.00     0.170 HD
HETATM   24  O   UNL     1     -47.731  56.258 -62.165  1.00  0.00    -0.247 OA
HETATM   25  C   UNL     1     -44.395  57.509 -57.617  1.00  0.00     0.032 A 
HETATM   26  H   UNL     1     -45.495  54.871 -61.567  1.00  0.00     0.170 HD
ENDBRANCH  12  15
ENDBRANCH  10  11
ENDBRANCH   9  10
ENDBRANCH   3   9
BRANCH   7  27
HETATM   27  C   UNL     1     -40.368  54.088 -49.014  1.00  0.00     0.419 C 
HETATM   28  F   UNL     1     -39.016  54.203 -49.008  1.00  0.00    -0.166 F 
HETATM   29  F   UNL     1     -40.826  54.785 -47.941  1.00  0.00    -0.166 F 
HETATM   30  F   UNL     1     -40.632  52.780 -48.747  1.00  0.00    -0.166 F 
ENDBRANCH   7  27
BRANCH   1  31
HETATM   31  C   UNL     1     -43.056  57.443 -51.669  1.00  0.00     0.033 A 
HETATM   32  S   UNL     1     -42.364  58.986 -51.342  1.00  0.00    -0.100 SA
HETATM   33  C   UNL     1     -43.791  59.815 -51.775  1.00  0.00     0.050 A 
HETATM   34  C   UNL     1     -44.789  58.954 -52.160  1.00  0.00     0.008 A 
HETATM   35  C   UNL     1     -44.369  57.594 -52.093  1.00  0.00     0.021 A 
ENDBRANCH   1  31
TORSDOF 6
ENDMDL
MODEL 2
REMARK VINA RESULT:      -8.5      3.702      5.620
REMARK  6 active torsions:
REMARK  status: ('A' for Active; 'I' for Inactive)
REMARK    1  A    between atoms: C_4  and  C_5 
REMARK    2  A    between atoms: C_7  and  S_8 
REMARK    3  A    between atoms: S_8  and  C_9 
REMARK    4  A    between atoms: C_9  and  C_10 
REMARK       I    between atoms: C_10  and  N_11 
REMARK    5  A    between atoms: N_11  and  C_12 
REMARK    6  A    between atoms: C_26  and  C_27 
ROOT
HETATM    1  C   UNL     1     -40.797  53.011 -52.820  1.00  0.00     0.076 A 
HETATM    2  N   UNL     1     -41.698  53.507 -53.702  1.00  0.00    -0.239 NA
HETATM    3  C   UNL     1     -42.301  54.691 -53.448  1.00  0.00     0.116 A 
HETATM    4  C   UNL     1     -42.020  55.443 -52.306  1.00  0.00     0.095 A 
HETATM    5  C   UNL     1     -42.696  56.681 -52.047  1.00  0.00     0.103 C 
HETATM    6  N   UNL     1     -43.235  57.679 -51.806  1.00  0.00    -0.191 NA
HETATM    7  C   UNL     1     -41.073  54.941 -51.399  1.00  0.00     0.073 A 
HETATM    8  C   UNL     1     -40.460  53.706 -51.668  1.00  0.00     0.050 A 
ENDROOT
BRANCH   3   9
HETATM    9  S   UNL     1     -43.591  55.169 -54.602  1.00  0.00    -0.100 SA
BRANCH   9  10
HETATM   10  C   UNL     1     -42.651  55.432 -56.148  1.00  0.00     0.184 C 
BRANCH  10  11
HETATM   11  C   UNL     1     -43.002  56.692 -56.936  1.00  0.00     0.231 C 
HETATM   12  N   UNL     1     -42.086  57.074 -57.897  1.00  0.00    -0.326 N 
HETATM   13  H   UNL     1     -41.282  56.464 -57.984  1.00  0.00     0.169 HD
HETATM   14  O   UNL     1     -44.053  57.282 -56.686  1.00  0.00    -0.272 OA
BRANCH  12  15
HETATM   15  C   UNL     1     -42.021  58.297 -58.591  1.00  0.00     0.037 A 
HETATM   16  C   UNL     1     -41.801  59.531 -57.969  1.00  0.00     0.061 A 
HETATM   17  C   UNL     1     -41.693  60.633 -58.786  1.00  0.00     0.065 A 
HETATM   18  C   UNL     1     -41.797  60.550 -60.172  1.00  0.00     0.063 A 
HETATM   19  N   UNL     1     -41.466  61.964 -58.454  1.00  0.00    -0.306 N 
HETATM   20  N   UNL     1     -41.629  61.827 -60.693  1.00  0.00    -0.307 N 
HETATM   21  C   UNL     1     -42.025  59.361 -60.816  1.00  0.00     0.034 A 
HETATM   22  C   UNL     1     -41.421  62.721 -59.633  1.00  0.00     0.325 A 
HETATM   23  H   UNL     1     -41.643  62.102 -61.661  1.00  0.00     0.170 HD
HETATM   24  O   UNL     1     -41.235  63.922 -59.721  1.00  0.00    -0.247 OA
HETATM   25  C   UNL     1     -42.143  58.224 -60.006  1.00  0.00     0.032 A 
HETATM   26  H   UNL     1     -41.348  62.348 -57.531  1.00  0.00     0.170 HD
ENDBRANCH  12  15
ENDBRANCH  10  11
ENDBRANCH   9  10
ENDBRANCH   3   9
BRANCH   7  27
HETATM   27  C   UNL     1     -40.744  55.682 -50.129  1.00  0.00     0.419 C 
HETATM   28  F   UNL     1     -39.739  55.097 -49.429  1.00  0.00    -0.166 F 
HETATM   29  F   UNL     1     -40.361  56.963 -50.371  1.00  0.00    -0.166 F 
HETATM   30  F   UNL     1     -41.796  55.765 -49.270  1.00  0.00    -0.166 F 
ENDBRANCH   7  27
BRANCH   1  31
HETATM   31  C   UNL     1     -40.268  51.683 -53.179  1.00  0.00     0.033 A 
HETATM   32  S   UNL     1     -39.606  50.618 -51.999  1.00  0.00    -0.100 SA
HETATM   33  C   UNL     1     -39.299  49.394 -53.147  1.00  0.00     0.050 A 
HETATM   34  C   UNL     1     -39.681  49.768 -54.412  1.00  0.00     0.008 A 
HETATM   35  C   UNL     1     -40.231  51.083 -54.431  1.00  0.00     0.021 A 
ENDBRANCH   1  31
TORSDOF 6
ENDMDL
MODEL 3
REMARK VINA RESULT:      -8.5      2.240      4.528
REMARK  6 active torsions:
REMARK  status: ('A' for Active; 'I' for Inactive)
REMARK    1  A    between atoms: C_4  and  C_5 
REMARK    2  A    between atoms: C_7  and  S_8 
REMARK    3  A    between atoms: S_8  and  C_9 
REMARK    4  A    between atoms: C_9  and  C_10 
REMARK       I    between atoms: C_10  and  N_11 
REMARK    5  A    between atoms: N_11  and  C_12 
REMARK    6  A    between atoms: C_26  and  C_27 
ROOT
HETATM    1  C   UNL     1     -40.864  53.251 -53.055  1.00  0.00     0.076 A 
HETATM    2  N   UNL     1     -41.669  53.744 -54.027  1.00  0.00    -0.239 NA
HETATM    3  C   UNL     1     -42.247  54.957 -53.865  1.00  0.00     0.116 A 
HETATM    4  C   UNL     1     -42.036  55.740 -52.730  1.00  0.00     0.095 A 
HETATM    5  C   UNL     1     -42.686  57.008 -52.571  1.00  0.00     0.103 C 
HETATM    6  N   UNL     1     -43.207  58.032 -52.411  1.00  0.00    -0.191 NA
HETATM    7  C   UNL     1     -41.188  55.240 -51.728  1.00  0.00     0.073 A 
HETATM    8  C   UNL     1     -40.600  53.976 -51.902  1.00  0.00     0.050 A 
ENDROOT
BRANCH   3   9
HETATM    9  S   UNL     1     -43.417  55.434 -55.141  1.00  0.00    -0.100 SA
BRANCH   9  10
HETATM   10  C   UNL     1     -42.353  56.330 -56.328  1.00  0.00     0.184 C 
BRANCH  10  11
HETATM   11  C   UNL     1     -43.081  57.093 -57.432  1.00  0.00     0.231 C 
HETATM   12  N   UNL     1     -44.447  56.896 -57.498  1.00  0.00    -0.326 N 
HETATM   13  H   UNL     1     -44.821  56.273 -56.793  1.00  0.00     0.169 HD
HETATM   14  O   UNL     1     -42.435  57.826 -58.181  1.00  0.00    -0.272 OA
BRANCH  12  15
HETATM   15  C   UNL     1     -45.324  57.263 -58.536  1.00  0.00     0.037 A 
HETATM   16  C   UNL     1     -45.720  56.395 -59.560  1.00  0.00     0.061 A 
HETATM   17  C   UNL     1     -46.637  56.875 -60.467  1.00  0.00     0.065 A 
HETATM   18  C   UNL     1     -47.162  58.162 -60.391  1.00  0.00     0.063 A 
HETATM   19  N   UNL     1     -47.212  56.244 -61.565  1.00  0.00    -0.306 N 
HETATM   20  N   UNL     1     -48.062  58.323 -61.437  1.00  0.00    -0.307 N 
HETATM   21  C   UNL     1     -46.789  59.045 -59.410  1.00  0.00     0.034 A 
HETATM   22  C   UNL     1     -48.105  57.133 -62.179  1.00  0.00     0.325 A 
HETATM   23  H   UNL     1     -48.612  59.137 -61.655  1.00  0.00     0.170 HD
HETATM   24  O   UNL     1     -48.788  56.916 -63.164  1.00  0.00    -0.247 OA
HETATM   25  C   UNL     1     -45.852  58.582 -58.476  1.00  0.00     0.032 A 
HETATM   26  H   UNL     1     -47.038  55.306 -61.886  1.00  0.00     0.170 HD
ENDBRANCH  12  15
ENDBRANCH  10  11
ENDBRANCH   9  10
ENDBRANCH   3   9
BRANCH   7  27
HETATM   27  C   UNL     1     -40.940  56.016 -50.460  1.00  0.00     0.419 C 
HETATM   28  F   UNL     1     -42.070  56.191 -49.728  1.00  0.00    -0.166 F 
HETATM   29  F   UNL     1     -40.040  55.397 -49.652  1.00  0.00    -0.166 F 
HETATM   30  F   UNL     1     -40.444  57.263 -50.684  1.00  0.00    -0.166 F 
ENDBRANCH   7  27
BRANCH   1  31
HETATM   31  C   UNL     1     -40.355  51.893 -53.323  1.00  0.00     0.033 A 
HETATM   32  S   UNL     1     -39.629  50.935 -52.090  1.00  0.00    -0.100 SA
HETATM   33  C   UNL     1     -39.385  49.612 -53.140  1.00  0.00     0.050 A 
HETATM   34  C   UNL     1     -39.837  49.874 -54.410  1.00  0.00     0.008 A 
HETATM   35  C   UNL     1     -40.386  51.185 -54.516  1.00  0.00     0.021 A 
ENDBRANCH   1  31
TORSDOF 6
ENDMDL
MODEL 4
REMARK VINA RESULT:      -8.4      4.663      8.761
REMARK  6 active torsions:
REMARK  status: ('A' for Active; 'I' for Inactive)
REMARK    1  A    between atoms: C_4  and  C_5 
REMARK    2  A    between atoms: C_7  and  S_8 
REMARK    3  A    between atoms: S_8  and  C_9 
REMARK    4  A    between atoms: C_9  and  C_10 
REMARK       I    between atoms: C_10  and  N_11 
REMARK    5  A    between atoms: N_11  and  C_12 
REMARK    6  A    between atoms: C_26  and  C_27 
ROOT
HETATM    1  C   UNL     1     -42.480  55.567 -56.447  1.00  0.00     0.076 A 
HETATM    2  N   UNL     1     -42.218  56.895 -56.387  1.00  0.00    -0.239 NA
HETATM    3  C   UNL     1     -42.670  57.711 -57.366  1.00  0.00     0.116 A 
HETATM    4  C   UNL     1     -43.420  57.241 -58.444  1.00  0.00     0.095 A 
HETATM    5  C   UNL     1     -43.862  58.124 -59.484  1.00  0.00     0.103 C 
HETATM    6  N   UNL     1     -44.222  58.812 -60.344  1.00  0.00    -0.191 NA
HETATM    7  C   UNL     1     -43.710  55.867 -58.500  1.00  0.00     0.073 A 
HETATM    8  C   UNL     1     -43.228  55.027 -57.483  1.00  0.00     0.050 A 
ENDROOT
BRANCH   3   9
HETATM    9  S   UNL     1     -42.125  59.419 -57.265  1.00  0.00    -0.100 SA
BRANCH   9  10
HETATM   10  C   UNL     1     -43.418  60.179 -56.219  1.00  0.00     0.184 C 
BRANCH  10  11
HETATM   11  C   UNL     1     -43.468  59.703 -54.769  1.00  0.00     0.231 C 
HETATM   12  N   UNL     1     -42.267  59.281 -54.234  1.00  0.00    -0.326 N 
HETATM   13  H   UNL     1     -41.475  59.348 -54.862  1.00  0.00     0.169 HD
HETATM   14  O   UNL     1     -44.542  59.724 -54.169  1.00  0.00    -0.272 OA
BRANCH  12  15
HETATM   15  C   UNL     1     -42.054  58.577 -53.034  1.00  0.00     0.037 A 
HETATM   16  C   UNL     1     -42.549  57.290 -52.793  1.00  0.00     0.061 A 
HETATM   17  C   UNL     1     -42.203  56.700 -51.599  1.00  0.00     0.065 A 
HETATM   18  C   UNL     1     -41.399  57.335 -50.656  1.00  0.00     0.063 A 
HETATM   19  N   UNL     1     -42.533  55.444 -51.102  1.00  0.00    -0.306 N 
HETATM   20  N   UNL     1     -41.229  56.470 -49.582  1.00  0.00    -0.307 N 
HETATM   21  C   UNL     1     -40.906  58.600 -50.851  1.00  0.00     0.034 A 
HETATM   22  C   UNL     1     -41.931  55.284 -49.846  1.00  0.00     0.325 A 
HETATM   23  H   UNL     1     -40.698  56.629 -48.743  1.00  0.00     0.170 HD
HETATM   24  O   UNL     1     -42.002  54.306 -49.123  1.00  0.00    -0.247 OA
HETATM   25  C   UNL     1     -41.249  59.224 -52.058  1.00  0.00     0.032 A 
HETATM   26  H   UNL     1     -43.104  54.745 -51.548  1.00  0.00     0.170 HD
ENDBRANCH  12  15
ENDBRANCH  10  11
ENDBRANCH   9  10
ENDBRANCH   3   9
BRANCH   7  27
HETATM   27  C   UNL     1     -44.486  55.283 -59.652  1.00  0.00     0.419 C 
HETATM   28  F   UNL     1     -43.961  55.619 -60.858  1.00  0.00    -0.166 F 
HETATM   29  F   UNL     1     -44.524  53.926 -59.605  1.00  0.00    -0.166 F 
HETATM   30  F   UNL     1     -45.784  55.691 -59.685  1.00  0.00    -0.166 F 
ENDBRANCH   7  27
BRANCH   1  31
HETATM   31  C   UNL     1     -41.872  54.781 -55.358  1.00  0.00     0.033 A 
HETATM   32  S   UNL     1     -40.319  55.165 -54.718  1.00  0.00    -0.100 SA
HETATM   33  C   UNL     1     -40.384  53.906 -53.568  1.00  0.00     0.050 A 
HETATM   34  C   UNL     1     -41.555  53.193 -53.653  1.00  0.00     0.008 A 
HETATM   35  C   UNL     1     -42.404  53.691 -54.684  1.00  0.00     0.021 A 
ENDBRANCH   1  31
TORSDOF 6
ENDMDL
MODEL 5
REMARK VINA RESULT:      -8.3      4.883      8.818
REMARK  6 active torsions:
REMARK  status: ('A' for Active; 'I' for Inactive)
REMARK    1  A    between atoms: C_4  and  C_5 
REMARK    2  A    between atoms: C_7  and  S_8 
REMARK    3  A    between atoms: S_8  and  C_9 
REMARK    4  A    between atoms: C_9  and  C_10 
REMARK       I    between atoms: C_10  and  N_11 
REMARK    5  A    between atoms: N_11  and  C_12 
REMARK    6  A    between atoms: C_26  and  C_27 
ROOT
HETATM    1  C   UNL     1     -41.925  59.959 -58.025  1.00  0.00     0.076 A 
HETATM    2  N   UNL     1     -42.327  60.364 -56.796  1.00  0.00    -0.239 NA
HETATM    3  C   UNL     1     -42.930  59.483 -55.965  1.00  0.00     0.116 A 
HETATM    4  C   UNL     1     -43.146  58.151 -56.318  1.00  0.00     0.095 A 
HETATM    5  C   UNL     1     -43.816  57.246 -55.429  1.00  0.00     0.103 C 
HETATM    6  N   UNL     1     -44.364  56.496 -54.736  1.00  0.00    -0.191 NA
HETATM    7  C   UNL     1     -42.715  57.722 -57.584  1.00  0.00     0.073 A 
HETATM    8  C   UNL     1     -42.098  58.647 -58.443  1.00  0.00     0.050 A 
ENDROOT
BRANCH   3   9
HETATM    9  S   UNL     1     -43.562  60.171 -54.431  1.00  0.00    -0.100 SA
BRANCH   9  10
HETATM   10  C   UNL     1     -42.040  60.364 -53.436  1.00  0.00     0.184 C 
BRANCH  10  11
HETATM   11  C   UNL     1     -41.275  59.078 -53.131  1.00  0.00     0.231 C 
HETATM   12  N   UNL     1     -42.044  58.002 -52.731  1.00  0.00    -0.326 N 
HETATM   13  H   UNL     1     -43.041  58.181 -52.698  1.00  0.00     0.169 HD
HETATM   14  O   UNL     1     -40.051  59.065 -53.256  1.00  0.00    -0.272 OA
BRANCH  12  15
HETATM   15  C   UNL     1     -41.608  56.791 -52.161  1.00  0.00     0.037 A 
HETATM   16  C   UNL     1     -41.322  55.642 -52.908  1.00  0.00     0.061 A 
HETATM   17  C   UNL     1     -40.838  54.553 -52.219  1.00  0.00     0.065 A 
HETATM   18  C   UNL     1     -40.635  54.569 -50.842  1.00  0.00     0.063 A 
HETATM   19  N   UNL     1     -40.463  53.300 -52.692  1.00  0.00    -0.306 N 
HETATM   20  N   UNL     1     -40.130  53.330 -50.468  1.00  0.00    -0.307 N 
HETATM   21  C   UNL     1     -40.915  55.671 -50.076  1.00  0.00     0.034 A 
HETATM   22  C   UNL     1     -40.017  52.526 -51.612  1.00  0.00     0.325 A 
HETATM   23  H   UNL     1     -39.874  53.024 -49.544  1.00  0.00     0.170 HD
HETATM   24  O   UNL     1     -39.607  51.380 -51.657  1.00  0.00    -0.247 OA
HETATM   25  C   UNL     1     -41.413  56.792 -50.753  1.00  0.00     0.032 A 
HETATM   26  H   UNL     1     -40.494  52.977 -53.645  1.00  0.00     0.170 HD
ENDBRANCH  12  15
ENDBRANCH  10  11
ENDBRANCH   9  10
ENDBRANCH   3   9
BRANCH   7  27
HETATM   27  C   UNL     1     -42.946  56.306 -58.046  1.00  0.00     0.419 C 
HETATM   28  F   UNL     1     -42.479  55.387 -57.163  1.00  0.00    -0.166 F 
HETATM   29  F   UNL     1     -44.266  56.039 -58.230  1.00  0.00    -0.166 F 
HETATM   30  F   UNL     1     -42.341  56.024 -59.232  1.00  0.00    -0.166 F 
ENDBRANCH   7  27
BRANCH   1  31
HETATM   31  C   UNL     1     -41.348  61.031 -58.856  1.00  0.00     0.033 A 
HETATM   32  S   UNL     1     -41.745  61.203 -60.523  1.00  0.00    -0.100 SA
HETATM   33  C   UNL     1     -40.768  62.590 -60.703  1.00  0.00     0.050 A 
HETATM   34  C   UNL     1     -40.140  62.932 -59.530  1.00  0.00     0.008 A 
HETATM   35  C   UNL     1     -40.467  62.033 -58.474  1.00  0.00     0.021 A 
ENDBRANCH   1  31
TORSDOF 6
ENDMDL
MODEL 6
REMARK VINA RESULT:      -8.2      2.983      3.411
REMARK  6 active torsions:
REMARK  status: ('A' for Active; 'I' for Inactive)
REMARK    1  A    between atoms: C_4  and  C_5 
REMARK    2  A    between atoms: C_7  and  S_8 
REMARK    3  A    between atoms: S_8  and  C_9 
REMARK    4  A    between atoms: C_9  and  C_10 
REMARK       I    between atoms: C_10  and  N_11 
REMARK    5  A    between atoms: N_11  and  C_12 
REMARK    6  A    between atoms: C_26  and  C_27 
ROOT
HETATM    1  C   UNL     1     -42.564  55.998 -51.222  1.00  0.00     0.076 A 
HETATM    2  N   UNL     1     -42.513  55.264 -52.360  1.00  0.00    -0.239 NA
HETATM    3  C   UNL     1     -41.772  54.132 -52.393  1.00  0.00     0.116 A 
HETATM    4  C   UNL     1     -41.060  53.673 -51.285  1.00  0.00     0.095 A 
HETATM    5  C   UNL     1     -40.258  52.486 -51.357  1.00  0.00     0.103 C 
HETATM    6  N   UNL     1     -39.593  51.537 -51.390  1.00  0.00    -0.191 NA
HETATM    7  C   UNL     1     -41.125  54.421 -50.098  1.00  0.00     0.073 A 
HETATM    8  C   UNL     1     -41.890  55.600 -50.077  1.00  0.00     0.050 A 
ENDROOT
BRANCH   3   9
HETATM    9  S   UNL     1     -41.650  53.332 -53.996  1.00  0.00    -0.100 SA
BRANCH   9  10
HETATM   10  C   UNL     1     -40.892  54.639 -55.025  1.00  0.00     0.184 C 
BRANCH  10  11
HETATM   11  C   UNL     1     -41.857  55.656 -55.631  1.00  0.00     0.231 C 
HETATM   12  N   UNL     1     -42.076  56.795 -54.882  1.00  0.00    -0.326 N 
HETATM   13  H   UNL     1     -41.557  56.839 -54.013  1.00  0.00     0.169 HD
HETATM   14  O   UNL     1     -42.372  55.417 -56.723  1.00  0.00    -0.272 OA
BRANCH  12  15
HETATM   15  C   UNL     1     -43.077  57.770 -55.062  1.00  0.00     0.037 A 
HETATM   16  C   UNL     1     -42.806  59.116 -55.336  1.00  0.00     0.061 A 
HETATM   17  C   UNL     1     -43.888  59.938 -55.556  1.00  0.00     0.065 A 
HETATM   18  C   UNL     1     -45.201  59.476 -55.512  1.00  0.00     0.063 A 
HETATM   19  N   UNL     1     -43.923  61.295 -55.857  1.00  0.00    -0.306 N 
HETATM   20  N   UNL     1     -46.043  60.545 -55.790  1.00  0.00    -0.307 N 
HETATM   21  C   UNL     1     -45.504  58.168 -55.234  1.00  0.00     0.034 A 
HETATM   22  C   UNL     1     -45.260  61.688 -56.008  1.00  0.00     0.325 A 
HETATM   23  H   UNL     1     -47.048  60.539 -55.840  1.00  0.00     0.170 HD
HETATM   24  O   UNL     1     -45.665  62.805 -56.279  1.00  0.00    -0.247 OA
HETATM   25  C   UNL     1     -44.421  57.310 -55.002  1.00  0.00     0.032 A 
HETATM   26  H   UNL     1     -43.137  61.915 -55.958  1.00  0.00     0.170 HD
ENDBRANCH  12  15
ENDBRANCH  10  11
ENDBRANCH   9  10
ENDBRANCH   3   9
BRANCH   7  27
HETATM   27  C   UNL     1     -40.355  54.004 -48.872  1.00  0.00     0.419 C 
HETATM   28  F   UNL     1     -40.683  54.734 -47.776  1.00  0.00    -0.166 F 
HETATM   29  F   UNL     1     -40.570  52.700 -48.554  1.00  0.00    -0.166 F 
HETATM   30  F   UNL     1     -39.008  54.133 -49.016  1.00  0.00    -0.166 F 
ENDBRANCH   7  27
BRANCH   1  31
HETATM   31  C   UNL     1     -43.347  57.241 -51.340  1.00  0.00     0.033 A 
HETATM   32  S   UNL     1     -42.590  58.781 -51.493  1.00  0.00    -0.100 SA
HETATM   33  C   UNL     1     -44.082  59.601 -51.611  1.00  0.00     0.050 A 
HETATM   34  C   UNL     1     -45.149  58.739 -51.535  1.00  0.00     0.008 A 
HETATM   35  C   UNL     1     -44.727  57.387 -51.373  1.00  0.00     0.021 A 
ENDBRANCH   1  31
TORSDOF 6
ENDMDL
MODEL 7
REMARK VINA RESULT:      -8.2      4.184      6.609
REMARK  6 active torsions:
REMARK  status: ('A' for Active; 'I' for Inactive)
REMARK    1  A    between atoms: C_4  and  C_5 
REMARK    2  A    between atoms: C_7  and  S_8 
REMARK    3  A    between atoms: S_8  and  C_9 
REMARK    4  A    between atoms: C_9  and  C_10 
REMARK       I    between atoms: C_10  and  N_11 
REMARK    5  A    between atoms: N_11  and  C_12 
REMARK    6  A    between atoms: C_26  and  C_27 
ROOT
HETATM    1  C   UNL     1     -41.742  54.900 -54.510  1.00  0.00     0.076 A 
HETATM    2  N   UNL     1     -41.982  55.386 -53.268  1.00  0.00    -0.239 NA
HETATM    3  C   UNL     1     -41.586  54.678 -52.185  1.00  0.00     0.116 A 
HETATM    4  C   UNL     1     -40.918  53.458 -52.293  1.00  0.00     0.095 A 
HETATM    5  C   UNL     1     -40.538  52.714 -51.128  1.00  0.00     0.103 C 
HETATM    6  N   UNL     1     -40.228  52.086 -50.203  1.00  0.00    -0.191 NA
HETATM    7  C   UNL     1     -40.652  52.960 -53.579  1.00  0.00     0.073 A 
HETATM    8  C   UNL     1     -41.075  53.699 -54.696  1.00  0.00     0.050 A 
ENDROOT
BRANCH   3   9
HETATM    9  S   UNL     1     -42.100  55.339 -50.596  1.00  0.00    -0.100 SA
BRANCH   9  10
HETATM   10  C   UNL     1     -43.880  55.657 -50.865  1.00  0.00     0.184 C 
BRANCH  10  11
HETATM   11  C   UNL     1     -44.269  57.115 -51.099  1.00  0.00     0.231 C 
HETATM   12  N   UNL     1     -43.313  57.900 -51.714  1.00  0.00    -0.326 N 
HETATM   13  H   UNL     1     -42.458  57.416 -51.958  1.00  0.00     0.169 HD
HETATM   14  O   UNL     1     -45.382  57.504 -50.744  1.00  0.00    -0.272 OA
BRANCH  12  15
HETATM   15  C   UNL     1     -43.293  59.303 -51.835  1.00  0.00     0.037 A 
HETATM   16  C   UNL     1     -43.790  59.992 -52.948  1.00  0.00     0.061 A 
HETATM   17  C   UNL     1     -43.765  61.367 -52.894  1.00  0.00     0.065 A 
HETATM   18  C   UNL     1     -43.271  62.064 -51.795  1.00  0.00     0.063 A 
HETATM   19  N   UNL     1     -44.196  62.299 -53.832  1.00  0.00    -0.306 N 
HETATM   20  N   UNL     1     -43.403  63.423 -52.052  1.00  0.00    -0.307 N 
HETATM   21  C   UNL     1     -42.765  61.424 -50.693  1.00  0.00     0.034 A 
HETATM   22  C   UNL     1     -43.979  63.586 -53.321  1.00  0.00     0.325 A 
HETATM   23  H   UNL     1     -43.143  64.189 -51.454  1.00  0.00     0.170 HD
HETATM   24  O   UNL     1     -44.241  64.642 -53.869  1.00  0.00    -0.247 OA
HETATM   25  C   UNL     1     -42.775  60.023 -50.724  1.00  0.00     0.032 A 
HETATM   26  H   UNL     1     -44.602  62.110 -54.734  1.00  0.00     0.170 HD
ENDBRANCH  12  15
ENDBRANCH  10  11
ENDBRANCH   9  10
ENDBRANCH   3   9
BRANCH   7  27
HETATM   27  C   UNL     1     -39.964  51.633 -53.771  1.00  0.00     0.419 C 
HETATM   28  F   UNL     1     -40.637  50.608 -53.189  1.00  0.00    -0.166 F 
HETATM   29  F   UNL     1     -39.828  51.316 -55.085  1.00  0.00    -0.166 F 
HETATM   30  F   UNL     1     -38.709  51.599 -53.248  1.00  0.00    -0.166 F 
ENDBRANCH   7  27
BRANCH   1  31
HETATM   31  C   UNL     1     -42.286  55.732 -55.599  1.00  0.00     0.033 A 
HETATM   32  S   UNL     1     -42.347  57.450 -55.486  1.00  0.00    -0.100 SA
HETATM   33  C   UNL     1     -43.012  57.616 -57.049  1.00  0.00     0.050 A 
HETATM   34  C   UNL     1     -43.195  56.400 -57.662  1.00  0.00     0.008 A 
HETATM   35  C   UNL     1     -42.785  55.320 -56.827  1.00  0.00     0.021 A 
ENDBRANCH   1  31
TORSDOF 6
ENDMDL
MODEL 8
REMARK VINA RESULT:      -8.2      4.221      6.435
REMARK  6 active torsions:
REMARK  status: ('A' for Active; 'I' for Inactive)
REMARK    1  A    between atoms: C_4  and  C_5 
REMARK    2  A    between atoms: C_7  and  S_8 
REMARK    3  A    between atoms: S_8  and  C_9 
REMARK    4  A    between atoms: C_9  and  C_10 
REMARK       I    between atoms: C_10  and  N_11 
REMARK    5  A    between atoms: N_11  and  C_12 
REMARK    6  A    between atoms: C_26  and  C_27 
ROOT
HETATM    1  C   UNL     1     -41.705  54.804 -54.534  1.00  0.00     0.076 A 
HETATM    2  N   UNL     1     -41.941  55.306 -53.297  1.00  0.00    -0.239 NA
HETATM    3  C   UNL     1     -41.546  54.611 -52.206  1.00  0.00     0.116 A 
HETATM    4  C   UNL     1     -40.884  53.387 -52.300  1.00  0.00     0.095 A 
HETATM    5  C   UNL     1     -40.504  52.656 -51.126  1.00  0.00     0.103 C 
HETATM    6  N   UNL     1     -40.196  52.038 -50.194  1.00  0.00    -0.191 NA
HETATM    7  C   UNL     1     -40.621  52.871 -53.580  1.00  0.00     0.073 A 
HETATM    8  C   UNL     1     -41.043  53.597 -54.706  1.00  0.00     0.050 A 
ENDROOT
BRANCH   3   9
HETATM    9  S   UNL     1     -42.055  55.294 -50.625  1.00  0.00    -0.100 SA
BRANCH   9  10
HETATM   10  C   UNL     1     -41.143  56.878 -50.575  1.00  0.00     0.184 C 
BRANCH  10  11
HETATM   11  C   UNL     1     -41.928  58.114 -51.007  1.00  0.00     0.231 C 
HETATM   12  N   UNL     1     -43.304  58.002 -50.950  1.00  0.00    -0.326 N 
HETATM   13  H   UNL     1     -43.644  57.110 -50.610  1.00  0.00     0.169 HD
HETATM   14  O   UNL     1     -41.314  59.118 -51.370  1.00  0.00    -0.272 OA
BRANCH  12  15
HETATM   15  C   UNL     1     -44.266  58.867 -51.504  1.00  0.00     0.037 A 
HETATM   16  C   UNL     1     -44.962  59.829 -50.762  1.00  0.00     0.061 A 
HETATM   17  C   UNL     1     -45.823  60.650 -51.454  1.00  0.00     0.065 A 
HETATM   18  C   UNL     1     -46.011  60.548 -52.830  1.00  0.00     0.063 A 
HETATM   19  N   UNL     1     -46.626  61.686 -50.990  1.00  0.00    -0.306 N 
HETATM   20  N   UNL     1     -46.923  61.522 -53.213  1.00  0.00    -0.307 N 
HETATM   21  C   UNL     1     -45.356  59.610 -53.588  1.00  0.00     0.034 A 
HETATM   22  C   UNL     1     -47.316  62.242 -52.075  1.00  0.00     0.325 A 
HETATM   23  H   UNL     1     -47.266  61.713 -54.140  1.00  0.00     0.170 HD
HETATM   24  O   UNL     1     -48.104  63.171 -52.039  1.00  0.00    -0.247 OA
HETATM   25  C   UNL     1     -44.477  58.759 -52.906  1.00  0.00     0.032 A 
HETATM   26  H   UNL     1     -46.714  62.006 -50.040  1.00  0.00     0.170 HD
ENDBRANCH  12  15
ENDBRANCH  10  11
ENDBRANCH   9  10
ENDBRANCH   3   9
BRANCH   7  27
HETATM   27  C   UNL     1     -39.939  51.539 -53.756  1.00  0.00     0.419 C 
HETATM   28  F   UNL     1     -39.826  51.181 -55.061  1.00  0.00    -0.166 F 
HETATM   29  F   UNL     1     -38.684  51.536 -53.238  1.00  0.00    -0.166 F 
HETATM   30  F   UNL     1     -40.596  50.516 -53.145  1.00  0.00    -0.166 F 
ENDBRANCH   7  27
BRANCH   1  31
HETATM   31  C   UNL     1     -42.246  55.624 -55.633  1.00  0.00     0.033 A 
HETATM   32  S   UNL     1     -42.256  57.345 -55.562  1.00  0.00    -0.100 SA
HETATM   33  C   UNL     1     -42.947  57.492 -57.115  1.00  0.00     0.050 A 
HETATM   34  C   UNL     1     -43.178  56.268 -57.693  1.00  0.00     0.008 A 
HETATM   35  C   UNL     1     -42.782  55.197 -56.839  1.00  0.00     0.021 A 
ENDBRANCH   1  31
TORSDOF 6
ENDMDL
MODEL 9
REMARK VINA RESULT:      -8.0      3.415      5.034
REMARK  6 active torsions:
REMARK  status: ('A' for Active; 'I' for Inactive)
REMARK    1  A    between atoms: C_4  and  C_5 
REMARK    2  A    between atoms: C_7  and  S_8 
REMARK    3  A    between atoms: S_8  and  C_9 
REMARK    4  A    between atoms: C_9  and  C_10 
REMARK       I    between atoms: C_10  and  N_11 
REMARK    5  A    between atoms: N_11  and  C_12 
REMARK    6  A    between atoms: C_26  and  C_27 
ROOT
HETATM    1  C   UNL     1     -41.481  55.085 -54.465  1.00  0.00     0.076 A 
HETATM    2  N   UNL     1     -41.725  55.571 -53.224  1.00  0.00    -0.239 NA
HETATM    3  C   UNL     1     -41.414  54.824 -52.140  1.00  0.00     0.116 A 
HETATM    4  C   UNL     1     -40.830  53.561 -52.245  1.00  0.00     0.095 A 
HETATM    5  C   UNL     1     -40.539  52.778 -51.080  1.00  0.00     0.103 C 
HETATM    6  N   UNL     1     -40.304  52.119 -50.156  1.00  0.00    -0.191 NA
HETATM    7  C   UNL     1     -40.559  53.061 -53.529  1.00  0.00     0.073 A 
HETATM    8  C   UNL     1     -40.895  53.842 -54.649  1.00  0.00     0.050 A 
ENDROOT
BRANCH   3   9
HETATM    9  S   UNL     1     -41.929  55.500 -50.558  1.00  0.00    -0.100 SA
BRANCH   9  10
HETATM   10  C   UNL     1     -43.752  55.449 -50.689  1.00  0.00     0.184 C 
BRANCH  10  11
HETATM   11  C   UNL     1     -44.408  56.660 -51.349  1.00  0.00     0.231 C 
HETATM   12  N   UNL     1     -44.230  56.769 -52.715  1.00  0.00    -0.326 N 
HETATM   13  H   UNL     1     -43.692  56.020 -53.135  1.00  0.00     0.169 HD
HETATM   14  O   UNL     1     -45.046  57.450 -50.654  1.00  0.00    -0.272 OA
BRANCH  12  15
HETATM   15  C   UNL     1     -44.502  57.879 -53.537  1.00  0.00     0.037 A 
HETATM   16  C   UNL     1     -45.294  57.815 -54.689  1.00  0.00     0.061 A 
HETATM   17  C   UNL     1     -45.528  58.997 -55.354  1.00  0.00     0.065 A 
HETATM   18  C   UNL     1     -45.010  60.215 -54.920  1.00  0.00     0.063 A 
HETATM   19  N   UNL     1     -46.276  59.236 -56.502  1.00  0.00    -0.306 N 
HETATM   20  N   UNL     1     -45.442  61.203 -55.796  1.00  0.00    -0.307 N 
HETATM   21  C   UNL     1     -44.220  60.315 -53.804  1.00  0.00     0.034 A 
HETATM   22  C   UNL     1     -46.234  60.607 -56.789  1.00  0.00     0.325 A 
HETATM   23  H   UNL     1     -45.245  62.188 -55.756  1.00  0.00     0.170 HD
HETATM   24  O   UNL     1     -46.780  61.174 -57.719  1.00  0.00    -0.247 OA
HETATM   25  C   UNL     1     -43.963  59.124 -53.111  1.00  0.00     0.032 A 
HETATM   26  H   UNL     1     -46.775  58.558 -57.053  1.00  0.00     0.170 HD
ENDBRANCH  12  15
ENDBRANCH  10  11
ENDBRANCH   9  10
ENDBRANCH   3   9
BRANCH   7  27
HETATM   27  C   UNL     1     -39.961  51.691 -53.720  1.00  0.00     0.419 C 
HETATM   28  F   UNL     1     -40.698  50.715 -53.132  1.00  0.00    -0.166 F 
HETATM   29  F   UNL     1     -39.849  51.363 -55.034  1.00  0.00    -0.166 F 
HETATM   30  F   UNL     1     -38.709  51.577 -53.200  1.00  0.00    -0.166 F 
ENDBRANCH   7  27
BRANCH   1  31
HETATM   31  C   UNL     1     -41.930  55.966 -55.558  1.00  0.00     0.033 A 
HETATM   32  S   UNL     1     -42.847  55.369 -56.889  1.00  0.00    -0.100 SA
HETATM   33  C   UNL     1     -42.978  56.913 -57.604  1.00  0.00     0.050 A 
HETATM   34  C   UNL     1     -42.342  57.878 -56.863  1.00  0.00     0.008 A 
HETATM   35  C   UNL     1     -41.735  57.334 -55.694  1.00  0.00     0.021 A 
ENDBRANCH   1  31
TORSDOF 6
ENDMDL
MODEL 10
REMARK VINA RESULT:      -7.9      4.122      6.771
REMARK  6 active torsions:
REMARK  status: ('A' for Active; 'I' for Inactive)
REMARK    1  A    between atoms: C_4  and  C_5 
REMARK    2  A    between atoms: C_7  and  S_8 
REMARK    3  A    between atoms: S_8  and  C_9 
REMARK    4  A    between atoms: C_9  and  C_10 
REMARK       I    between atoms: C_10  and  N_11 
REMARK    5  A    between atoms: N_11  and  C_12 
REMARK    6  A    between atoms: C_26  and  C_27 
ROOT
HETATM    1  C   UNL     1     -44.192  60.720 -50.554  1.00  0.00     0.076 A 
HETATM    2  N   UNL     1     -44.518  60.517 -51.854  1.00  0.00    -0.239 NA
HETATM    3  C   UNL     1     -43.628  59.922 -52.681  1.00  0.00     0.116 A 
HETATM    4  C   UNL     1     -42.376  59.488 -52.244  1.00  0.00     0.095 A 
HETATM    5  C   UNL     1     -41.441  58.888 -53.150  1.00  0.00     0.103 C 
HETATM    6  N   UNL     1     -40.660  58.410 -53.862  1.00  0.00    -0.191 NA
HETATM    7  C   UNL     1     -42.042  59.680 -50.893  1.00  0.00     0.073 A 
HETATM    8  C   UNL     1     -42.970  60.307 -50.045  1.00  0.00     0.050 A 
ENDROOT
BRANCH   3   9
HETATM    9  S   UNL     1     -44.103  59.853 -54.411  1.00  0.00    -0.100 SA
BRANCH   9  10
HETATM   10  C   UNL     1     -44.910  58.216 -54.528  1.00  0.00     0.184 C 
BRANCH  10  11
HETATM   11  C   UNL     1     -43.971  57.014 -54.611  1.00  0.00     0.231 C 
HETATM   12  N   UNL     1     -43.861  56.259 -53.460  1.00  0.00    -0.326 N 
HETATM   13  H   UNL     1     -44.430  56.578 -52.685  1.00  0.00     0.169 HD
HETATM   14  O   UNL     1     -43.383  56.785 -55.667  1.00  0.00    -0.272 OA
BRANCH  12  15
HETATM   15  C   UNL     1     -42.910  55.263 -53.167  1.00  0.00     0.037 A 
HETATM   16  C   UNL     1     -42.606  54.204 -54.031  1.00  0.00     0.061 A 
HETATM   17  C   UNL     1     -41.604  53.346 -53.639  1.00  0.00     0.065 A 
HETATM   18  C   UNL     1     -40.910  53.501 -52.442  1.00  0.00     0.063 A 
HETATM   19  N   UNL     1     -41.087  52.230 -54.290  1.00  0.00    -0.306 N 
HETATM   20  N   UNL     1     -39.965  52.487 -52.357  1.00  0.00    -0.307 N 
HETATM   21  C   UNL     1     -41.189  54.518 -51.565  1.00  0.00     0.034 A 
HETATM   22  C   UNL     1     -40.063  51.685 -53.504  1.00  0.00     0.325 A 
HETATM   23  H   UNL     1     -39.303  52.325 -51.617  1.00  0.00     0.170 HD
HETATM   24  O   UNL     1     -39.386  50.706 -53.766  1.00  0.00    -0.247 OA
HETATM   25  C   UNL     1     -42.209  55.404 -51.938  1.00  0.00     0.032 A 
HETATM   26  H   UNL     1     -41.379  51.856 -55.177  1.00  0.00     0.170 HD
ENDBRANCH  12  15
ENDBRANCH  10  11
ENDBRANCH   9  10
ENDBRANCH   3   9
BRANCH   7  27
HETATM   27  C   UNL     1     -40.695  59.266 -50.359  1.00  0.00     0.419 C 
HETATM   28  F   UNL     1     -39.671  59.917 -50.968  1.00  0.00    -0.166 F 
HETATM   29  F   UNL     1     -40.579  59.509 -49.027  1.00  0.00    -0.166 F 
HETATM   30  F   UNL     1     -40.440  57.939 -50.518  1.00  0.00    -0.166 F 
ENDBRANCH   7  27
BRANCH   1  31
HETATM   31  C   UNL     1     -45.220  61.439 -49.779  1.00  0.00     0.033 A 
HETATM   32  S   UNL     1     -45.388  61.230 -48.078  1.00  0.00    -0.100 SA
HETATM   33  C   UNL     1     -46.663  62.359 -47.976  1.00  0.00     0.050 A 
HETATM   34  C   UNL     1     -46.974  62.895 -49.202  1.00  0.00     0.008 A 
HETATM   35  C   UNL     1     -46.150  62.362 -50.236  1.00  0.00     0.021 A 
ENDBRANCH   1  31
TORSDOF 6
ENDMDL
