MODEL 1
REMARK VINA RESULT:      -7.8      0.000      0.000
REMARK  4 active torsions:
REMARK  status: ('A' for Active; 'I' for Inactive)
REMARK    1  A    between atoms: C_7  and  C_8 
REMARK    2  A    between atoms: C_8  and  N_9 
REMARK    3  A    between atoms: N_15  and  C_17 
REMARK    4  A    between atoms: C_21  and  C_22 
ROOT
HETATM    1  N   UNL     1     -42.004  55.655 -56.322  1.00  0.00    -0.067 N 
HETATM    2  H   UNL     1     -41.442  55.231 -57.075  1.00  0.00     0.280 HD
HETATM    3  C   UNL     1     -41.046  55.904 -55.194  1.00  0.00     0.236 C 
HETATM    4  C   UNL     1     -41.787  56.378 -53.946  1.00  0.00     0.039 C 
HETATM    5  C   UNL     1     -42.939  55.444 -53.479  1.00  0.00    -0.013 C 
HETATM    6  C   UNL     1     -42.409  54.139 -52.831  1.00  0.00     0.245 C 
HETATM    7  N   UNL     1     -41.774  54.406 -51.487  1.00  0.00    -0.065 N 
HETATM    8  H   UNL     1     -40.996  55.071 -51.593  1.00  0.00     0.280 HD
HETATM    9  C   UNL     1     -42.753  55.033 -50.497  1.00  0.00     0.244 C 
HETATM   10  C   UNL     1     -43.260  56.385 -51.032  1.00  0.00     0.045 C 
HETATM   11  C   UNL     1     -43.863  56.159 -52.443  1.00  0.00     0.022 C 
HETATM   12  C   UNL     1     -43.825  55.106 -54.719  1.00  0.00     0.039 C 
HETATM   13  C   UNL     1     -43.063  54.657 -55.966  1.00  0.00     0.236 C 
ENDROOT
BRANCH   7  14
HETATM   14  C   UNL     1     -41.186  53.153 -50.906  1.00  0.00     0.188 A 
HETATM   15  C   UNL     1     -39.724  52.911 -51.156  1.00  0.00     0.035 A 
HETATM   16  C   UNL     1     -40.195  53.318 -49.789  1.00  0.00     0.035 A 
ENDBRANCH   7  14
BRANCH  10  17
HETATM   17  C   UNL     1     -42.286  57.559 -50.969  1.00  0.00    -0.052 A 
HETATM   18  C   UNL     1     -40.957  57.451 -50.525  1.00  0.00     0.007 A 
HETATM   19  C   UNL     1     -40.112  58.565 -50.496  1.00  0.00     0.001 A 
HETATM   20  C   UNL     1     -40.581  59.815 -50.883  1.00  0.00     0.000 A 
HETATM   21  C   UNL     1     -41.906  59.959 -51.276  1.00  0.00     0.001 A 
HETATM   22  C   UNL     1     -42.750  58.846 -51.306  1.00  0.00     0.007 A 
ENDBRANCH  10  17
BRANCH   1  23
HETATM   23  C   UNL     1     -42.545  56.913 -57.000  1.00  0.00     0.277 C 
BRANCH  23  24
HETATM   24  C   UNL     1     -43.288  56.596 -58.241  1.00  0.00     0.011 A 
HETATM   25  C   UNL     1     -44.572  56.970 -58.620  1.00  0.00     0.035 A 
HETATM   26  C   UNL     1     -45.581  57.845 -57.967  1.00  0.00     0.070 C 
HETATM   27  N   UNL     1     -44.790  56.371 -59.842  1.00  0.00    -0.278 N 
HETATM   28  C   UNL     1     -45.960  56.440 -60.690  1.00  0.00     0.179 C 
HETATM   29  N   UNL     1     -43.746  55.630 -60.250  1.00  0.00    -0.185 NA
HETATM   30  C   UNL     1     -42.820  55.810 -59.317  1.00  0.00     0.149 A 
ENDBRANCH  23  24
ENDBRANCH   1  23
TORSDOF 4
ENDMDL
MODEL 2
REMARK VINA RESULT:      -7.8      3.058      6.202
REMARK  4 active torsions:
REMARK  status: ('A' for Active; 'I' for Inactive)
REMARK    1  A    between atoms: C_7  and  C_8 
REMARK    2  A    between atoms: C_8  and  N_9 
REMARK    3  A    between atoms: N_15  and  C_17 
REMARK    4  A    between atoms: C_21  and  C_22 
ROOT
HETATM    1  N   UNL     1     -42.112  53.976 -53.721  1.00  0.00    -0.067 N 
HETATM    2  H   UNL     1     -42.508  53.076 -53.413  1.00  0.00     0.280 HD
HETATM    3  C   UNL     1     -42.221  54.893 -52.538  1.00  0.00     0.236 C 
HETATM    4  C   UNL     1     -41.821  56.318 -52.915  1.00  0.00     0.039 C 
HETATM    5  C   UNL     1     -42.590  56.910 -54.129  1.00  0.00    -0.013 C 
HETATM    6  C   UNL     1     -44.056  57.273 -53.773  1.00  0.00     0.245 C 
HETATM    7  N   UNL     1     -44.122  58.471 -52.855  1.00  0.00    -0.065 N 
HETATM    8  H   UNL     1     -43.601  58.277 -51.988  1.00  0.00     0.280 HD
HETATM    9  C   UNL     1     -43.490  59.714 -53.476  1.00  0.00     0.244 C 
HETATM   10  C   UNL     1     -42.002  59.461 -53.779  1.00  0.00     0.045 C 
HETATM   11  C   UNL     1     -41.891  58.196 -54.671  1.00  0.00     0.022 C 
HETATM   12  C   UNL     1     -42.564  55.858 -55.283  1.00  0.00     0.039 C 
HETATM   13  C   UNL     1     -42.944  54.434 -54.879  1.00  0.00     0.236 C 
ENDROOT
BRANCH   7  14
HETATM   14  C   UNL     1     -45.537  58.762 -52.444  1.00  0.00     0.188 A 
HETATM   15  C   UNL     1     -45.790  58.960 -50.977  1.00  0.00     0.035 A 
HETATM   16  C   UNL     1     -45.823  60.136 -51.910  1.00  0.00     0.035 A 
ENDBRANCH   7  14
BRANCH  10  17
HETATM   17  C   UNL     1     -41.049  59.448 -52.586  1.00  0.00    -0.052 A 
HETATM   18  C   UNL     1     -39.701  59.059 -52.666  1.00  0.00     0.007 A 
HETATM   19  C   UNL     1     -38.877  59.075 -51.535  1.00  0.00     0.001 A 
HETATM   20  C   UNL     1     -39.386  59.453 -50.298  1.00  0.00     0.000 A 
HETATM   21  C   UNL     1     -40.728  59.791 -50.183  1.00  0.00     0.001 A 
HETATM   22  C   UNL     1     -41.551  59.777 -51.312  1.00  0.00     0.007 A 
ENDBRANCH  10  17
BRANCH   1  23
HETATM   23  C   UNL     1     -40.686  53.581 -54.103  1.00  0.00     0.277 C 
BRANCH  23  24
HETATM   24  C   UNL     1     -40.300  52.275 -53.520  1.00  0.00     0.011 A 
HETATM   25  C   UNL     1     -39.938  51.964 -52.214  1.00  0.00     0.035 A 
HETATM   26  C   UNL     1     -39.883  52.791 -50.979  1.00  0.00     0.070 C 
HETATM   27  N   UNL     1     -39.633  50.621 -52.221  1.00  0.00    -0.278 N 
HETATM   28  C   UNL     1     -39.209  49.781 -51.122  1.00  0.00     0.179 C 
HETATM   29  N   UNL     1     -39.755  50.068 -53.439  1.00  0.00    -0.185 NA
HETATM   30  C   UNL     1     -40.211  51.046 -54.210  1.00  0.00     0.149 A 
ENDBRANCH  23  24
ENDBRANCH   1  23
TORSDOF 4
ENDMDL
MODEL 3
REMARK VINA RESULT:      -7.7      1.252      1.625
REMARK  4 active torsions:
REMARK  status: ('A' for Active; 'I' for Inactive)
REMARK    1  A    between atoms: C_7  and  C_8 
REMARK    2  A    between atoms: C_8  and  N_9 
REMARK    3  A    between atoms: N_15  and  C_17 
REMARK    4  A    between atoms: C_21  and  C_22 
ROOT
HETATM    1  N   UNL     1     -42.237  55.260 -56.194  1.00  0.00    -0.067 N 
HETATM    2  H   UNL     1     -41.718  54.984 -57.041  1.00  0.00     0.280 HD
HETATM    3  C   UNL     1     -41.209  55.815 -55.251  1.00  0.00     0.236 C 
HETATM    4  C   UNL     1     -41.825  56.107 -53.885  1.00  0.00     0.039 C 
HETATM    5  C   UNL     1     -42.562  54.903 -53.232  1.00  0.00    -0.013 C 
HETATM    6  C   UNL     1     -41.575  53.828 -52.707  1.00  0.00     0.245 C 
HETATM    7  N   UNL     1     -40.819  54.316 -51.494  1.00  0.00    -0.065 N 
HETATM    8  H   UNL     1     -40.295  55.171 -51.728  1.00  0.00     0.280 HD
HETATM    9  C   UNL     1     -41.748  54.677 -50.337  1.00  0.00     0.244 C 
HETATM   10  C   UNL     1     -42.706  55.808 -50.755  1.00  0.00     0.045 C 
HETATM   11  C   UNL     1     -43.456  55.365 -52.039  1.00  0.00     0.022 C 
HETATM   12  C   UNL     1     -43.515  54.279 -54.300  1.00  0.00     0.039 C 
HETATM   13  C   UNL     1     -42.886  54.017 -55.668  1.00  0.00     0.236 C 
ENDROOT
BRANCH   7  14
HETATM   14  C   UNL     1     -39.804  53.305 -51.043  1.00  0.00     0.188 A 
HETATM   15  C   UNL     1     -40.334  52.001 -50.517  1.00  0.00     0.035 A 
HETATM   16  C   UNL     1     -39.675  52.056 -51.866  1.00  0.00     0.035 A 
ENDBRANCH   7  14
BRANCH  10  17
HETATM   17  C   UNL     1     -42.114  57.212 -50.852  1.00  0.00    -0.052 A 
HETATM   18  C   UNL     1     -40.793  57.530 -50.495  1.00  0.00     0.007 A 
HETATM   19  C   UNL     1     -40.308  58.837 -50.612  1.00  0.00     0.001 A 
HETATM   20  C   UNL     1     -41.137  59.858 -51.060  1.00  0.00     0.000 A 
HETATM   21  C   UNL     1     -42.462  59.580 -51.368  1.00  0.00     0.001 A 
HETATM   22  C   UNL     1     -42.947  58.275 -51.253  1.00  0.00     0.007 A 
ENDBRANCH  10  17
BRANCH   1  23
HETATM   23  C   UNL     1     -43.225  56.286 -56.748  1.00  0.00     0.277 C 
BRANCH  23  24
HETATM   24  C   UNL     1     -42.853  56.730 -58.111  1.00  0.00     0.011 A 
HETATM   25  C   UNL     1     -42.387  57.967 -58.540  1.00  0.00     0.035 A 
HETATM   26  C   UNL     1     -42.044  59.207 -57.794  1.00  0.00     0.070 C 
HETATM   27  N   UNL     1     -42.240  57.859 -59.906  1.00  0.00    -0.278 N 
HETATM   28  C   UNL     1     -41.773  58.850 -60.850  1.00  0.00     0.179 C 
HETATM   29  N   UNL     1     -42.601  56.651 -60.371  1.00  0.00    -0.185 NA
HETATM   30  C   UNL     1     -42.915  55.952 -59.289  1.00  0.00     0.149 A 
ENDBRANCH  23  24
ENDBRANCH   1  23
TORSDOF 4
ENDMDL
MODEL 4
REMARK VINA RESULT:      -7.1     16.177     19.652
REMARK  4 active torsions:
REMARK  status: ('A' for Active; 'I' for Inactive)
REMARK    1  A    between atoms: C_7  and  C_8 
REMARK    2  A    between atoms: C_8  and  N_9 
REMARK    3  A    between atoms: N_15  and  C_17 
REMARK    4  A    between atoms: C_21  and  C_22 
ROOT
HETATM    1  N   UNL     1     -32.069  38.018 -55.365  1.00  0.00    -0.067 N 
HETATM    2  H   UNL     1     -31.756  37.037 -55.329  1.00  0.00     0.280 HD
HETATM    3  C   UNL     1     -33.545  37.982 -55.095  1.00  0.00     0.236 C 
HETATM    4  C   UNL     1     -34.167  39.364 -55.288  1.00  0.00     0.039 C 
HETATM    5  C   UNL     1     -33.886  40.017 -56.671  1.00  0.00    -0.013 C 
HETATM    6  C   UNL     1     -34.697  39.346 -57.810  1.00  0.00     0.245 C 
HETATM    7  N   UNL     1     -36.170  39.664 -57.702  1.00  0.00    -0.065 N 
HETATM    8  H   UNL     1     -36.532  39.341 -56.794  1.00  0.00     0.280 HD
HETATM    9  C   UNL     1     -36.448  41.163 -57.776  1.00  0.00     0.244 C 
HETATM   10  C   UNL     1     -35.744  41.894 -56.618  1.00  0.00     0.045 C 
HETATM   11  C   UNL     1     -34.234  41.539 -56.659  1.00  0.00     0.022 C 
HETATM   12  C   UNL     1     -32.357  39.902 -56.962  1.00  0.00     0.039 C 
HETATM   13  C   UNL     1     -31.749  38.518 -56.740  1.00  0.00     0.236 C 
ENDROOT
BRANCH   7  14
HETATM   14  C   UNL     1     -36.960  38.940 -58.755  1.00  0.00     0.188 A 
HETATM   15  C   UNL     1     -38.037  38.010 -58.275  1.00  0.00     0.035 A 
HETATM   16  C   UNL     1     -38.404  39.322 -58.908  1.00  0.00     0.035 A 
ENDBRANCH   7  14
BRANCH  10  17
HETATM   17  C   UNL     1     -36.365  41.744 -55.231  1.00  0.00    -0.052 A 
HETATM   18  C   UNL     1     -37.620  41.158 -54.996  1.00  0.00     0.007 A 
HETATM   19  C   UNL     1     -38.132  41.046 -53.698  1.00  0.00     0.001 A 
HETATM   20  C   UNL     1     -37.417  41.540 -52.614  1.00  0.00     0.000 A 
HETATM   21  C   UNL     1     -36.199  42.172 -52.826  1.00  0.00     0.001 A 
HETATM   22  C   UNL     1     -35.686  42.283 -54.121  1.00  0.00     0.007 A 
ENDBRANCH  10  17
BRANCH   1  23
HETATM   23  C   UNL     1     -31.226  38.660 -54.263  1.00  0.00     0.277 C 
BRANCH  23  24
HETATM   24  C   UNL     1     -31.659  38.228 -52.914  1.00  0.00     0.011 A 
HETATM   25  C   UNL     1     -32.182  38.983 -51.872  1.00  0.00     0.035 A 
HETATM   26  C   UNL     1     -32.542  40.423 -51.778  1.00  0.00     0.070 C 
HETATM   27  N   UNL     1     -32.371  38.102 -50.830  1.00  0.00    -0.278 N 
HETATM   28  C   UNL     1     -32.904  38.358 -49.510  1.00  0.00     0.179 C 
HETATM   29  N   UNL     1     -31.984  36.851 -51.132  1.00  0.00    -0.185 NA
HETATM   30  C   UNL     1     -31.610  36.912 -52.403  1.00  0.00     0.149 A 
ENDBRANCH  23  24
ENDBRANCH   1  23
TORSDOF 4
ENDMDL
MODEL 5
REMARK VINA RESULT:      -7.0      2.815      7.454
REMARK  4 active torsions:
REMARK  status: ('A' for Active; 'I' for Inactive)
REMARK    1  A    between atoms: C_7  and  C_8 
REMARK    2  A    between atoms: C_8  and  N_9 
REMARK    3  A    between atoms: N_15  and  C_17 
REMARK    4  A    between atoms: C_21  and  C_22 
ROOT
HETATM    1  N   UNL     1     -41.121  55.583 -52.641  1.00  0.00    -0.067 N 
HETATM    2  H   UNL     1     -40.355  55.594 -51.951  1.00  0.00     0.280 HD
HETATM    3  C   UNL     1     -40.908  56.792 -53.503  1.00  0.00     0.236 C 
HETATM    4  C   UNL     1     -42.078  56.987 -54.466  1.00  0.00     0.039 C 
HETATM    5  C   UNL     1     -43.476  57.047 -53.789  1.00  0.00    -0.013 C 
HETATM    6  C   UNL     1     -43.702  58.382 -53.032  1.00  0.00     0.245 C 
HETATM    7  N   UNL     1     -43.863  59.539 -53.989  1.00  0.00    -0.065 N 
HETATM    8  H   UNL     1     -43.025  59.624 -54.580  1.00  0.00     0.280 HD
HETATM    9  C   UNL     1     -45.048  59.352 -54.934  1.00  0.00     0.244 C 
HETATM   10  C   UNL     1     -44.853  58.086 -55.788  1.00  0.00     0.045 C 
HETATM   11  C   UNL     1     -44.621  56.883 -54.837  1.00  0.00     0.022 C 
HETATM   12  C   UNL     1     -43.590  55.844 -52.799  1.00  0.00     0.039 C 
HETATM   13  C   UNL     1     -42.399  55.652 -51.861  1.00  0.00     0.236 C 
ENDROOT
BRANCH   7  14
HETATM   14  C   UNL     1     -43.995  60.840 -53.250  1.00  0.00     0.188 A 
HETATM   15  C   UNL     1     -42.953  61.886 -53.528  1.00  0.00     0.035 A 
HETATM   16  C   UNL     1     -44.348  62.053 -54.060  1.00  0.00     0.035 A 
ENDBRANCH   7  14
BRANCH  10  17
HETATM   17  C   UNL     1     -43.832  58.170 -56.921  1.00  0.00    -0.052 A 
HETATM   18  C   UNL     1     -43.103  59.330 -57.232  1.00  0.00     0.007 A 
HETATM   19  C   UNL     1     -42.177  59.341 -58.281  1.00  0.00     0.001 A 
HETATM   20  C   UNL     1     -41.979  58.206 -59.057  1.00  0.00     0.000 A 
HETATM   21  C   UNL     1     -42.726  57.062 -58.803  1.00  0.00     0.001 A 
HETATM   22  C   UNL     1     -43.650  57.050 -57.756  1.00  0.00     0.007 A 
ENDBRANCH  10  17
BRANCH   1  23
HETATM   23  C   UNL     1     -40.897  54.242 -53.340  1.00  0.00     0.277 C 
BRANCH  23  24
HETATM   24  C   UNL     1     -40.491  53.183 -52.388  1.00  0.00     0.011 A 
HETATM   25  C   UNL     1     -40.029  51.898 -52.643  1.00  0.00     0.035 A 
HETATM   26  C   UNL     1     -39.727  51.189 -53.915  1.00  0.00     0.070 C 
HETATM   27  N   UNL     1     -39.839  51.317 -51.408  1.00  0.00    -0.278 N 
HETATM   28  C   UNL     1     -39.358  49.990 -51.094  1.00  0.00     0.179 C 
HETATM   29  N   UNL     1     -40.168  52.135 -50.395  1.00  0.00    -0.185 NA
HETATM   30  C   UNL     1     -40.505  53.277 -50.979  1.00  0.00     0.149 A 
ENDBRANCH  23  24
ENDBRANCH   1  23
TORSDOF 4
ENDMDL
MODEL 6
REMARK VINA RESULT:      -6.9      2.880      7.832
REMARK  4 active torsions:
REMARK  status: ('A' for Active; 'I' for Inactive)
REMARK    1  A    between atoms: C_7  and  C_8 
REMARK    2  A    between atoms: C_8  and  N_9 
REMARK    3  A    between atoms: N_15  and  C_17 
REMARK    4  A    between atoms: C_21  and  C_22 
ROOT
HETATM    1  N   UNL     1     -42.680  57.949 -53.286  1.00  0.00    -0.067 N 
HETATM    2  H   UNL     1     -41.959  57.979 -52.550  1.00  0.00     0.280 HD
HETATM    3  C   UNL     1     -41.932  57.968 -54.586  1.00  0.00     0.236 C 
HETATM    4  C   UNL     1     -42.894  58.097 -55.766  1.00  0.00     0.039 C 
HETATM    5  C   UNL     1     -43.866  59.308 -55.683  1.00  0.00    -0.013 C 
HETATM    6  C   UNL     1     -43.146  60.655 -55.951  1.00  0.00     0.245 C 
HETATM    7  N   UNL     1     -42.739  60.787 -57.400  1.00  0.00    -0.065 N 
HETATM    8  H   UNL     1     -42.114  60.012 -57.661  1.00  0.00     0.280 HD
HETATM    9  C   UNL     1     -43.935  60.721 -58.347  1.00  0.00     0.244 C 
HETATM   10  C   UNL     1     -44.655  59.368 -58.203  1.00  0.00     0.045 C 
HETATM   11  C   UNL     1     -45.033  59.169 -56.711  1.00  0.00     0.022 C 
HETATM   12  C   UNL     1     -44.512  59.319 -54.262  1.00  0.00     0.039 C 
HETATM   13  C   UNL     1     -43.535  59.164 -53.097  1.00  0.00     0.236 C 
ENDROOT
BRANCH   7  14
HETATM   14  C   UNL     1     -41.966  62.053 -57.634  1.00  0.00     0.188 A 
HETATM   15  C   UNL     1     -40.686  61.932 -58.410  1.00  0.00     0.035 A 
HETATM   16  C   UNL     1     -41.894  62.558 -59.046  1.00  0.00     0.035 A 
ENDBRANCH   7  14
BRANCH  10  17
HETATM   17  C   UNL     1     -43.969  58.153 -58.823  1.00  0.00    -0.052 A 
HETATM   18  C   UNL     1     -42.715  58.202 -59.456  1.00  0.00     0.007 A 
HETATM   19  C   UNL     1     -42.136  57.050 -60.000  1.00  0.00     0.001 A 
HETATM   20  C   UNL     1     -42.806  55.833 -59.949  1.00  0.00     0.000 A 
HETATM   21  C   UNL     1     -44.070  55.770 -59.376  1.00  0.00     0.001 A 
HETATM   22  C   UNL     1     -44.648  56.919 -58.831  1.00  0.00     0.007 A 
ENDBRANCH  10  17
BRANCH   1  23
HETATM   23  C   UNL     1     -43.397  56.636 -52.972  1.00  0.00     0.277 C 
BRANCH  23  24
HETATM   24  C   UNL     1     -42.481  55.475 -53.047  1.00  0.00     0.011 A 
HETATM   25  C   UNL     1     -42.400  54.476 -54.010  1.00  0.00     0.035 A 
HETATM   26  C   UNL     1     -43.131  54.273 -55.289  1.00  0.00     0.070 C 
HETATM   27  N   UNL     1     -41.411  53.619 -53.578  1.00  0.00    -0.278 N 
HETATM   28  C   UNL     1     -40.910  52.418 -54.210  1.00  0.00     0.179 C 
HETATM   29  N   UNL     1     -40.878  53.994 -52.403  1.00  0.00    -0.185 NA
HETATM   30  C   UNL     1     -41.479  55.140 -52.110  1.00  0.00     0.149 A 
ENDBRANCH  23  24
ENDBRANCH   1  23
TORSDOF 4
ENDMDL
MODEL 7
REMARK VINA RESULT:      -6.8      2.474      4.743
REMARK  4 active torsions:
REMARK  status: ('A' for Active; 'I' for Inactive)
REMARK    1  A    between atoms: C_7  and  C_8 
REMARK    2  A    between atoms: C_8  and  N_9 
REMARK    3  A    between atoms: N_15  and  C_17 
REMARK    4  A    between atoms: C_21  and  C_22 
ROOT
HETATM    1  N   UNL     1     -43.688  59.319 -57.381  1.00  0.00    -0.067 N 
HETATM    2  H   UNL     1     -44.463  59.554 -58.019  1.00  0.00     0.280 HD
HETATM    3  C   UNL     1     -44.305  58.525 -56.268  1.00  0.00     0.236 C 
HETATM    4  C   UNL     1     -43.287  58.256 -55.161  1.00  0.00     0.039 C 
HETATM    5  C   UNL     1     -42.589  59.526 -54.597  1.00  0.00    -0.013 C 
HETATM    6  C   UNL     1     -43.538  60.367 -53.703  1.00  0.00     0.245 C 
HETATM    7  N   UNL     1     -43.831  59.668 -52.397  1.00  0.00    -0.065 N 
HETATM    8  H   UNL     1     -44.263  58.751 -52.579  1.00  0.00     0.280 HD
HETATM    9  C   UNL     1     -42.567  59.402 -51.583  1.00  0.00     0.244 C 
HETATM   10  C   UNL     1     -41.606  58.495 -52.373  1.00  0.00     0.045 C 
HETATM   11  C   UNL     1     -41.331  59.153 -53.751  1.00  0.00     0.022 C 
HETATM   12  C   UNL     1     -42.089  60.384 -55.802  1.00  0.00     0.039 C 
HETATM   13  C   UNL     1     -43.115  60.620 -56.909  1.00  0.00     0.236 C 
ENDROOT
BRANCH   7  14
HETATM   14  C   UNL     1     -44.819  60.446 -51.575  1.00  0.00     0.188 A 
HETATM   15  C   UNL     1     -46.211  59.889 -51.482  1.00  0.00     0.035 A 
HETATM   16  C   UNL     1     -45.291  59.814 -50.297  1.00  0.00     0.035 A 
ENDBRANCH   7  14
BRANCH  10  17
HETATM   17  C   UNL     1     -41.977  57.017 -52.469  1.00  0.00    -0.052 A 
HETATM   18  C   UNL     1     -43.010  56.420 -51.726  1.00  0.00     0.007 A 
HETATM   19  C   UNL     1     -43.304  55.060 -51.863  1.00  0.00     0.001 A 
HETATM   20  C   UNL     1     -42.558  54.260 -52.722  1.00  0.00     0.000 A 
HETATM   21  C   UNL     1     -41.498  54.815 -53.427  1.00  0.00     0.001 A 
HETATM   22  C   UNL     1     -41.204  56.174 -53.292  1.00  0.00     0.007 A 
ENDBRANCH  10  17
BRANCH   1  23
HETATM   23  C   UNL     1     -42.754  58.529 -58.297  1.00  0.00     0.277 C 
BRANCH  23  24
HETATM   24  C   UNL     1     -43.448  57.395 -58.949  1.00  0.00     0.011 A 
HETATM   25  C   UNL     1     -43.507  56.060 -58.568  1.00  0.00     0.035 A 
HETATM   26  C   UNL     1     -42.972  55.347 -57.378  1.00  0.00     0.070 C 
HETATM   27  N   UNL     1     -44.242  55.424 -59.545  1.00  0.00    -0.278 N 
HETATM   28  C   UNL     1     -44.618  54.031 -59.635  1.00  0.00     0.179 C 
HETATM   29  N   UNL     1     -44.632  56.257 -60.524  1.00  0.00    -0.185 NA
HETATM   30  C   UNL     1     -44.205  57.453 -60.140  1.00  0.00     0.149 A 
ENDBRANCH  23  24
ENDBRANCH   1  23
TORSDOF 4
ENDMDL
MODEL 8
REMARK VINA RESULT:      -6.8      2.473      8.176
REMARK  4 active torsions:
REMARK  status: ('A' for Active; 'I' for Inactive)
REMARK    1  A    between atoms: C_7  and  C_8 
REMARK    2  A    between atoms: C_8  and  N_9 
REMARK    3  A    between atoms: N_15  and  C_17 
REMARK    4  A    between atoms: C_21  and  C_22 
ROOT
HETATM    1  N   UNL     1     -42.280  56.502 -54.102  1.00  0.00    -0.067 N 
HETATM    2  H   UNL     1     -41.367  56.389 -53.637  1.00  0.00     0.280 HD
HETATM    3  C   UNL     1     -41.969  56.746 -55.550  1.00  0.00     0.236 C 
HETATM    4  C   UNL     1     -43.236  57.100 -56.326  1.00  0.00     0.039 C 
HETATM    5  C   UNL     1     -44.048  58.289 -55.740  1.00  0.00    -0.013 C 
HETATM    6  C   UNL     1     -43.352  59.653 -55.991  1.00  0.00     0.245 C 
HETATM    7  N   UNL     1     -43.404  60.039 -57.451  1.00  0.00    -0.065 N 
HETATM    8  H   UNL     1     -42.945  59.315 -58.021  1.00  0.00     0.280 HD
HETATM    9  C   UNL     1     -44.835  60.163 -57.969  1.00  0.00     0.244 C 
HETATM   10  C   UNL     1     -45.568  58.816 -57.834  1.00  0.00     0.045 C 
HETATM   11  C   UNL     1     -45.481  58.356 -56.355  1.00  0.00     0.022 C 
HETATM   12  C   UNL     1     -44.222  58.052 -54.206  1.00  0.00     0.039 C 
HETATM   13  C   UNL     1     -42.947  57.675 -53.453  1.00  0.00     0.236 C 
ENDROOT
BRANCH   7  14
HETATM   14  C   UNL     1     -42.653  61.316 -57.700  1.00  0.00     0.188 A 
HETATM   15  C   UNL     1     -41.364  61.206 -58.465  1.00  0.00     0.035 A 
HETATM   16  C   UNL     1     -42.579  61.797 -59.121  1.00  0.00     0.035 A 
ENDBRANCH   7  14
BRANCH  10  17
HETATM   17  C   UNL     1     -45.193  57.724 -58.833  1.00  0.00    -0.052 A 
HETATM   18  C   UNL     1     -43.927  57.614 -59.432  1.00  0.00     0.007 A 
HETATM   19  C   UNL     1     -43.643  56.586 -60.337  1.00  0.00     0.001 A 
HETATM   20  C   UNL     1     -44.623  55.663 -60.685  1.00  0.00     0.000 A 
HETATM   21  C   UNL     1     -45.898  55.782 -60.147  1.00  0.00     0.001 A 
HETATM   22  C   UNL     1     -46.182  56.808 -59.242  1.00  0.00     0.007 A 
ENDBRANCH  10  17
BRANCH   1  23
HETATM   23  C   UNL     1     -42.955  55.164 -53.803  1.00  0.00     0.277 C 
BRANCH  23  24
HETATM   24  C   UNL     1     -42.097  54.285 -52.976  1.00  0.00     0.011 A 
HETATM   25  C   UNL     1     -41.020  53.493 -53.355  1.00  0.00     0.035 A 
HETATM   26  C   UNL     1     -40.335  53.315 -54.664  1.00  0.00     0.070 C 
HETATM   27  N   UNL     1     -40.609  52.846 -52.210  1.00  0.00    -0.278 N 
HETATM   28  C   UNL     1     -39.519  51.912 -52.036  1.00  0.00     0.179 C 
HETATM   29  N   UNL     1     -41.363  53.156 -51.142  1.00  0.00    -0.185 NA
HETATM   30  C   UNL     1     -42.221  54.064 -51.587  1.00  0.00     0.149 A 
ENDBRANCH  23  24
ENDBRANCH   1  23
TORSDOF 4
ENDMDL
MODEL 9
REMARK VINA RESULT:      -6.8      2.282      3.475
REMARK  4 active torsions:
REMARK  status: ('A' for Active; 'I' for Inactive)
REMARK    1  A    between atoms: C_7  and  C_8 
REMARK    2  A    between atoms: C_8  and  N_9 
REMARK    3  A    between atoms: N_15  and  C_17 
REMARK    4  A    between atoms: C_21  and  C_22 
ROOT
HETATM    1  N   UNL     1     -42.316  55.397 -56.377  1.00  0.00    -0.067 N 
HETATM    2  H   UNL     1     -41.528  54.975 -56.889  1.00  0.00     0.280 HD
HETATM    3  C   UNL     1     -41.865  56.779 -56.006  1.00  0.00     0.236 C 
HETATM    4  C   UNL     1     -42.883  57.457 -55.091  1.00  0.00     0.039 C 
HETATM    5  C   UNL     1     -43.250  56.648 -53.815  1.00  0.00    -0.013 C 
HETATM    6  C   UNL     1     -42.105  56.655 -52.768  1.00  0.00     0.245 C 
HETATM    7  N   UNL     1     -41.941  58.017 -52.136  1.00  0.00    -0.065 N 
HETATM    8  H   UNL     1     -41.739  58.718 -52.862  1.00  0.00     0.280 HD
HETATM    9  C   UNL     1     -43.206  58.481 -51.419  1.00  0.00     0.244 C 
HETATM   10  C   UNL     1     -44.375  58.585 -52.416  1.00  0.00     0.045 C 
HETATM   11  C   UNL     1     -44.533  57.218 -53.132  1.00  0.00     0.022 C 
HETATM   12  C   UNL     1     -43.576  55.183 -54.243  1.00  0.00     0.039 C 
HETATM   13  C   UNL     1     -42.558  54.531 -55.178  1.00  0.00     0.236 C 
ENDROOT
BRANCH   7  14
HETATM   14  C   UNL     1     -40.775  58.039 -51.190  1.00  0.00     0.188 A 
HETATM   15  C   UNL     1     -39.751  59.118 -51.400  1.00  0.00     0.035 A 
HETATM   16  C   UNL     1     -40.694  59.193 -50.233  1.00  0.00     0.035 A 
ENDBRANCH   7  14
BRANCH  10  17
HETATM   17  C   UNL     1     -44.360  59.775 -53.374  1.00  0.00    -0.052 A 
HETATM   18  C   UNL     1     -43.418  60.816 -53.312  1.00  0.00     0.007 A 
HETATM   19  C   UNL     1     -43.454  61.877 -54.224  1.00  0.00     0.001 A 
HETATM   20  C   UNL     1     -44.445  61.935 -55.197  1.00  0.00     0.000 A 
HETATM   21  C   UNL     1     -45.418  60.946 -55.245  1.00  0.00     0.001 A 
HETATM   22  C   UNL     1     -45.382  59.885 -54.336  1.00  0.00     0.007 A 
ENDBRANCH  10  17
BRANCH   1  23
HETATM   23  C   UNL     1     -43.436  55.339 -57.415  1.00  0.00     0.277 C 
BRANCH  23  24
HETATM   24  C   UNL     1     -43.205  56.286 -58.530  1.00  0.00     0.011 A 
HETATM   25  C   UNL     1     -43.805  57.514 -58.783  1.00  0.00     0.035 A 
HETATM   26  C   UNL     1     -44.800  58.306 -58.012  1.00  0.00     0.070 C 
HETATM   27  N   UNL     1     -43.262  57.958 -59.969  1.00  0.00    -0.278 N 
HETATM   28  C   UNL     1     -43.525  59.188 -60.683  1.00  0.00     0.179 C 
HETATM   29  N   UNL     1     -42.380  57.091 -60.492  1.00  0.00    -0.185 NA
HETATM   30  C   UNL     1     -42.301  56.111 -59.600  1.00  0.00     0.149 A 
ENDBRANCH  23  24
ENDBRANCH   1  23
TORSDOF 4
ENDMDL
MODEL 10
REMARK VINA RESULT:      -6.6      2.711      8.105
REMARK  4 active torsions:
REMARK  status: ('A' for Active; 'I' for Inactive)
REMARK    1  A    between atoms: C_7  and  C_8 
REMARK    2  A    between atoms: C_8  and  N_9 
REMARK    3  A    between atoms: N_15  and  C_17 
REMARK    4  A    between atoms: C_21  and  C_22 
ROOT
HETATM    1  N   UNL     1     -42.915  56.294 -55.108  1.00  0.00    -0.067 N 
HETATM    2  H   UNL     1     -43.393  55.913 -54.279  1.00  0.00     0.280 HD
HETATM    3  C   UNL     1     -43.627  57.575 -55.433  1.00  0.00     0.236 C 
HETATM    4  C   UNL     1     -43.122  58.159 -56.751  1.00  0.00     0.039 C 
HETATM    5  C   UNL     1     -43.184  57.185 -57.961  1.00  0.00    -0.013 C 
HETATM    6  C   UNL     1     -44.635  56.964 -58.461  1.00  0.00     0.245 C 
HETATM    7  N   UNL     1     -45.182  58.201 -59.135  1.00  0.00    -0.065 N 
HETATM    8  H   UNL     1     -45.167  58.993 -58.478  1.00  0.00     0.280 HD
HETATM    9  C   UNL     1     -44.350  58.619 -60.344  1.00  0.00     0.244 C 
HETATM   10  C   UNL     1     -42.907  58.943 -59.912  1.00  0.00     0.045 C 
HETATM   11  C   UNL     1     -42.334  57.714 -59.159  1.00  0.00     0.022 C 
HETATM   12  C   UNL     1     -42.555  55.824 -57.524  1.00  0.00     0.039 C 
HETATM   13  C   UNL     1     -43.056  55.269 -56.191  1.00  0.00     0.236 C 
ENDROOT
BRANCH   7  14
HETATM   14  C   UNL     1     -46.616  58.009 -59.538  1.00  0.00     0.188 A 
HETATM   15  C   UNL     1     -47.588  59.073 -59.112  1.00  0.00     0.035 A 
HETATM   16  C   UNL     1     -47.174  58.966 -60.551  1.00  0.00     0.035 A 
ENDBRANCH   7  14
BRANCH  10  17
HETATM   17  C   UNL     1     -42.689  60.263 -59.178  1.00  0.00    -0.052 A 
HETATM   18  C   UNL     1     -43.706  61.202 -58.937  1.00  0.00     0.007 A 
HETATM   19  C   UNL     1     -43.442  62.393 -58.252  1.00  0.00     0.001 A 
HETATM   20  C   UNL     1     -42.155  62.684 -57.817  1.00  0.00     0.000 A 
HETATM   21  C   UNL     1     -41.122  61.797 -58.089  1.00  0.00     0.001 A 
HETATM   22  C   UNL     1     -41.384  60.607 -58.772  1.00  0.00     0.007 A 
ENDBRANCH  10  17
BRANCH   1  23
HETATM   23  C   UNL     1     -41.483  56.462 -54.599  1.00  0.00     0.277 C 
BRANCH  23  24
HETATM   24  C   UNL     1     -41.171  55.513 -53.506  1.00  0.00     0.011 A 
HETATM   25  C   UNL     1     -40.650  54.227 -53.576  1.00  0.00     0.035 A 
HETATM   26  C   UNL     1     -40.175  53.413 -54.727  1.00  0.00     0.070 C 
HETATM   27  N   UNL     1     -40.600  53.772 -52.276  1.00  0.00    -0.278 N 
HETATM   28  C   UNL     1     -40.128  52.500 -51.777  1.00  0.00     0.179 C 
HETATM   29  N   UNL     1     -41.072  54.670 -51.395  1.00  0.00    -0.185 NA
HETATM   30  C   UNL     1     -41.362  55.739 -52.125  1.00  0.00     0.149 A 
ENDBRANCH  23  24
ENDBRANCH   1  23
TORSDOF 4
ENDMDL
