MODEL 1
REMARK VINA RESULT:      -7.9      0.000      0.000
REMARK  4 active torsions:
REMARK  status: ('A' for Active; 'I' for Inactive)
REMARK    1  A    between atoms: C_3  and  N_4 
REMARK       I    between atoms: N_4  and  C_5 
REMARK    2  A    between atoms: C_5  and  C_6 
REMARK    3  A    between atoms: C_14  and  C_15 
REMARK       I    between atoms: C_15  and  N_16 
REMARK    4  A    between atoms: N_16  and  C_17 
ROOT
HETATM    1  C   UNL     1     -42.102  58.429 -55.071  1.00  0.00     0.003 A 
HETATM    2  C   UNL     1     -42.867  58.287 -56.234  1.00  0.00     0.029 A 
HETATM    3  C   UNL     1     -43.417  57.050 -56.576  1.00  0.00     0.036 A 
HETATM    4  C   UNL     1     -43.195  55.952 -55.738  1.00  0.00     0.046 A 
HETATM    5  C   UNL     1     -42.413  56.087 -54.583  1.00  0.00     0.034 A 
HETATM    6  C   UNL     1     -41.873  57.332 -54.242  1.00  0.00     0.017 A 
ENDROOT
BRANCH   5   7
HETATM    7  C   UNL     1     -42.196  54.891 -53.728  1.00  0.00     0.257 C 
HETATM    8  N   UNL     1     -41.030  54.210 -53.982  1.00  0.00    -0.307 N 
HETATM    9  H   UNL     1     -40.465  54.465 -54.780  1.00  0.00     0.170 HD
HETATM   10  O   UNL     1     -43.059  54.587 -52.913  1.00  0.00    -0.267 OA
BRANCH   8  11
HETATM   11  C   UNL     1     -40.534  53.081 -53.332  1.00  0.00     0.130 A 
HETATM   12  N   UNL     1     -40.406  53.246 -51.997  1.00  0.00    -0.242 NA
HETATM   13  C   UNL     1     -39.929  52.196 -51.283  1.00  0.00     0.142 A 
HETATM   14  C   UNL     1     -39.584  50.976 -51.840  1.00  0.00     0.051 A 
HETATM   15 CL   UNL     1     -38.993  49.694 -50.868  1.00  0.00    -0.083 Cl
HETATM   16  C   UNL     1     -39.733  50.820 -53.210  1.00  0.00     0.029 A 
HETATM   17  C   UNL     1     -40.215  51.889 -53.970  1.00  0.00     0.052 A 
ENDBRANCH   8  11
ENDBRANCH   5   7
BRANCH   3  18
HETATM   18  N   UNL     1     -44.184  56.829 -57.732  1.00  0.00    -0.322 N 
HETATM   19  C   UNL     1     -43.800  56.245 -58.924  1.00  0.00     0.276 C 
HETATM   20  O   UNL     1     -42.684  55.828 -59.212  1.00  0.00    -0.266 OA
HETATM   21  H   UNL     1     -45.162  57.112 -57.724  1.00  0.00     0.169 HD
BRANCH  19  22
HETATM   22  C   UNL     1     -44.925  56.161 -59.874  1.00  0.00     0.146 A 
HETATM   23  N   UNL     1     -44.782  55.613 -61.102  1.00  0.00    -0.170 NA
HETATM   24  N   UNL     1     -46.002  55.734 -61.657  1.00  0.00    -0.289 N 
HETATM   25  H   UNL     1     -46.139  55.388 -62.601  1.00  0.00     0.188 HD
HETATM   26  C   UNL     1     -46.918  56.327 -60.841  1.00  0.00     0.112 A 
HETATM   27  C   UNL     1     -46.253  56.617 -59.674  1.00  0.00     0.058 A 
ENDBRANCH  19  22
ENDBRANCH   3  18
TORSDOF 4
ENDMDL
MODEL 2
REMARK VINA RESULT:      -7.5      4.966      7.359
REMARK  4 active torsions:
REMARK  status: ('A' for Active; 'I' for Inactive)
REMARK    1  A    between atoms: C_3  and  N_4 
REMARK       I    between atoms: N_4  and  C_5 
REMARK    2  A    between atoms: C_5  and  C_6 
REMARK    3  A    between atoms: C_14  and  C_15 
REMARK       I    between atoms: C_15  and  N_16 
REMARK    4  A    between atoms: N_16  and  C_17 
ROOT
HETATM    1  C   UNL     1     -41.388  59.354 -53.461  1.00  0.00     0.003 A 
HETATM    2  C   UNL     1     -42.069  60.041 -52.451  1.00  0.00     0.029 A 
HETATM    3  C   UNL     1     -42.699  59.344 -51.418  1.00  0.00     0.036 A 
HETATM    4  C   UNL     1     -42.639  57.946 -51.405  1.00  0.00     0.046 A 
HETATM    5  C   UNL     1     -41.973  57.255 -52.427  1.00  0.00     0.034 A 
HETATM    6  C   UNL     1     -41.337  57.961 -53.453  1.00  0.00     0.017 A 
ENDROOT
BRANCH   5   7
HETATM    7  C   UNL     1     -41.943  55.769 -52.377  1.00  0.00     0.257 C 
HETATM    8  N   UNL     1     -40.904  55.195 -53.068  1.00  0.00    -0.307 N 
HETATM    9  H   UNL     1     -40.313  55.771 -53.652  1.00  0.00     0.170 HD
HETATM   10  O   UNL     1     -42.835  55.183 -51.776  1.00  0.00    -0.267 OA
BRANCH   8  11
HETATM   11  C   UNL     1     -40.589  53.842 -53.180  1.00  0.00     0.130 A 
HETATM   12  N   UNL     1     -40.098  53.312 -52.039  1.00  0.00    -0.242 NA
HETATM   13  C   UNL     1     -39.763  51.997 -52.057  1.00  0.00     0.142 A 
HETATM   14  C   UNL     1     -39.909  51.178 -53.164  1.00  0.00     0.051 A 
HETATM   15 CL   UNL     1     -39.468  49.523 -53.106  1.00  0.00    -0.083 Cl
HETATM   16  C   UNL     1     -40.427  51.737 -54.324  1.00  0.00     0.029 A 
HETATM   17  C   UNL     1     -40.772  53.090 -54.334  1.00  0.00     0.052 A 
ENDBRANCH   8  11
ENDBRANCH   5   7
BRANCH   3  18
HETATM   18  N   UNL     1     -43.412  59.964 -50.379  1.00  0.00    -0.322 N 
HETATM   19  C   UNL     1     -44.717  60.418 -50.377  1.00  0.00     0.276 C 
HETATM   20  O   UNL     1     -45.505  60.390 -51.315  1.00  0.00    -0.266 OA
HETATM   21  H   UNL     1     -42.941  60.103 -49.486  1.00  0.00     0.169 HD
BRANCH  19  22
HETATM   22  C   UNL     1     -45.099  60.969 -49.063  1.00  0.00     0.146 A 
HETATM   23  N   UNL     1     -45.957  60.323 -48.241  1.00  0.00    -0.170 NA
HETATM   24  N   UNL     1     -46.057  61.135 -47.173  1.00  0.00    -0.289 N 
HETATM   25  H   UNL     1     -46.663  60.855 -46.409  1.00  0.00     0.188 HD
HETATM   26  C   UNL     1     -45.302  62.265 -47.271  1.00  0.00     0.112 A 
HETATM   27  C   UNL     1     -44.665  62.190 -48.486  1.00  0.00     0.058 A 
ENDBRANCH  19  22
ENDBRANCH   3  18
TORSDOF 4
ENDMDL
MODEL 3
REMARK VINA RESULT:      -7.3      5.251      6.591
REMARK  4 active torsions:
REMARK  status: ('A' for Active; 'I' for Inactive)
REMARK    1  A    between atoms: C_3  and  N_4 
REMARK       I    between atoms: N_4  and  C_5 
REMARK    2  A    between atoms: C_5  and  C_6 
REMARK    3  A    between atoms: C_14  and  C_15 
REMARK       I    between atoms: C_15  and  N_16 
REMARK    4  A    between atoms: N_16  and  C_17 
ROOT
HETATM    1  C   UNL     1     -40.846  58.992 -50.216  1.00  0.00     0.003 A 
HETATM    2  C   UNL     1     -41.949  59.837 -50.380  1.00  0.00     0.029 A 
HETATM    3  C   UNL     1     -43.086  59.398 -51.060  1.00  0.00     0.036 A 
HETATM    4  C   UNL     1     -43.111  58.097 -51.576  1.00  0.00     0.046 A 
HETATM    5  C   UNL     1     -42.000  57.255 -51.430  1.00  0.00     0.034 A 
HETATM    6  C   UNL     1     -40.867  57.700 -50.740  1.00  0.00     0.017 A 
ENDROOT
BRANCH   5   7
HETATM    7  C   UNL     1     -42.067  55.884 -52.002  1.00  0.00     0.257 C 
HETATM    8  N   UNL     1     -40.848  55.337 -52.320  1.00  0.00    -0.307 N 
HETATM    9  H   UNL     1     -40.015  55.907 -52.270  1.00  0.00     0.170 HD
HETATM   10  O   UNL     1     -43.167  55.375 -52.180  1.00  0.00    -0.267 OA
BRANCH   8  11
HETATM   11  C   UNL     1     -40.582  54.070 -52.835  1.00  0.00     0.130 A 
HETATM   12  N   UNL     1     -40.127  53.200 -51.907  1.00  0.00    -0.242 NA
HETATM   13  C   UNL     1     -39.841  51.940 -52.321  1.00  0.00     0.142 A 
HETATM   14  C   UNL     1     -40.003  51.500 -53.624  1.00  0.00     0.051 A 
HETATM   15 CL   UNL     1     -39.625  49.888 -54.068  1.00  0.00    -0.083 Cl
HETATM   16  C   UNL     1     -40.483  52.403 -54.561  1.00  0.00     0.029 A 
HETATM   17  C   UNL     1     -40.777  53.709 -54.163  1.00  0.00     0.052 A 
ENDBRANCH   8  11
ENDBRANCH   5   7
BRANCH   3  18
HETATM   18  N   UNL     1     -44.224  60.193 -51.275  1.00  0.00    -0.322 N 
HETATM   19  C   UNL     1     -45.467  60.101 -50.678  1.00  0.00     0.276 C 
HETATM   20  O   UNL     1     -45.826  59.269 -49.853  1.00  0.00    -0.266 OA
HETATM   21  H   UNL     1     -44.159  60.958 -51.943  1.00  0.00     0.169 HD
BRANCH  19  22
HETATM   22  C   UNL     1     -46.377  61.161 -51.152  1.00  0.00     0.146 A 
HETATM   23  N   UNL     1     -46.661  62.247 -50.398  1.00  0.00    -0.170 NA
HETATM   24  N   UNL     1     -47.517  62.956 -51.156  1.00  0.00    -0.289 N 
HETATM   25  H   UNL     1     -47.878  63.829 -50.788  1.00  0.00     0.188 HD
HETATM   26  C   UNL     1     -47.789  62.377 -52.360  1.00  0.00     0.112 A 
HETATM   27  C   UNL     1     -47.065  61.211 -52.391  1.00  0.00     0.058 A 
ENDBRANCH  19  22
ENDBRANCH   3  18
TORSDOF 4
ENDMDL
MODEL 4
REMARK VINA RESULT:      -7.3      3.551      8.434
REMARK  4 active torsions:
REMARK  status: ('A' for Active; 'I' for Inactive)
REMARK    1  A    between atoms: C_3  and  N_4 
REMARK       I    between atoms: N_4  and  C_5 
REMARK    2  A    between atoms: C_5  and  C_6 
REMARK    3  A    between atoms: C_14  and  C_15 
REMARK       I    between atoms: C_15  and  N_16 
REMARK    4  A    between atoms: N_16  and  C_17 
ROOT
HETATM    1  C   UNL     1     -41.590  58.580 -54.101  1.00  0.00     0.003 A 
HETATM    2  C   UNL     1     -41.111  57.345 -53.652  1.00  0.00     0.029 A 
HETATM    3  C   UNL     1     -41.254  56.198 -54.436  1.00  0.00     0.036 A 
HETATM    4  C   UNL     1     -41.884  56.301 -55.681  1.00  0.00     0.046 A 
HETATM    5  C   UNL     1     -42.383  57.533 -56.125  1.00  0.00     0.034 A 
HETATM    6  C   UNL     1     -42.226  58.679 -55.338  1.00  0.00     0.017 A 
ENDROOT
BRANCH   5   7
HETATM    7  C   UNL     1     -43.053  57.593 -57.451  1.00  0.00     0.257 C 
HETATM    8  N   UNL     1     -44.160  56.788 -57.569  1.00  0.00    -0.307 N 
HETATM    9  H   UNL     1     -44.383  56.133 -56.833  1.00  0.00     0.170 HD
HETATM   10  O   UNL     1     -42.565  58.300 -58.325  1.00  0.00    -0.267 OA
BRANCH   8  11
HETATM   11  C   UNL     1     -45.011  56.652 -58.664  1.00  0.00     0.130 A 
HETATM   12  N   UNL     1     -46.067  57.495 -58.628  1.00  0.00    -0.242 NA
HETATM   13  C   UNL     1     -46.950  57.431 -59.656  1.00  0.00     0.142 A 
HETATM   14  C   UNL     1     -46.820  56.569 -60.733  1.00  0.00     0.051 A 
HETATM   15 CL   UNL     1     -47.977  56.553 -61.998  1.00  0.00    -0.083 Cl
HETATM   16  C   UNL     1     -45.724  55.720 -60.759  1.00  0.00     0.029 A 
HETATM   17  C   UNL     1     -44.804  55.759 -59.709  1.00  0.00     0.052 A 
ENDBRANCH   8  11
ENDBRANCH   5   7
BRANCH   3  18
HETATM   18  N   UNL     1     -40.811  54.924 -54.045  1.00  0.00    -0.322 N 
HETATM   19  C   UNL     1     -41.500  53.941 -53.362  1.00  0.00     0.276 C 
HETATM   20  O   UNL     1     -42.646  54.012 -52.932  1.00  0.00    -0.266 OA
HETATM   21  H   UNL     1     -39.863  54.646 -54.293  1.00  0.00     0.169 HD
BRANCH  19  22
HETATM   22  C   UNL     1     -40.684  52.725 -53.189  1.00  0.00     0.146 A 
HETATM   23  N   UNL     1     -40.057  52.446 -52.024  1.00  0.00    -0.170 NA
HETATM   24  N   UNL     1     -39.421  51.285 -52.266  1.00  0.00    -0.289 N 
HETATM   25  H   UNL     1     -38.868  50.874 -51.522  1.00  0.00     0.188 HD
HETATM   26  C   UNL     1     -39.615  50.808 -53.527  1.00  0.00     0.112 A 
HETATM   27  C   UNL     1     -40.431  51.717 -54.155  1.00  0.00     0.058 A 
ENDBRANCH  19  22
ENDBRANCH   3  18
TORSDOF 4
ENDMDL
MODEL 5
REMARK VINA RESULT:      -7.1      4.184      5.875
REMARK  4 active torsions:
REMARK  status: ('A' for Active; 'I' for Inactive)
REMARK    1  A    between atoms: C_3  and  N_4 
REMARK       I    between atoms: N_4  and  C_5 
REMARK    2  A    between atoms: C_5  and  C_6 
REMARK    3  A    between atoms: C_14  and  C_15 
REMARK       I    between atoms: C_15  and  N_16 
REMARK    4  A    between atoms: N_16  and  C_17 
ROOT
HETATM    1  C   UNL     1     -41.621  53.161 -53.850  1.00  0.00     0.003 A 
HETATM    2  C   UNL     1     -42.061  53.430 -55.150  1.00  0.00     0.029 A 
HETATM    3  C   UNL     1     -42.832  54.562 -55.420  1.00  0.00     0.036 A 
HETATM    4  C   UNL     1     -43.159  55.428 -54.371  1.00  0.00     0.046 A 
HETATM    5  C   UNL     1     -42.737  55.150 -53.064  1.00  0.00     0.034 A 
HETATM    6  C   UNL     1     -41.956  54.019 -52.803  1.00  0.00     0.017 A 
ENDROOT
BRANCH   5   7
HETATM    7  C   UNL     1     -43.116  56.094 -51.979  1.00  0.00     0.257 C 
HETATM    8  N   UNL     1     -43.585  57.309 -52.415  1.00  0.00    -0.307 N 
HETATM    9  H   UNL     1     -43.535  57.541 -53.398  1.00  0.00     0.170 HD
HETATM   10  O   UNL     1     -42.952  55.747 -50.815  1.00  0.00    -0.267 OA
BRANCH   8  11
HETATM   11  C   UNL     1     -44.046  58.378 -51.650  1.00  0.00     0.130 A 
HETATM   12  N   UNL     1     -43.083  59.282 -51.361  1.00  0.00    -0.242 NA
HETATM   13  C   UNL     1     -43.444  60.359 -50.619  1.00  0.00     0.142 A 
HETATM   14  C   UNL     1     -44.731  60.585 -50.159  1.00  0.00     0.051 A 
HETATM   15 CL   UNL     1     -45.108  61.975 -49.230  1.00  0.00    -0.083 Cl
HETATM   16  C   UNL     1     -45.708  59.653 -50.476  1.00  0.00     0.029 A 
HETATM   17  C   UNL     1     -45.362  58.531 -51.232  1.00  0.00     0.052 A 
ENDBRANCH   8  11
ENDBRANCH   5   7
BRANCH   3  18
HETATM   18  N   UNL     1     -43.320  54.889 -56.696  1.00  0.00    -0.322 N 
HETATM   19  C   UNL     1     -43.034  55.995 -57.473  1.00  0.00     0.276 C 
HETATM   20  O   UNL     1     -42.306  56.935 -57.173  1.00  0.00    -0.266 OA
HETATM   21  H   UNL     1     -43.964  54.242 -57.148  1.00  0.00     0.169 HD
BRANCH  19  22
HETATM   22  C   UNL     1     -43.722  55.937 -58.776  1.00  0.00     0.146 A 
HETATM   23  N   UNL     1     -43.970  57.050 -59.502  1.00  0.00    -0.170 NA
HETATM   24  N   UNL     1     -44.611  56.592 -60.593  1.00  0.00    -0.289 N 
HETATM   25  H   UNL     1     -44.907  57.261 -61.296  1.00  0.00     0.188 HD
HETATM   26  C   UNL     1     -44.779  55.240 -60.601  1.00  0.00     0.112 A 
HETATM   27  C   UNL     1     -44.213  54.781 -59.436  1.00  0.00     0.058 A 
ENDBRANCH  19  22
ENDBRANCH   3  18
TORSDOF 4
ENDMDL
MODEL 6
REMARK VINA RESULT:      -7.1      4.062      8.436
REMARK  4 active torsions:
REMARK  status: ('A' for Active; 'I' for Inactive)
REMARK    1  A    between atoms: C_3  and  N_4 
REMARK       I    between atoms: N_4  and  C_5 
REMARK    2  A    between atoms: C_5  and  C_6 
REMARK    3  A    between atoms: C_14  and  C_15 
REMARK       I    between atoms: C_15  and  N_16 
REMARK    4  A    between atoms: N_16  and  C_17 
ROOT
HETATM    1  C   UNL     1     -43.438  56.057 -50.999  1.00  0.00     0.003 A 
HETATM    2  C   UNL     1     -42.718  54.858 -51.032  1.00  0.00     0.029 A 
HETATM    3  C   UNL     1     -42.249  54.343 -52.242  1.00  0.00     0.036 A 
HETATM    4  C   UNL     1     -42.508  55.044 -53.425  1.00  0.00     0.046 A 
HETATM    5  C   UNL     1     -43.247  56.235 -53.397  1.00  0.00     0.034 A 
HETATM    6  C   UNL     1     -43.705  56.749 -52.179  1.00  0.00     0.017 A 
ENDROOT
BRANCH   5   7
HETATM    7  C   UNL     1     -43.506  56.940 -54.680  1.00  0.00     0.257 C 
HETATM    8  N   UNL     1     -42.523  56.787 -55.626  1.00  0.00    -0.307 N 
HETATM    9  H   UNL     1     -41.656  56.330 -55.377  1.00  0.00     0.170 HD
HETATM   10  O   UNL     1     -44.523  57.616 -54.784  1.00  0.00    -0.267 OA
BRANCH   8  11
HETATM   11  C   UNL     1     -42.491  57.291 -56.925  1.00  0.00     0.130 A 
HETATM   12  N   UNL     1     -42.077  58.576 -56.989  1.00  0.00    -0.242 NA
HETATM   13  C   UNL     1     -42.016  59.150 -58.217  1.00  0.00     0.142 A 
HETATM   14  C   UNL     1     -42.337  58.493 -59.393  1.00  0.00     0.051 A 
HETATM   15 CL   UNL     1     -42.228  59.287 -60.909  1.00  0.00    -0.083 Cl
HETATM   16  C   UNL     1     -42.748  57.171 -59.309  1.00  0.00     0.029 A 
HETATM   17  C   UNL     1     -42.828  56.559 -58.057  1.00  0.00     0.052 A 
ENDBRANCH   8  11
ENDBRANCH   5   7
BRANCH   3  18
HETATM   18  N   UNL     1     -41.531  53.141 -52.354  1.00  0.00    -0.322 N 
HETATM   19  C   UNL     1     -40.315  52.805 -51.790  1.00  0.00     0.276 C 
HETATM   20  O   UNL     1     -39.605  53.522 -51.095  1.00  0.00    -0.266 OA
HETATM   21  H   UNL     1     -41.936  52.387 -52.906  1.00  0.00     0.169 HD
BRANCH  19  22
HETATM   22  C   UNL     1     -39.928  51.420 -52.119  1.00  0.00     0.146 A 
HETATM   23  N   UNL     1     -39.667  50.505 -51.158  1.00  0.00    -0.170 NA
HETATM   24  N   UNL     1     -39.344  49.395 -51.845  1.00  0.00    -0.289 N 
HETATM   25  H   UNL     1     -39.100  48.559 -51.324  1.00  0.00     0.188 HD
HETATM   26  C   UNL     1     -39.392  49.554 -53.197  1.00  0.00     0.112 A 
HETATM   27  C   UNL     1     -39.769  50.858 -53.411  1.00  0.00     0.058 A 
ENDBRANCH  19  22
ENDBRANCH   3  18
TORSDOF 4
ENDMDL
MODEL 7
REMARK VINA RESULT:      -6.9     15.185     18.057
REMARK  4 active torsions:
REMARK  status: ('A' for Active; 'I' for Inactive)
REMARK    1  A    between atoms: C_3  and  N_4 
REMARK       I    between atoms: N_4  and  C_5 
REMARK    2  A    between atoms: C_5  and  C_6 
REMARK    3  A    between atoms: C_14  and  C_15 
REMARK       I    between atoms: C_15  and  N_16 
REMARK    4  A    between atoms: N_16  and  C_17 
ROOT
HETATM    1  C   UNL     1     -34.298  39.477 -50.033  1.00  0.00     0.003 A 
HETATM    2  C   UNL     1     -35.438  39.134 -49.300  1.00  0.00     0.029 A 
HETATM    3  C   UNL     1     -36.706  39.526 -49.733  1.00  0.00     0.036 A 
HETATM    4  C   UNL     1     -36.823  40.267 -50.914  1.00  0.00     0.046 A 
HETATM    5  C   UNL     1     -35.680  40.629 -51.640  1.00  0.00     0.034 A 
HETATM    6  C   UNL     1     -34.414  40.224 -51.204  1.00  0.00     0.017 A 
ENDROOT
BRANCH   5   7
HETATM    7  C   UNL     1     -35.850  41.425 -52.884  1.00  0.00     0.257 C 
HETATM    8  N   UNL     1     -35.938  40.678 -54.033  1.00  0.00    -0.307 N 
HETATM    9  H   UNL     1     -35.766  39.683 -53.998  1.00  0.00     0.170 HD
HETATM   10  O   UNL     1     -35.861  42.648 -52.803  1.00  0.00    -0.267 OA
BRANCH   8  11
HETATM   11  C   UNL     1     -36.133  41.126 -55.338  1.00  0.00     0.130 A 
HETATM   12  N   UNL     1     -37.390  40.923 -55.791  1.00  0.00    -0.242 NA
HETATM   13  C   UNL     1     -37.669  41.330 -57.055  1.00  0.00     0.142 A 
HETATM   14  C   UNL     1     -36.752  41.947 -57.889  1.00  0.00     0.051 A 
HETATM   15 CL   UNL     1     -37.185  42.437 -59.473  1.00  0.00    -0.083 Cl
HETATM   16  C   UNL     1     -35.470  42.159 -57.403  1.00  0.00     0.029 A 
HETATM   17  C   UNL     1     -35.153  41.742 -56.108  1.00  0.00     0.052 A 
ENDBRANCH   8  11
ENDBRANCH   5   7
BRANCH   3  18
HETATM   18  N   UNL     1     -37.894  39.231 -49.043  1.00  0.00    -0.322 N 
HETATM   19  C   UNL     1     -38.721  38.132 -49.178  1.00  0.00     0.276 C 
HETATM   20  O   UNL     1     -38.584  37.203 -49.966  1.00  0.00    -0.266 OA
HETATM   21  H   UNL     1     -38.214  39.884 -48.330  1.00  0.00     0.169 HD
BRANCH  19  22
HETATM   22  C   UNL     1     -39.849  38.181 -48.229  1.00  0.00     0.146 A 
HETATM   23  N   UNL     1     -39.782  38.887 -47.078  1.00  0.00    -0.170 NA
HETATM   24  N   UNL     1     -40.976  38.673 -46.495  1.00  0.00    -0.289 N 
HETATM   25  H   UNL     1     -41.160  39.109 -45.598  1.00  0.00     0.188 HD
HETATM   26  C   UNL     1     -41.803  37.870 -47.221  1.00  0.00     0.112 A 
HETATM   27  C   UNL     1     -41.104  37.531 -48.354  1.00  0.00     0.058 A 
ENDBRANCH  19  22
ENDBRANCH   3  18
TORSDOF 4
ENDMDL
MODEL 8
REMARK VINA RESULT:      -6.8     15.161     16.864
REMARK  4 active torsions:
REMARK  status: ('A' for Active; 'I' for Inactive)
REMARK    1  A    between atoms: C_3  and  N_4 
REMARK       I    between atoms: N_4  and  C_5 
REMARK    2  A    between atoms: C_5  and  C_6 
REMARK    3  A    between atoms: C_14  and  C_15 
REMARK       I    between atoms: C_15  and  N_16 
REMARK    4  A    between atoms: N_16  and  C_17 
ROOT
HETATM    1  C   UNL     1     -37.103  42.464 -56.559  1.00  0.00     0.003 A 
HETATM    2  C   UNL     1     -37.108  41.860 -57.821  1.00  0.00     0.029 A 
HETATM    3  C   UNL     1     -36.379  40.693 -58.054  1.00  0.00     0.036 A 
HETATM    4  C   UNL     1     -35.642  40.131 -57.006  1.00  0.00     0.046 A 
HETATM    5  C   UNL     1     -35.619  40.744 -55.746  1.00  0.00     0.034 A 
HETATM    6  C   UNL     1     -36.360  41.909 -55.518  1.00  0.00     0.017 A 
ENDROOT
BRANCH   5   7
HETATM    7  C   UNL     1     -34.814  40.117 -54.664  1.00  0.00     0.257 C 
HETATM    8  N   UNL     1     -34.451  40.972 -53.652  1.00  0.00    -0.307 N 
HETATM    9  H   UNL     1     -34.630  41.963 -53.746  1.00  0.00     0.170 HD
HETATM   10  O   UNL     1     -34.511  38.935 -54.768  1.00  0.00    -0.267 OA
BRANCH   8  11
HETATM   11  C   UNL     1     -33.732  40.679 -52.495  1.00  0.00     0.130 A 
HETATM   12  N   UNL     1     -34.509  40.590 -51.392  1.00  0.00    -0.242 NA
HETATM   13  C   UNL     1     -33.891  40.308 -50.218  1.00  0.00     0.142 A 
HETATM   14  C   UNL     1     -32.529  40.095 -50.093  1.00  0.00     0.051 A 
HETATM   15 CL   UNL     1     -31.824  39.736 -48.572  1.00  0.00    -0.083 Cl
HETATM   16  C   UNL     1     -31.749  40.178 -51.237  1.00  0.00     0.029 A 
HETATM   17  C   UNL     1     -32.358  40.475 -52.458  1.00  0.00     0.052 A 
ENDBRANCH   8  11
ENDBRANCH   5   7
BRANCH   3  18
HETATM   18  N   UNL     1     -36.326  40.039 -59.296  1.00  0.00    -0.322 N 
HETATM   19  C   UNL     1     -37.347  39.419 -59.990  1.00  0.00     0.276 C 
HETATM   20  O   UNL     1     -38.511  39.295 -59.628  1.00  0.00    -0.266 OA
HETATM   21  H   UNL     1     -35.435  40.008 -59.788  1.00  0.00     0.169 HD
BRANCH  19  22
HETATM   22  C   UNL     1     -36.881  38.891 -61.286  1.00  0.00     0.146 A 
HETATM   23  N   UNL     1     -35.603  38.493 -61.477  1.00  0.00    -0.170 NA
HETATM   24  N   UNL     1     -35.572  38.099 -62.763  1.00  0.00    -0.289 N 
HETATM   25  H   UNL     1     -34.696  37.756 -63.141  1.00  0.00     0.188 HD
HETATM   26  C   UNL     1     -36.770  38.219 -63.400  1.00  0.00     0.112 A 
HETATM   27  C   UNL     1     -37.644  38.730 -62.471  1.00  0.00     0.058 A 
ENDBRANCH  19  22
ENDBRANCH   3  18
TORSDOF 4
ENDMDL
MODEL 9
REMARK VINA RESULT:      -6.7     15.359     16.525
REMARK  4 active torsions:
REMARK  status: ('A' for Active; 'I' for Inactive)
REMARK    1  A    between atoms: C_3  and  N_4 
REMARK       I    between atoms: N_4  and  C_5 
REMARK    2  A    between atoms: C_5  and  C_6 
REMARK    3  A    between atoms: C_14  and  C_15 
REMARK       I    between atoms: C_15  and  N_16 
REMARK    4  A    between atoms: N_16  and  C_17 
ROOT
HETATM    1  C   UNL     1     -36.571  42.287 -58.413  1.00  0.00     0.003 A 
HETATM    2  C   UNL     1     -37.482  41.500 -59.126  1.00  0.00     0.029 A 
HETATM    3  C   UNL     1     -38.011  40.338 -58.563  1.00  0.00     0.036 A 
HETATM    4  C   UNL     1     -37.619  39.968 -57.271  1.00  0.00     0.046 A 
HETATM    5  C   UNL     1     -36.692  40.743 -56.562  1.00  0.00     0.034 A 
HETATM    6  C   UNL     1     -36.173  41.912 -57.130  1.00  0.00     0.017 A 
ENDROOT
BRANCH   5   7
HETATM    7  C   UNL     1     -36.297  40.308 -55.197  1.00  0.00     0.257 C 
HETATM    8  N   UNL     1     -35.281  41.040 -54.634  1.00  0.00    -0.307 N 
HETATM    9  H   UNL     1     -34.788  41.724 -55.192  1.00  0.00     0.170 HD
HETATM   10  O   UNL     1     -36.860  39.337 -54.704  1.00  0.00    -0.267 OA
BRANCH   8  11
HETATM   11  C   UNL     1     -34.718  40.899 -53.367  1.00  0.00     0.130 A 
HETATM   12  N   UNL     1     -33.643  40.080 -53.347  1.00  0.00    -0.242 NA
HETATM   13  C   UNL     1     -33.031  39.884 -52.152  1.00  0.00     0.142 A 
HETATM   14  C   UNL     1     -33.435  40.483 -50.971  1.00  0.00     0.051 A 
HETATM   15 CL   UNL     1     -32.604  40.189 -49.501  1.00  0.00    -0.083 Cl
HETATM   16  C   UNL     1     -34.532  41.331 -51.012  1.00  0.00     0.029 A 
HETATM   17  C   UNL     1     -35.186  41.543 -52.227  1.00  0.00     0.052 A 
ENDBRANCH   8  11
ENDBRANCH   5   7
BRANCH   3  18
HETATM   18  N   UNL     1     -38.919  39.493 -59.223  1.00  0.00    -0.322 N 
HETATM   19  C   UNL     1     -38.658  38.485 -60.131  1.00  0.00     0.276 C 
HETATM   20  O   UNL     1     -37.560  38.153 -60.564  1.00  0.00    -0.266 OA
HETATM   21  H   UNL     1     -39.912  39.598 -59.020  1.00  0.00     0.169 HD
BRANCH  19  22
HETATM   22  C   UNL     1     -39.894  37.803 -60.556  1.00  0.00     0.146 A 
HETATM   23  N   UNL     1     -40.296  37.791 -61.847  1.00  0.00    -0.170 NA
HETATM   24  N   UNL     1     -41.447  37.096 -61.825  1.00  0.00    -0.289 N 
HETATM   25  H   UNL     1     -41.944  36.957 -62.698  1.00  0.00     0.188 HD
HETATM   26  C   UNL     1     -41.797  36.658 -60.583  1.00  0.00     0.112 A 
HETATM   27  C   UNL     1     -40.811  37.098 -59.734  1.00  0.00     0.058 A 
ENDBRANCH  19  22
ENDBRANCH   3  18
TORSDOF 4
ENDMDL
MODEL 10
REMARK VINA RESULT:      -6.7      1.854      1.962
REMARK  4 active torsions:
REMARK  status: ('A' for Active; 'I' for Inactive)
REMARK    1  A    between atoms: C_3  and  N_4 
REMARK       I    between atoms: N_4  and  C_5 
REMARK    2  A    between atoms: C_5  and  C_6 
REMARK    3  A    between atoms: C_14  and  C_15 
REMARK       I    between atoms: C_15  and  N_16 
REMARK    4  A    between atoms: N_16  and  C_17 
ROOT
HETATM    1  C   UNL     1     -44.668  59.019 -53.813  1.00  0.00     0.003 A 
HETATM    2  C   UNL     1     -45.278  58.855 -55.061  1.00  0.00     0.029 A 
HETATM    3  C   UNL     1     -44.841  57.864 -55.942  1.00  0.00     0.036 A 
HETATM    4  C   UNL     1     -43.782  57.033 -55.559  1.00  0.00     0.046 A 
HETATM    5  C   UNL     1     -43.155  57.209 -54.317  1.00  0.00     0.034 A 
HETATM    6  C   UNL     1     -43.606  58.198 -53.437  1.00  0.00     0.017 A 
ENDROOT
BRANCH   5   7
HETATM    7  C   UNL     1     -42.028  56.309 -53.956  1.00  0.00     0.257 C 
HETATM    8  N   UNL     1     -42.408  55.063 -53.521  1.00  0.00    -0.307 N 
HETATM    9  H   UNL     1     -43.386  54.867 -53.355  1.00  0.00     0.170 HD
HETATM   10  O   UNL     1     -40.884  56.741 -54.032  1.00  0.00    -0.267 OA
BRANCH   8  11
HETATM   11  C   UNL     1     -41.592  53.997 -53.147  1.00  0.00     0.130 A 
HETATM   12  N   UNL     1     -41.414  53.904 -51.810  1.00  0.00    -0.242 NA
HETATM   13  C   UNL     1     -40.632  52.893 -51.355  1.00  0.00     0.142 A 
HETATM   14  C   UNL     1     -40.027  51.955 -52.174  1.00  0.00     0.051 A 
HETATM   15 CL   UNL     1     -39.058  50.702 -51.521  1.00  0.00    -0.083 Cl
HETATM   16  C   UNL     1     -40.232  52.058 -53.543  1.00  0.00     0.029 A 
HETATM   17  C   UNL     1     -41.026  53.094 -54.039  1.00  0.00     0.052 A 
ENDBRANCH   8  11
ENDBRANCH   5   7
BRANCH   3  18
HETATM   18  N   UNL     1     -45.395  57.648 -57.214  1.00  0.00    -0.322 N 
HETATM   19  C   UNL     1     -44.983  58.151 -58.433  1.00  0.00     0.276 C 
HETATM   20  O   UNL     1     -44.052  58.923 -58.631  1.00  0.00    -0.266 OA
HETATM   21  H   UNL     1     -46.204  57.033 -57.290  1.00  0.00     0.169 HD
BRANCH  19  22
HETATM   22  C   UNL     1     -45.814  57.643 -59.540  1.00  0.00     0.146 A 
HETATM   23  N   UNL     1     -46.376  58.471 -60.450  1.00  0.00    -0.170 NA
HETATM   24  N   UNL     1     -47.052  57.644 -61.269  1.00  0.00    -0.289 N 
HETATM   25  H   UNL     1     -47.567  58.049 -62.043  1.00  0.00     0.188 HD
HETATM   26  C   UNL     1     -46.944  56.329 -60.930  1.00  0.00     0.112 A 
HETATM   27  C   UNL     1     -46.147  56.291 -59.812  1.00  0.00     0.058 A 
ENDBRANCH  19  22
ENDBRANCH   3  18
TORSDOF 4
ENDMDL
