MODEL 1
REMARK VINA RESULT:      -8.0      0.000      0.000
REMARK  7 active torsions:
REMARK  status: ('A' for Active; 'I' for Inactive)
REMARK    1  A    between atoms: C_2  and  N_3 
REMARK    2  A    between atoms: C_11  and  C_12 
REMARK    3  A    between atoms: C_14  and  O_15 
REMARK    4  A    between atoms: C_17  and  O_18 
REMARK    5  A    between atoms: O_18  and  C_19 
REMARK    6  A    between atoms: C_19  and  C_20 
REMARK    7  A    between atoms: C_31  and  O_32 
ROOT
HETATM    1  N   UNL     1     -39.500  52.244 -50.795  1.00  0.00    -0.067 N 
HETATM    2  H   UNL     1     -38.582  52.080 -50.365  1.00  0.00     0.280 HD
HETATM    3  C   UNL     1     -39.227  52.416 -52.292  1.00  0.00     0.281 C 
HETATM    4  C   UNL     1     -40.372  53.084 -52.970  1.00  0.00     0.018 A 
HETATM    5  C   UNL     1     -41.376  53.795 -52.329  1.00  0.00    -0.024 A 
HETATM    6  C   UNL     1     -42.332  54.290 -53.270  1.00  0.00     0.057 A 
HETATM    7  C   UNL     1     -41.982  53.978 -54.559  1.00  0.00     0.087 A 
HETATM    8  N   UNL     1     -42.723  54.360 -55.617  1.00  0.00    -0.357 N 
HETATM    9  C   UNL     1     -43.680  55.441 -55.399  1.00  0.00     0.243 C 
HETATM   10  N   UNL     1     -44.232  55.576 -54.034  1.00  0.00    -0.235 NA
HETATM   11  C   UNL     1     -43.550  55.035 -53.093  1.00  0.00     0.173 C 
HETATM   12  S   UNL     1     -40.555  53.067 -54.661  1.00  0.00    -0.074 SA
HETATM   13  C   UNL     1     -41.390  53.952 -50.837  1.00  0.00     0.068 C 
HETATM   14  C   UNL     1     -40.041  53.552 -50.213  1.00  0.00     0.240 C 
HETATM   15  H   UNL     1     -42.311  54.329 -56.545  1.00  0.00     0.162 HD
ENDROOT
BRANCH   9  16
HETATM   16  C   UNL     1     -43.070  56.746 -55.919  1.00  0.00    -0.012 A 
HETATM   17  C   UNL     1     -42.600  57.746 -55.044  1.00  0.00     0.050 A 
HETATM   18  C   UNL     1     -41.999  58.907 -55.534  1.00  0.00     0.102 A 
HETATM   19  C   UNL     1     -41.816  59.045 -56.913  1.00  0.00     0.112 A 
HETATM   20  C   UNL     1     -42.303  58.091 -57.804  1.00  0.00     0.041 A 
HETATM   21  C   UNL     1     -42.927  56.946 -57.306  1.00  0.00     0.014 A 
BRANCH  18  22
HETATM   22  O   UNL     1     -41.521  59.911 -54.736  1.00  0.00    -0.353 OA
HETATM   23  C   UNL     1     -41.442  59.595 -53.350  1.00  0.00     0.210 C 
ENDBRANCH  18  22
BRANCH  19  24
HETATM   24  O   UNL     1     -41.200  60.213 -57.380  1.00  0.00    -0.272 OA
BRANCH  24  25
HETATM   25  C   UNL     1     -42.066  61.097 -57.986  1.00  0.00     0.300 C 
HETATM   26  O   UNL     1     -43.215  61.384 -57.691  1.00  0.00    -0.259 OA
BRANCH  25  27
HETATM   27  C   UNL     1     -41.339  61.692 -59.112  1.00  0.00     0.061 A 
HETATM   28  C   UNL     1     -41.681  61.369 -60.427  1.00  0.00     0.050 A 
HETATM   29 CL   UNL     1     -42.957  60.272 -60.809  1.00  0.00    -0.083 Cl
HETATM   30  C   UNL     1     -40.974  61.951 -61.482  1.00  0.00     0.025 A 
HETATM   31  C   UNL     1     -39.938  62.850 -61.220  1.00  0.00     0.002 A 
HETATM   32  C   UNL     1     -39.606  63.177 -59.904  1.00  0.00     0.001 A 
HETATM   33  C   UNL     1     -40.307  62.601 -58.844  1.00  0.00     0.019 A 
ENDBRANCH  25  27
ENDBRANCH  24  25
ENDBRANCH  19  24
ENDBRANCH   9  16
BRANCH  11  34
HETATM   34  O   UNL     1     -43.993  55.168 -51.830  1.00  0.00    -0.344 OA
HETATM   35  H   UNL     1     -44.841  54.689 -51.783  1.00  0.00     0.219 HD
ENDBRANCH  11  34
BRANCH   1  36
HETATM   36  C   UNL     1     -40.337  51.012 -50.517  1.00  0.00     0.231 C 
HETATM   37  C   UNL     1     -39.628  49.754 -50.981  1.00  0.00     0.034 C 
ENDBRANCH   1  36
TORSDOF 7
ENDMDL
MODEL 2
REMARK VINA RESULT:      -8.0      4.852      9.436
REMARK  7 active torsions:
REMARK  status: ('A' for Active; 'I' for Inactive)
REMARK    1  A    between atoms: C_2  and  N_3 
REMARK    2  A    between atoms: C_11  and  C_12 
REMARK    3  A    between atoms: C_14  and  O_15 
REMARK    4  A    between atoms: C_17  and  O_18 
REMARK    5  A    between atoms: O_18  and  C_19 
REMARK    6  A    between atoms: C_19  and  C_20 
REMARK    7  A    between atoms: C_31  and  O_32 
ROOT
HETATM    1  N   UNL     1     -44.947  63.201 -49.457  1.00  0.00    -0.067 N 
HETATM    2  H   UNL     1     -44.978  63.407 -48.451  1.00  0.00     0.280 HD
HETATM    3  C   UNL     1     -45.664  61.858 -49.622  1.00  0.00     0.281 C 
HETATM    4  C   UNL     1     -45.321  61.229 -50.928  1.00  0.00     0.018 A 
HETATM    5  C   UNL     1     -44.241  61.579 -51.725  1.00  0.00    -0.024 A 
HETATM    6  C   UNL     1     -44.212  60.793 -52.920  1.00  0.00     0.057 A 
HETATM    7  C   UNL     1     -45.224  59.868 -52.942  1.00  0.00     0.087 A 
HETATM    8  N   UNL     1     -45.383  59.002 -53.960  1.00  0.00    -0.357 N 
HETATM    9  C   UNL     1     -44.236  58.799 -54.842  1.00  0.00     0.243 C 
HETATM   10  N   UNL     1     -43.300  59.934 -54.988  1.00  0.00    -0.235 NA
HETATM   11  C   UNL     1     -43.328  60.813 -54.055  1.00  0.00     0.173 C 
HETATM   12  S   UNL     1     -46.234  59.951 -51.582  1.00  0.00    -0.074 SA
HETATM   13  C   UNL     1     -43.294  62.669 -51.320  1.00  0.00     0.068 C 
HETATM   14  C   UNL     1     -43.473  63.055 -49.840  1.00  0.00     0.240 C 
HETATM   15  H   UNL     1     -45.974  58.187 -53.828  1.00  0.00     0.162 HD
ENDROOT
BRANCH   9  16
HETATM   16  C   UNL     1     -43.530  57.502 -54.434  1.00  0.00    -0.012 A 
HETATM   17  C   UNL     1     -42.707  57.433 -53.292  1.00  0.00     0.050 A 
HETATM   18  C   UNL     1     -42.112  56.230 -52.906  1.00  0.00     0.102 A 
HETATM   19  C   UNL     1     -42.389  55.071 -53.637  1.00  0.00     0.112 A 
HETATM   20  C   UNL     1     -43.169  55.116 -54.792  1.00  0.00     0.041 A 
HETATM   21  C   UNL     1     -43.736  56.329 -55.186  1.00  0.00     0.014 A 
BRANCH  18  22
HETATM   22  O   UNL     1     -41.307  56.099 -51.807  1.00  0.00    -0.353 OA
HETATM   23  C   UNL     1     -41.300  57.217 -50.925  1.00  0.00     0.210 C 
ENDBRANCH  18  22
BRANCH  19  24
HETATM   24  O   UNL     1     -41.791  53.875 -53.223  1.00  0.00    -0.272 OA
BRANCH  24  25
HETATM   25  C   UNL     1     -40.645  53.554 -53.918  1.00  0.00     0.300 C 
HETATM   26  O   UNL     1     -40.017  54.216 -54.727  1.00  0.00    -0.259 OA
BRANCH  25  27
HETATM   27  C   UNL     1     -40.261  52.203 -53.494  1.00  0.00     0.061 A 
HETATM   28  C   UNL     1     -39.815  51.970 -52.191  1.00  0.00     0.050 A 
HETATM   29 CL   UNL     1     -39.688  53.228 -51.016  1.00  0.00    -0.083 Cl
HETATM   30  C   UNL     1     -39.456  50.675 -51.811  1.00  0.00     0.025 A 
HETATM   31  C   UNL     1     -39.550  49.624 -52.727  1.00  0.00     0.002 A 
HETATM   32  C   UNL     1     -40.006  49.861 -54.025  1.00  0.00     0.001 A 
HETATM   33  C   UNL     1     -40.365  51.152 -54.413  1.00  0.00     0.019 A 
ENDBRANCH  25  27
ENDBRANCH  24  25
ENDBRANCH  19  24
ENDBRANCH   9  16
BRANCH  11  34
HETATM   34  O   UNL     1     -42.465  61.841 -54.125  1.00  0.00    -0.344 OA
HETATM   35  H   UNL     1     -41.652  61.493 -54.534  1.00  0.00     0.219 HD
ENDBRANCH  11  34
BRANCH   1  36
HETATM   36  C   UNL     1     -45.693  64.322 -50.152  1.00  0.00     0.231 C 
HETATM   37  C   UNL     1     -47.150  64.350 -49.732  1.00  0.00     0.034 C 
ENDBRANCH   1  36
TORSDOF 7
ENDMDL
MODEL 3
REMARK VINA RESULT:      -7.8      4.295      9.430
REMARK  7 active torsions:
REMARK  status: ('A' for Active; 'I' for Inactive)
REMARK    1  A    between atoms: C_2  and  N_3 
REMARK    2  A    between atoms: C_11  and  C_12 
REMARK    3  A    between atoms: C_14  and  O_15 
REMARK    4  A    between atoms: C_17  and  O_18 
REMARK    5  A    between atoms: O_18  and  C_19 
REMARK    6  A    between atoms: C_19  and  C_20 
REMARK    7  A    between atoms: C_31  and  O_32 
ROOT
HETATM    1  N   UNL     1     -45.193  59.061 -61.068  1.00  0.00    -0.067 N 
HETATM    2  H   UNL     1     -45.253  58.464 -61.901  1.00  0.00     0.280 HD
HETATM    3  C   UNL     1     -43.724  59.013 -60.636  1.00  0.00     0.281 C 
HETATM    4  C   UNL     1     -43.570  59.460 -59.223  1.00  0.00     0.018 A 
HETATM    5  C   UNL     1     -44.597  59.546 -58.296  1.00  0.00    -0.024 A 
HETATM    6  C   UNL     1     -44.111  60.028 -57.040  1.00  0.00     0.057 A 
HETATM    7  C   UNL     1     -42.755  60.229 -57.065  1.00  0.00     0.087 A 
HETATM    8  N   UNL     1     -42.073  60.661 -55.987  1.00  0.00    -0.357 N 
HETATM    9  C   UNL     1     -42.733  60.531 -54.690  1.00  0.00     0.243 C 
HETATM   10  N   UNL     1     -44.211  60.581 -54.687  1.00  0.00    -0.235 NA
HETATM   11  C   UNL     1     -44.786  60.322 -55.803  1.00  0.00     0.173 C 
HETATM   12  S   UNL     1     -42.058  59.894 -58.574  1.00  0.00    -0.074 SA
HETATM   13  C   UNL     1     -46.007  59.186 -58.657  1.00  0.00     0.068 C 
HETATM   14  C   UNL     1     -46.072  58.420 -59.992  1.00  0.00     0.240 C 
HETATM   15  H   UNL     1     -41.063  60.560 -55.968  1.00  0.00     0.162 HD
ENDROOT
BRANCH   9  16
HETATM   16  C   UNL     1     -42.184  59.287 -53.985  1.00  0.00    -0.012 A 
HETATM   17  C   UNL     1     -41.846  59.298 -52.618  1.00  0.00     0.050 A 
HETATM   18  C   UNL     1     -41.395  58.141 -51.979  1.00  0.00     0.102 A 
HETATM   19  C   UNL     1     -41.337  56.946 -52.702  1.00  0.00     0.112 A 
HETATM   20  C   UNL     1     -41.629  56.913 -54.064  1.00  0.00     0.041 A 
HETATM   21  C   UNL     1     -42.052  58.081 -54.701  1.00  0.00     0.014 A 
BRANCH  18  22
HETATM   22  O   UNL     1     -41.054  58.088 -50.654  1.00  0.00    -0.353 OA
HETATM   23  C   UNL     1     -40.839  59.351 -50.034  1.00  0.00     0.210 C 
ENDBRANCH  18  22
BRANCH  19  24
HETATM   24  O   UNL     1     -40.894  55.796 -52.036  1.00  0.00    -0.272 OA
BRANCH  24  25
HETATM   25  C   UNL     1     -41.777  54.740 -52.099  1.00  0.00     0.300 C 
HETATM   26  O   UNL     1     -42.976  54.717 -51.879  1.00  0.00    -0.259 OA
BRANCH  25  27
HETATM   27  C   UNL     1     -41.000  53.568 -52.515  1.00  0.00     0.061 A 
HETATM   28  C   UNL     1     -40.250  52.847 -51.582  1.00  0.00     0.050 A 
HETATM   29 CL   UNL     1     -40.191  53.277 -49.912  1.00  0.00    -0.083 Cl
HETATM   30  C   UNL     1     -39.520  51.734 -52.004  1.00  0.00     0.025 A 
HETATM   31  C   UNL     1     -39.545  51.345 -53.345  1.00  0.00     0.002 A 
HETATM   32  C   UNL     1     -40.303  52.064 -54.271  1.00  0.00     0.001 A 
HETATM   33  C   UNL     1     -41.036  53.177 -53.859  1.00  0.00     0.019 A 
ENDBRANCH  25  27
ENDBRANCH  24  25
ENDBRANCH  19  24
ENDBRANCH   9  16
BRANCH  11  34
HETATM   34  O   UNL     1     -46.131  60.315 -55.838  1.00  0.00    -0.344 OA
HETATM   35  H   UNL     1     -46.424  61.084 -55.316  1.00  0.00     0.219 HD
ENDBRANCH  11  34
BRANCH   1  36
HETATM   36  C   UNL     1     -45.603  60.453 -61.500  1.00  0.00     0.231 C 
HETATM   37  C   UNL     1     -44.586  61.051 -62.454  1.00  0.00     0.034 C 
ENDBRANCH   1  36
TORSDOF 7
ENDMDL
MODEL 4
REMARK VINA RESULT:      -7.8      3.907     10.034
REMARK  7 active torsions:
REMARK  status: ('A' for Active; 'I' for Inactive)
REMARK    1  A    between atoms: C_2  and  N_3 
REMARK    2  A    between atoms: C_11  and  C_12 
REMARK    3  A    between atoms: C_14  and  O_15 
REMARK    4  A    between atoms: C_17  and  O_18 
REMARK    5  A    between atoms: O_18  and  C_19 
REMARK    6  A    between atoms: C_19  and  C_20 
REMARK    7  A    between atoms: C_31  and  O_32 
ROOT
HETATM    1  N   UNL     1     -41.517  63.114 -60.833  1.00  0.00    -0.067 N 
HETATM    2  H   UNL     1     -40.760  63.785 -61.005  1.00  0.00     0.280 HD
HETATM    3  C   UNL     1     -41.655  63.034 -59.309  1.00  0.00     0.281 C 
HETATM    4  C   UNL     1     -42.391  61.804 -58.905  1.00  0.00     0.018 A 
HETATM    5  C   UNL     1     -42.600  60.696 -59.713  1.00  0.00    -0.024 A 
HETATM    6  C   UNL     1     -43.360  59.698 -59.025  1.00  0.00     0.057 A 
HETATM    7  C   UNL     1     -43.639  60.075 -57.736  1.00  0.00     0.087 A 
HETATM    8  N   UNL     1     -44.327  59.284 -56.890  1.00  0.00    -0.357 N 
HETATM    9  C   UNL     1     -44.424  57.868 -57.238  1.00  0.00     0.243 C 
HETATM   10  N   UNL     1     -44.377  57.532 -58.677  1.00  0.00    -0.235 NA
HETATM   11  C   UNL     1     -43.857  58.416 -59.447  1.00  0.00     0.173 C 
HETATM   12  S   UNL     1     -43.047  61.615 -57.347  1.00  0.00    -0.074 SA
HETATM   13  C   UNL     1     -42.082  60.647 -61.120  1.00  0.00     0.068 C 
HETATM   14  C   UNL     1     -41.056  61.764 -61.385  1.00  0.00     0.240 C 
HETATM   15  H   UNL     1     -44.297  59.481 -55.895  1.00  0.00     0.162 HD
ENDROOT
BRANCH   9  16
HETATM   16  C   UNL     1     -43.389  57.092 -56.418  1.00  0.00    -0.012 A 
HETATM   17  C   UNL     1     -42.692  57.688 -55.348  1.00  0.00     0.050 A 
HETATM   18  C   UNL     1     -41.789  56.951 -54.579  1.00  0.00     0.102 A 
HETATM   19  C   UNL     1     -41.625  55.589 -54.846  1.00  0.00     0.112 A 
HETATM   20  C   UNL     1     -42.272  54.981 -55.920  1.00  0.00     0.041 A 
HETATM   21  C   UNL     1     -43.151  55.733 -56.701  1.00  0.00     0.014 A 
BRANCH  18  22
HETATM   22  O   UNL     1     -41.085  57.472 -53.526  1.00  0.00    -0.353 OA
HETATM   23  C   UNL     1     -41.875  57.895 -52.420  1.00  0.00     0.210 C 
ENDBRANCH  18  22
BRANCH  19  24
HETATM   24  O   UNL     1     -40.723  54.868 -54.052  1.00  0.00    -0.272 OA
BRANCH  24  25
HETATM   25  C   UNL     1     -41.327  54.096 -53.082  1.00  0.00     0.300 C 
HETATM   26  O   UNL     1     -42.223  54.385 -52.307  1.00  0.00    -0.259 OA
BRANCH  25  27
HETATM   27  C   UNL     1     -40.690  52.776 -53.141  1.00  0.00     0.061 A 
HETATM   28  C   UNL     1     -39.976  52.285 -52.045  1.00  0.00     0.050 A 
HETATM   29 CL   UNL     1     -39.798  53.179 -50.580  1.00  0.00    -0.083 Cl
HETATM   30  C   UNL     1     -39.380  51.024 -52.126  1.00  0.00     0.025 A 
HETATM   31  C   UNL     1     -39.504  50.262 -53.290  1.00  0.00     0.002 A 
HETATM   32  C   UNL     1     -40.228  50.755 -54.378  1.00  0.00     0.001 A 
HETATM   33  C   UNL     1     -40.826  52.013 -54.307  1.00  0.00     0.019 A 
ENDBRANCH  25  27
ENDBRANCH  24  25
ENDBRANCH  19  24
ENDBRANCH   9  16
BRANCH  11  34
HETATM   34  O   UNL     1     -43.756  58.136 -60.758  1.00  0.00    -0.344 OA
HETATM   35  H   UNL     1     -44.358  58.748 -61.219  1.00  0.00     0.219 HD
ENDBRANCH  11  34
BRANCH   1  36
HETATM   36  C   UNL     1     -42.762  63.690 -61.477  1.00  0.00     0.231 C 
HETATM   37  C   UNL     1     -42.569  63.877 -62.970  1.00  0.00     0.034 C 
ENDBRANCH   1  36
TORSDOF 7
ENDMDL
MODEL 5
REMARK VINA RESULT:      -7.8      3.754      9.754
REMARK  7 active torsions:
REMARK  status: ('A' for Active; 'I' for Inactive)
REMARK    1  A    between atoms: C_2  and  N_3 
REMARK    2  A    between atoms: C_11  and  C_12 
REMARK    3  A    between atoms: C_14  and  O_15 
REMARK    4  A    between atoms: C_17  and  O_18 
REMARK    5  A    between atoms: O_18  and  C_19 
REMARK    6  A    between atoms: C_19  and  C_20 
REMARK    7  A    between atoms: C_31  and  O_32 
ROOT
HETATM    1  N   UNL     1     -43.139  61.999 -61.478  1.00  0.00    -0.067 N 
HETATM    2  H   UNL     1     -43.088  63.025 -61.463  1.00  0.00     0.280 HD
HETATM    3  C   UNL     1     -44.207  61.627 -60.445  1.00  0.00     0.281 C 
HETATM    4  C   UNL     1     -44.083  60.198 -60.043  1.00  0.00     0.018 A 
HETATM    5  C   UNL     1     -42.967  59.402 -60.254  1.00  0.00    -0.024 A 
HETATM    6  C   UNL     1     -43.186  58.076 -59.765  1.00  0.00     0.057 A 
HETATM    7  C   UNL     1     -44.417  57.951 -59.174  1.00  0.00     0.087 A 
HETATM    8  N   UNL     1     -44.835  56.796 -58.622  1.00  0.00    -0.357 N 
HETATM    9  C   UNL     1     -43.811  55.801 -58.312  1.00  0.00     0.243 C 
HETATM   10  N   UNL     1     -42.597  55.810 -59.158  1.00  0.00    -0.235 NA
HETATM   11  C   UNL     1     -42.358  56.899 -59.790  1.00  0.00     0.173 C 
HETATM   12  S   UNL     1     -45.332  59.377 -59.230  1.00  0.00    -0.074 SA
HETATM   13  C   UNL     1     -41.743  59.938 -60.935  1.00  0.00     0.068 C 
HETATM   14  C   UNL     1     -41.774  61.475 -61.027  1.00  0.00     0.240 C 
HETATM   15  H   UNL     1     -45.627  56.810 -57.988  1.00  0.00     0.162 HD
ENDROOT
BRANCH   9  16
HETATM   16  C   UNL     1     -43.487  55.882 -56.818  1.00  0.00    -0.012 A 
HETATM   17  C   UNL     1     -43.731  57.050 -56.068  1.00  0.00     0.050 A 
HETATM   18  C   UNL     1     -43.478  57.090 -54.696  1.00  0.00     0.102 A 
HETATM   19  C   UNL     1     -43.030  55.931 -54.055  1.00  0.00     0.112 A 
HETATM   20  C   UNL     1     -42.745  54.773 -54.776  1.00  0.00     0.041 A 
HETATM   21  C   UNL     1     -42.975  54.752 -56.152  1.00  0.00     0.014 A 
BRANCH  18  22
HETATM   22  O   UNL     1     -43.696  58.193 -53.914  1.00  0.00    -0.353 OA
HETATM   23  C   UNL     1     -43.047  59.382 -54.352  1.00  0.00     0.210 C 
ENDBRANCH  18  22
BRANCH  19  24
HETATM   24  O   UNL     1     -42.795  55.992 -52.675  1.00  0.00    -0.272 OA
BRANCH  24  25
HETATM   25  C   UNL     1     -41.476  56.215 -52.343  1.00  0.00     0.300 C 
HETATM   26  O   UNL     1     -40.673  56.992 -52.832  1.00  0.00    -0.259 OA
BRANCH  25  27
HETATM   27  C   UNL     1     -41.170  55.322 -51.221  1.00  0.00     0.061 A 
HETATM   28  C   UNL     1     -40.661  54.041 -51.454  1.00  0.00     0.050 A 
HETATM   29 CL   UNL     1     -40.365  53.438 -53.043  1.00  0.00    -0.083 Cl
HETATM   30  C   UNL     1     -40.377  53.210 -50.369  1.00  0.00     0.025 A 
HETATM   31  C   UNL     1     -40.594  53.659 -49.064  1.00  0.00     0.002 A 
HETATM   32  C   UNL     1     -41.093  54.943 -48.837  1.00  0.00     0.001 A 
HETATM   33  C   UNL     1     -41.381  55.781 -49.915  1.00  0.00     0.019 A 
ENDBRANCH  25  27
ENDBRANCH  24  25
ENDBRANCH  19  24
ENDBRANCH   9  16
BRANCH  11  34
HETATM   34  O   UNL     1     -41.243  56.967 -60.539  1.00  0.00    -0.344 OA
HETATM   35  H   UNL     1     -41.468  56.583 -61.406  1.00  0.00     0.219 HD
ENDBRANCH  11  34
BRANCH   1  36
HETATM   36  C   UNL     1     -43.557  61.606 -62.880  1.00  0.00     0.231 C 
HETATM   37  C   UNL     1     -42.614  62.189 -63.915  1.00  0.00     0.034 C 
ENDBRANCH   1  36
TORSDOF 7
ENDMDL
MODEL 6
REMARK VINA RESULT:      -7.7      1.059      1.848
REMARK  7 active torsions:
REMARK  status: ('A' for Active; 'I' for Inactive)
REMARK    1  A    between atoms: C_2  and  N_3 
REMARK    2  A    between atoms: C_11  and  C_12 
REMARK    3  A    between atoms: C_14  and  O_15 
REMARK    4  A    between atoms: C_17  and  O_18 
REMARK    5  A    between atoms: O_18  and  C_19 
REMARK    6  A    between atoms: C_19  and  C_20 
REMARK    7  A    between atoms: C_31  and  O_32 
ROOT
HETATM    1  N   UNL     1     -39.632  52.438 -50.835  1.00  0.00    -0.067 N 
HETATM    2  H   UNL     1     -38.712  52.032 -50.626  1.00  0.00     0.280 HD
HETATM    3  C   UNL     1     -39.764  52.388 -52.361  1.00  0.00     0.281 C 
HETATM    4  C   UNL     1     -40.825  53.320 -52.834  1.00  0.00     0.018 A 
HETATM    5  C   UNL     1     -41.363  54.360 -52.091  1.00  0.00    -0.024 A 
HETATM    6  C   UNL     1     -42.374  55.048 -52.834  1.00  0.00     0.057 A 
HETATM    7  C   UNL     1     -42.510  54.534 -54.099  1.00  0.00     0.087 A 
HETATM    8  N   UNL     1     -43.388  55.037 -54.987  1.00  0.00    -0.357 N 
HETATM    9  C   UNL     1     -43.904  56.378 -54.722  1.00  0.00     0.243 C 
HETATM   10  N   UNL     1     -43.980  56.794 -53.305  1.00  0.00    -0.235 NA
HETATM   11  C   UNL     1     -43.234  56.148 -52.487  1.00  0.00     0.173 C 
HETATM   12  S   UNL     1     -41.484  53.219 -54.399  1.00  0.00    -0.074 SA
HETATM   13  C   UNL     1     -40.904  54.640 -50.691  1.00  0.00     0.068 C 
HETATM   14  C   UNL     1     -39.598  53.893 -50.364  1.00  0.00     0.240 C 
HETATM   15  H   UNL     1     -43.287  54.802 -55.970  1.00  0.00     0.162 HD
ENDROOT
BRANCH   9  16
HETATM   16  C   UNL     1     -43.133  57.378 -55.589  1.00  0.00    -0.012 A 
HETATM   17  C   UNL     1     -42.791  57.092 -56.925  1.00  0.00     0.050 A 
HETATM   18  C   UNL     1     -42.132  58.036 -57.717  1.00  0.00     0.102 A 
HETATM   19  C   UNL     1     -41.864  59.299 -57.183  1.00  0.00     0.112 A 
HETATM   20  C   UNL     1     -42.157  59.598 -55.854  1.00  0.00     0.041 A 
HETATM   21  C   UNL     1     -42.790  58.639 -55.062  1.00  0.00     0.014 A 
BRANCH  18  22
HETATM   22  O   UNL     1     -41.776  57.818 -59.021  1.00  0.00    -0.353 OA
HETATM   23  C   UNL     1     -42.854  57.518 -59.900  1.00  0.00     0.210 C 
ENDBRANCH  18  22
BRANCH  19  24
HETATM   24  O   UNL     1     -41.214  60.233 -58.001  1.00  0.00    -0.272 OA
BRANCH  24  25
HETATM   25  C   UNL     1     -42.072  61.060 -58.695  1.00  0.00     0.300 C 
HETATM   26  O   UNL     1     -43.276  61.211 -58.570  1.00  0.00    -0.259 OA
BRANCH  25  27
HETATM   27  C   UNL     1     -41.253  61.793 -59.666  1.00  0.00     0.061 A 
HETATM   28  C   UNL     1     -41.496  61.667 -61.036  1.00  0.00     0.050 A 
HETATM   29 CL   UNL     1     -42.751  60.664 -61.665  1.00  0.00    -0.083 Cl
HETATM   30  C   UNL     1     -40.703  62.377 -61.940  1.00  0.00     0.025 A 
HETATM   31  C   UNL     1     -39.680  63.207 -61.475  1.00  0.00     0.002 A 
HETATM   32  C   UNL     1     -39.448  63.336 -60.105  1.00  0.00     0.001 A 
HETATM   33  C   UNL     1     -40.235  62.631 -59.194  1.00  0.00     0.019 A 
ENDBRANCH  25  27
ENDBRANCH  24  25
ENDBRANCH  19  24
ENDBRANCH   9  16
BRANCH  11  34
HETATM   34  O   UNL     1     -43.240  56.519 -51.194  1.00  0.00    -0.344 OA
HETATM   35  H   UNL     1     -43.233  57.493 -51.187  1.00  0.00     0.219 HD
ENDBRANCH  11  34
BRANCH   1  36
HETATM   36  C   UNL     1     -40.660  51.557 -50.156  1.00  0.00     0.231 C 
HETATM   37  C   UNL     1     -40.267  50.094 -50.241  1.00  0.00     0.034 C 
ENDBRANCH   1  36
TORSDOF 7
ENDMDL
MODEL 7
REMARK VINA RESULT:      -7.5      5.929      8.898
REMARK  7 active torsions:
REMARK  status: ('A' for Active; 'I' for Inactive)
REMARK    1  A    between atoms: C_2  and  N_3 
REMARK    2  A    between atoms: C_11  and  C_12 
REMARK    3  A    between atoms: C_14  and  O_15 
REMARK    4  A    between atoms: C_17  and  O_18 
REMARK    5  A    between atoms: O_18  and  C_19 
REMARK    6  A    between atoms: C_19  and  C_20 
REMARK    7  A    between atoms: C_31  and  O_32 
ROOT
HETATM    1  N   UNL     1     -42.042  53.351 -54.150  1.00  0.00    -0.067 N 
HETATM    2  H   UNL     1     -42.494  52.429 -54.171  1.00  0.00     0.280 HD
HETATM    3  C   UNL     1     -42.005  53.755 -52.673  1.00  0.00     0.281 C 
HETATM    4  C   UNL     1     -41.787  55.221 -52.527  1.00  0.00     0.018 A 
HETATM    5  C   UNL     1     -41.967  56.159 -53.533  1.00  0.00    -0.024 A 
HETATM    6  C   UNL     1     -41.654  57.475 -53.066  1.00  0.00     0.057 A 
HETATM    7  C   UNL     1     -41.308  57.471 -51.738  1.00  0.00     0.087 A 
HETATM    8  N   UNL     1     -40.993  58.600 -51.076  1.00  0.00    -0.357 N 
HETATM    9  C   UNL     1     -41.408  59.863 -51.684  1.00  0.00     0.243 C 
HETATM   10  N   UNL     1     -41.517  59.887 -53.158  1.00  0.00    -0.235 NA
HETATM   11  C   UNL     1     -41.645  58.749 -53.734  1.00  0.00     0.173 C 
HETATM   12  S   UNL     1     -41.309  55.921 -51.052  1.00  0.00    -0.074 SA
HETATM   13  C   UNL     1     -42.410  55.755 -54.907  1.00  0.00     0.068 C 
HETATM   14  C   UNL     1     -42.944  54.311 -54.928  1.00  0.00     0.240 C 
HETATM   15  H   UNL     1     -40.988  58.593 -50.061  1.00  0.00     0.162 HD
ENDROOT
BRANCH   9  16
HETATM   16  C   UNL     1     -42.687  60.341 -50.990  1.00  0.00    -0.012 A 
HETATM   17  C   UNL     1     -43.962  59.904 -51.402  1.00  0.00     0.050 A 
HETATM   18  C   UNL     1     -45.114  60.311 -50.727  1.00  0.00     0.102 A 
HETATM   19  C   UNL     1     -44.986  61.117 -49.592  1.00  0.00     0.112 A 
HETATM   20  C   UNL     1     -43.743  61.594 -49.183  1.00  0.00     0.041 A 
HETATM   21  C   UNL     1     -42.598  61.205 -49.882  1.00  0.00     0.014 A 
BRANCH  18  22
HETATM   22  O   UNL     1     -46.379  59.919 -51.077  1.00  0.00    -0.353 OA
HETATM   23  C   UNL     1     -46.983  60.683 -52.115  1.00  0.00     0.210 C 
ENDBRANCH  18  22
BRANCH  19  24
HETATM   24  O   UNL     1     -46.156  61.501 -48.924  1.00  0.00    -0.272 OA
BRANCH  24  25
HETATM   25  C   UNL     1     -46.242  61.026 -47.632  1.00  0.00     0.300 C 
HETATM   26  O   UNL     1     -46.362  59.881 -47.232  1.00  0.00    -0.259 OA
BRANCH  25  27
HETATM   27  C   UNL     1     -46.146  62.194 -46.750  1.00  0.00     0.061 A 
HETATM   28  C   UNL     1     -47.005  63.282 -46.917  1.00  0.00     0.050 A 
HETATM   29 CL   UNL     1     -48.215  63.325 -48.148  1.00  0.00    -0.083 Cl
HETATM   30  C   UNL     1     -46.894  64.381 -46.063  1.00  0.00     0.025 A 
HETATM   31  C   UNL     1     -45.933  64.387 -45.048  1.00  0.00     0.002 A 
HETATM   32  C   UNL     1     -45.083  63.292 -44.879  1.00  0.00     0.001 A 
HETATM   33  C   UNL     1     -45.188  62.190 -45.728  1.00  0.00     0.019 A 
ENDBRANCH  25  27
ENDBRANCH  24  25
ENDBRANCH  19  24
ENDBRANCH   9  16
BRANCH  11  34
HETATM   34  O   UNL     1     -41.790  58.726 -55.070  1.00  0.00    -0.344 OA
HETATM   35  H   UNL     1     -41.498  57.844 -55.365  1.00  0.00     0.219 HD
ENDBRANCH  11  34
BRANCH   1  36
HETATM   36  C   UNL     1     -40.648  53.165 -54.714  1.00  0.00     0.231 C 
HETATM   37  C   UNL     1     -39.937  52.007 -54.040  1.00  0.00     0.034 C 
ENDBRANCH   1  36
TORSDOF 7
ENDMDL
MODEL 8
REMARK VINA RESULT:      -7.4      4.923      9.564
REMARK  7 active torsions:
REMARK  status: ('A' for Active; 'I' for Inactive)
REMARK    1  A    between atoms: C_2  and  N_3 
REMARK    2  A    between atoms: C_11  and  C_12 
REMARK    3  A    between atoms: C_14  and  O_15 
REMARK    4  A    between atoms: C_17  and  O_18 
REMARK    5  A    between atoms: O_18  and  C_19 
REMARK    6  A    between atoms: C_19  and  C_20 
REMARK    7  A    between atoms: C_31  and  O_32 
ROOT
HETATM    1  N   UNL     1     -45.643  63.521 -49.100  1.00  0.00    -0.067 N 
HETATM    2  H   UNL     1     -45.800  63.593 -48.088  1.00  0.00     0.280 HD
HETATM    3  C   UNL     1     -46.225  62.164 -49.510  1.00  0.00     0.281 C 
HETATM    4  C   UNL     1     -45.692  61.732 -50.832  1.00  0.00     0.018 A 
HETATM    5  C   UNL     1     -44.564  62.254 -51.447  1.00  0.00    -0.024 A 
HETATM    6  C   UNL     1     -44.340  61.632 -52.715  1.00  0.00     0.057 A 
HETATM    7  C   UNL     1     -45.266  60.651 -52.968  1.00  0.00     0.087 A 
HETATM    8  N   UNL     1     -45.241  59.915 -54.095  1.00  0.00    -0.357 N 
HETATM    9  C   UNL     1     -43.992  59.903 -54.852  1.00  0.00     0.243 C 
HETATM   10  N   UNL     1     -43.140  61.108 -54.749  1.00  0.00    -0.235 NA
HETATM   11  C   UNL     1     -43.342  61.856 -53.727  1.00  0.00     0.173 C 
HETATM   12  S   UNL     1     -46.421  60.491 -51.738  1.00  0.00    -0.074 SA
HETATM   13  C   UNL     1     -43.758  63.344 -50.805  1.00  0.00     0.068 C 
HETATM   14  C   UNL     1     -44.129  63.523 -49.321  1.00  0.00     0.240 C 
HETATM   15  H   UNL     1     -45.775  59.051 -54.132  1.00  0.00     0.162 HD
ENDROOT
BRANCH   9  16
HETATM   16  C   UNL     1     -43.232  58.615 -54.522  1.00  0.00    -0.012 A 
HETATM   17  C   UNL     1     -43.139  57.552 -55.442  1.00  0.00     0.050 A 
HETATM   18  C   UNL     1     -42.399  56.406 -55.144  1.00  0.00     0.102 A 
HETATM   19  C   UNL     1     -41.699  56.345 -53.936  1.00  0.00     0.112 A 
HETATM   20  C   UNL     1     -41.803  57.364 -52.991  1.00  0.00     0.041 A 
HETATM   21  C   UNL     1     -42.567  58.494 -53.286  1.00  0.00     0.014 A 
BRANCH  18  22
HETATM   22  O   UNL     1     -42.268  55.342 -55.997  1.00  0.00    -0.353 OA
HETATM   23  C   UNL     1     -42.971  55.466 -57.229  1.00  0.00     0.210 C 
ENDBRANCH  18  22
BRANCH  19  24
HETATM   24  O   UNL     1     -40.954  55.191 -53.665  1.00  0.00    -0.272 OA
BRANCH  24  25
HETATM   25  C   UNL     1     -41.663  54.211 -53.004  1.00  0.00     0.300 C 
HETATM   26  O   UNL     1     -42.739  54.283 -52.433  1.00  0.00    -0.259 OA
BRANCH  25  27
HETATM   27  C   UNL     1     -40.876  52.978 -53.112  1.00  0.00     0.061 A 
HETATM   28  C   UNL     1     -40.045  52.574 -52.065  1.00  0.00     0.050 A 
HETATM   29 CL   UNL     1     -39.891  53.478 -50.603  1.00  0.00    -0.083 Cl
HETATM   30  C   UNL     1     -39.307  51.395 -52.192  1.00  0.00     0.025 A 
HETATM   31  C   UNL     1     -39.406  50.627 -53.355  1.00  0.00     0.002 A 
HETATM   32  C   UNL     1     -40.246  51.031 -54.394  1.00  0.00     0.001 A 
HETATM   33  C   UNL     1     -40.987  52.208 -54.276  1.00  0.00     0.019 A 
ENDBRANCH  25  27
ENDBRANCH  24  25
ENDBRANCH  19  24
ENDBRANCH   9  16
BRANCH  11  34
HETATM   34  O   UNL     1     -42.563  62.940 -53.571  1.00  0.00    -0.344 OA
HETATM   35  H   UNL     1     -43.154  63.714 -53.614  1.00  0.00     0.219 HD
ENDBRANCH  11  34
BRANCH   1  36
HETATM   36  C   UNL     1     -46.397  64.668 -49.740  1.00  0.00     0.231 C 
HETATM   37  C   UNL     1     -47.896  64.481 -49.602  1.00  0.00     0.034 C 
ENDBRANCH   1  36
TORSDOF 7
ENDMDL
MODEL 9
REMARK VINA RESULT:      -7.3      6.750      9.444
REMARK  7 active torsions:
REMARK  status: ('A' for Active; 'I' for Inactive)
REMARK    1  A    between atoms: C_2  and  N_3 
REMARK    2  A    between atoms: C_11  and  C_12 
REMARK    3  A    between atoms: C_14  and  O_15 
REMARK    4  A    between atoms: C_17  and  O_18 
REMARK    5  A    between atoms: O_18  and  C_19 
REMARK    6  A    between atoms: C_19  and  C_20 
REMARK    7  A    between atoms: C_31  and  O_32 
ROOT
HETATM    1  N   UNL     1     -41.752  54.069 -50.473  1.00  0.00    -0.067 N 
HETATM    2  H   UNL     1     -41.588  53.353 -49.755  1.00  0.00     0.280 HD
HETATM    3  C   UNL     1     -41.173  55.366 -49.897  1.00  0.00     0.281 C 
HETATM    4  C   UNL     1     -41.715  56.554 -50.612  1.00  0.00     0.018 A 
HETATM    5  C   UNL     1     -42.847  56.557 -51.414  1.00  0.00    -0.024 A 
HETATM    6  C   UNL     1     -43.079  57.857 -51.965  1.00  0.00     0.057 A 
HETATM    7  C   UNL     1     -42.156  58.768 -51.519  1.00  0.00     0.087 A 
HETATM    8  N   UNL     1     -42.188  60.062 -51.889  1.00  0.00    -0.357 N 
HETATM    9  C   UNL     1     -43.442  60.560 -52.448  1.00  0.00     0.243 C 
HETATM   10  N   UNL     1     -44.292  59.577 -53.154  1.00  0.00    -0.235 NA
HETATM   11  C   UNL     1     -44.083  58.344 -52.872  1.00  0.00     0.173 C 
HETATM   12  S   UNL     1     -40.992  58.089 -50.488  1.00  0.00    -0.074 SA
HETATM   13  C   UNL     1     -43.648  55.309 -51.638  1.00  0.00     0.068 C 
HETATM   14  C   UNL     1     -43.267  54.205 -50.634  1.00  0.00     0.240 C 
HETATM   15  H   UNL     1     -41.655  60.742 -51.355  1.00  0.00     0.162 HD
ENDROOT
BRANCH   9  16
HETATM   16  C   UNL     1     -44.200  61.315 -51.352  1.00  0.00    -0.012 A 
HETATM   17  C   UNL     1     -45.521  61.769 -51.542  1.00  0.00     0.050 A 
HETATM   18  C   UNL     1     -46.215  62.410 -50.514  1.00  0.00     0.102 A 
HETATM   19  C   UNL     1     -45.603  62.548 -49.265  1.00  0.00     0.112 A 
HETATM   20  C   UNL     1     -44.286  62.143 -49.059  1.00  0.00     0.041 A 
HETATM   21  C   UNL     1     -43.590  61.528 -50.101  1.00  0.00     0.014 A 
BRANCH  18  22
HETATM   22  O   UNL     1     -47.499  62.871 -50.636  1.00  0.00    -0.353 OA
HETATM   23  C   UNL     1     -47.796  63.512 -51.872  1.00  0.00     0.210 C 
ENDBRANCH  18  22
BRANCH  19  24
HETATM   24  O   UNL     1     -46.325  63.184 -48.246  1.00  0.00    -0.272 OA
BRANCH  24  25
HETATM   25  C   UNL     1     -46.681  62.348 -47.210  1.00  0.00     0.300 C 
HETATM   26  O   UNL     1     -47.266  61.278 -47.241  1.00  0.00    -0.259 OA
BRANCH  25  27
HETATM   27  C   UNL     1     -46.201  62.981 -45.977  1.00  0.00     0.061 A 
HETATM   28  C   UNL     1     -45.144  62.418 -45.256  1.00  0.00     0.050 A 
HETATM   29 CL   UNL     1     -44.348  60.971 -45.758  1.00  0.00    -0.083 Cl
HETATM   30  C   UNL     1     -44.705  63.041 -44.086  1.00  0.00     0.025 A 
HETATM   31  C   UNL     1     -45.315  64.218 -43.646  1.00  0.00     0.002 A 
HETATM   32  C   UNL     1     -46.364  64.781 -44.375  1.00  0.00     0.001 A 
HETATM   33  C   UNL     1     -46.810  64.166 -45.545  1.00  0.00     0.019 A 
ENDBRANCH  25  27
ENDBRANCH  24  25
ENDBRANCH  19  24
ENDBRANCH   9  16
BRANCH  11  34
HETATM   34  O   UNL     1     -44.861  57.418 -53.460  1.00  0.00    -0.344 OA
HETATM   35  H   UNL     1     -45.428  57.049 -52.759  1.00  0.00     0.219 HD
ENDBRANCH  11  34
BRANCH   1  36
HETATM   36  C   UNL     1     -41.002  53.623 -51.711  1.00  0.00     0.231 C 
HETATM   37  C   UNL     1     -39.843  52.714 -51.349  1.00  0.00     0.034 C 
ENDBRANCH   1  36
TORSDOF 7
ENDMDL
MODEL 10
REMARK VINA RESULT:      -7.2      3.401      5.117
REMARK  7 active torsions:
REMARK  status: ('A' for Active; 'I' for Inactive)
REMARK    1  A    between atoms: C_2  and  N_3 
REMARK    2  A    between atoms: C_11  and  C_12 
REMARK    3  A    between atoms: C_14  and  O_15 
REMARK    4  A    between atoms: C_17  and  O_18 
REMARK    5  A    between atoms: O_18  and  C_19 
REMARK    6  A    between atoms: C_19  and  C_20 
REMARK    7  A    between atoms: C_31  and  O_32 
ROOT
HETATM    1  N   UNL     1     -42.195  54.373 -50.706  1.00  0.00    -0.067 N 
HETATM    2  H   UNL     1     -42.419  53.385 -50.542  1.00  0.00     0.280 HD
HETATM    3  C   UNL     1     -43.520  55.034 -51.100  1.00  0.00     0.281 C 
HETATM    4  C   UNL     1     -43.284  56.337 -51.780  1.00  0.00     0.018 A 
HETATM    5  C   UNL     1     -42.077  56.744 -52.330  1.00  0.00    -0.024 A 
HETATM    6  C   UNL     1     -42.188  58.056 -52.889  1.00  0.00     0.057 A 
HETATM    7  C   UNL     1     -43.464  58.547 -52.781  1.00  0.00     0.087 A 
HETATM    8  N   UNL     1     -43.811  59.758 -53.257  1.00  0.00    -0.357 N 
HETATM    9  C   UNL     1     -42.913  60.367 -54.235  1.00  0.00     0.243 C 
HETATM   10  N   UNL     1     -41.483  60.000 -54.144  1.00  0.00    -0.235 NA
HETATM   11  C   UNL     1     -41.218  58.910 -53.522  1.00  0.00     0.173 C 
HETATM   12  S   UNL     1     -44.522  57.486 -51.986  1.00  0.00    -0.074 SA
HETATM   13  C   UNL     1     -40.861  55.869 -52.278  1.00  0.00     0.068 C 
HETATM   14  C   UNL     1     -41.219  54.424 -51.883  1.00  0.00     0.240 C 
HETATM   15  H   UNL     1     -44.795  59.977 -53.381  1.00  0.00     0.162 HD
ENDROOT
BRANCH   9  16
HETATM   16  C   UNL     1     -43.491  60.143 -55.635  1.00  0.00    -0.012 A 
HETATM   17  C   UNL     1     -44.852  59.842 -55.836  1.00  0.00     0.050 A 
HETATM   18  C   UNL     1     -45.373  59.691 -57.123  1.00  0.00     0.102 A 
HETATM   19  C   UNL     1     -44.536  59.900 -58.222  1.00  0.00     0.112 A 
HETATM   20  C   UNL     1     -43.177  60.161 -58.054  1.00  0.00     0.041 A 
HETATM   21  C   UNL     1     -42.660  60.283 -56.764  1.00  0.00     0.014 A 
BRANCH  18  22
HETATM   22  O   UNL     1     -46.686  59.401 -57.382  1.00  0.00    -0.353 OA
HETATM   23  C   UNL     1     -47.052  58.038 -57.198  1.00  0.00     0.210 C 
ENDBRANCH  18  22
BRANCH  19  24
HETATM   24  O   UNL     1     -45.084  59.755 -59.503  1.00  0.00    -0.272 OA
BRANCH  24  25
HETATM   25  C   UNL     1     -44.235  59.157 -60.409  1.00  0.00     0.300 C 
HETATM   26  O   UNL     1     -43.474  59.667 -61.214  1.00  0.00    -0.259 OA
BRANCH  25  27
HETATM   27  C   UNL     1     -44.390  57.709 -60.235  1.00  0.00     0.061 A 
HETATM   28  C   UNL     1     -43.275  56.901 -59.994  1.00  0.00     0.050 A 
HETATM   29 CL   UNL     1     -41.676  57.540 -59.886  1.00  0.00    -0.083 Cl
HETATM   30  C   UNL     1     -43.449  55.525 -59.831  1.00  0.00     0.025 A 
HETATM   31  C   UNL     1     -44.727  54.965 -59.904  1.00  0.00     0.002 A 
HETATM   32  C   UNL     1     -45.838  55.779 -60.136  1.00  0.00     0.001 A 
HETATM   33  C   UNL     1     -45.674  57.154 -60.300  1.00  0.00     0.019 A 
ENDBRANCH  25  27
ENDBRANCH  24  25
ENDBRANCH  19  24
ENDBRANCH   9  16
BRANCH  11  34
HETATM   34  O   UNL     1     -39.935  58.516 -53.451  1.00  0.00    -0.344 OA
HETATM   35  H   UNL     1     -39.767  58.289 -52.518  1.00  0.00     0.219 HD
ENDBRANCH  11  34
BRANCH   1  36
HETATM   36  C   UNL     1     -41.666  54.921 -49.396  1.00  0.00     0.231 C 
HETATM   37  C   UNL     1     -40.418  54.178 -48.958  1.00  0.00     0.034 C 
ENDBRANCH   1  36
TORSDOF 7
ENDMDL
