MODEL 1
REMARK VINA RESULT:      -8.1      0.000      0.000
REMARK  6 active torsions:
REMARK  status: ('A' for Active; 'I' for Inactive)
REMARK    1  A    between atoms: C_2  and  O_3 
REMARK    2  A    between atoms: O_3  and  C_4 
REMARK    3  A    between atoms: C_9  and  S_10 
REMARK    4  A    between atoms: S_10  and  C_11 
REMARK    5  A    between atoms: C_11  and  C_12 
REMARK       I    between atoms: C_12  and  N_13 
REMARK    6  A    between atoms: N_13  and  C_14 
ROOT
HETATM    1  C   UNL     1     -42.628  55.835 -56.398  1.00  0.00     0.069 A 
HETATM    2  C   UNL     1     -42.051  56.684 -55.455  1.00  0.00     0.050 A 
HETATM    3  C   UNL     1     -41.973  56.299 -54.102  1.00  0.00    -0.004 A 
HETATM    4  C   UNL     1     -42.461  55.047 -53.686  1.00  0.00     0.068 A 
HETATM    5  N   UNL     1     -42.423  54.648 -52.406  1.00  0.00    -0.241 NA
HETATM    6  C   UNL     1     -41.951  55.501 -51.466  1.00  0.00     0.100 A 
HETATM    7  C   UNL     1     -41.415  56.750 -51.777  1.00  0.00    -0.026 A 
HETATM    8  C   UNL     1     -40.847  57.675 -50.742  1.00  0.00     0.051 C 
HETATM    9  C   UNL     1     -41.428  57.138 -53.122  1.00  0.00     0.023 A 
HETATM   10  C   UNL     1     -43.006  54.206 -54.645  1.00  0.00     0.035 A 
HETATM   11  C   UNL     1     -43.092  54.588 -55.987  1.00  0.00     0.039 A 
ENDROOT
BRANCH   6  12
HETATM   12  S   UNL     1     -42.121  54.931 -49.786  1.00  0.00    -0.096 SA
BRANCH  12  13
HETATM   13  C   UNL     1     -40.497  54.130 -49.490  1.00  0.00     0.142 C 
HETATM   14  C   UNL     1     -40.057  54.123 -48.032  1.00  0.00     0.031 C 
BRANCH  13  15
HETATM   15  C   UNL     1     -40.416  52.776 -50.206  1.00  0.00     0.236 C 
HETATM   16  N   UNL     1     -40.065  52.842 -51.543  1.00  0.00    -0.326 N 
HETATM   17  H   UNL     1     -39.803  53.756 -51.900  1.00  0.00     0.169 HD
HETATM   18  O   UNL     1     -40.620  51.741 -49.573  1.00  0.00    -0.272 OA
BRANCH  16  19
HETATM   19  C   UNL     1     -39.907  51.768 -52.443  1.00  0.00     0.034 A 
HETATM   20  C   UNL     1     -39.497  50.487 -52.070  1.00  0.00     0.029 A 
HETATM   21  C   UNL     1     -39.366  49.476 -53.028  1.00  0.00     0.002 A 
HETATM   22  C   UNL     1     -39.648  49.735 -54.365  1.00  0.00     0.000 A 
HETATM   23  C   UNL     1     -40.062  51.009 -54.749  1.00  0.00     0.002 A 
HETATM   24  C   UNL     1     -40.190  52.020 -53.792  1.00  0.00     0.029 A 
ENDBRANCH  16  19
ENDBRANCH  13  15
ENDBRANCH  12  13
ENDBRANCH   6  12
BRANCH   1  25
HETATM   25  O   UNL     1     -42.791  56.099 -57.728  1.00  0.00    -0.351 OA
BRANCH  25  26
HETATM   26  C   UNL     1     -42.439  57.407 -58.178  1.00  0.00     0.171 C 
HETATM   27  C   UNL     1     -42.195  57.337 -59.675  1.00  0.00     0.034 C 
ENDBRANCH  25  26
ENDBRANCH   1  25
TORSDOF 6
ENDMDL
MODEL 2
REMARK VINA RESULT:      -7.8      2.027      2.743
REMARK  6 active torsions:
REMARK  status: ('A' for Active; 'I' for Inactive)
REMARK    1  A    between atoms: C_2  and  O_3 
REMARK    2  A    between atoms: O_3  and  C_4 
REMARK    3  A    between atoms: C_9  and  S_10 
REMARK    4  A    between atoms: S_10  and  C_11 
REMARK    5  A    between atoms: C_11  and  C_12 
REMARK       I    between atoms: C_12  and  N_13 
REMARK    6  A    between atoms: N_13  and  C_14 
ROOT
HETATM    1  C   UNL     1     -43.611  56.518 -57.914  1.00  0.00     0.069 A 
HETATM    2  C   UNL     1     -43.716  57.640 -57.093  1.00  0.00     0.050 A 
HETATM    3  C   UNL     1     -43.120  57.646 -55.816  1.00  0.00    -0.004 A 
HETATM    4  C   UNL     1     -42.397  56.530 -55.360  1.00  0.00     0.068 A 
HETATM    5  N   UNL     1     -41.828  56.487 -54.145  1.00  0.00    -0.241 NA
HETATM    6  C   UNL     1     -42.002  57.532 -53.301  1.00  0.00     0.100 A 
HETATM    7  C   UNL     1     -42.673  58.698 -53.668  1.00  0.00    -0.026 A 
HETATM    8  C   UNL     1     -42.825  59.875 -52.750  1.00  0.00     0.051 C 
HETATM    9  C   UNL     1     -43.230  58.743 -54.952  1.00  0.00     0.023 A 
HETATM   10  C   UNL     1     -42.280  55.436 -56.204  1.00  0.00     0.035 A 
HETATM   11  C   UNL     1     -42.878  55.423 -57.467  1.00  0.00     0.039 A 
ENDROOT
BRANCH   6  12
HETATM   12  S   UNL     1     -41.358  57.282 -51.659  1.00  0.00    -0.096 SA
BRANCH  12  13
HETATM   13  C   UNL     1     -42.579  56.113 -50.946  1.00  0.00     0.142 C 
HETATM   14  C   UNL     1     -44.018  56.611 -50.977  1.00  0.00     0.031 C 
BRANCH  13  15
HETATM   15  C   UNL     1     -42.364  54.696 -51.491  1.00  0.00     0.236 C 
HETATM   16  N   UNL     1     -41.060  54.399 -51.847  1.00  0.00    -0.326 N 
HETATM   17  H   UNL     1     -40.358  55.099 -51.628  1.00  0.00     0.169 HD
HETATM   18  O   UNL     1     -43.313  53.916 -51.547  1.00  0.00    -0.272 OA
BRANCH  16  19
HETATM   19  C   UNL     1     -40.567  53.184 -52.367  1.00  0.00     0.034 A 
HETATM   20  C   UNL     1     -39.944  52.199 -51.598  1.00  0.00     0.029 A 
HETATM   21  C   UNL     1     -39.484  51.020 -52.193  1.00  0.00     0.002 A 
HETATM   22  C   UNL     1     -39.646  50.813 -53.559  1.00  0.00     0.000 A 
HETATM   23  C   UNL     1     -40.269  51.787 -54.336  1.00  0.00     0.002 A 
HETATM   24  C   UNL     1     -40.727  52.967 -53.742  1.00  0.00     0.029 A 
ENDBRANCH  16  19
ENDBRANCH  13  15
ENDBRANCH  12  13
ENDBRANCH   6  12
BRANCH   1  25
HETATM   25  O   UNL     1     -44.165  56.372 -59.154  1.00  0.00    -0.351 OA
BRANCH  25  26
HETATM   26  C   UNL     1     -44.283  55.043 -59.660  1.00  0.00     0.171 C 
HETATM   27  C   UNL     1     -45.061  55.104 -60.962  1.00  0.00     0.034 C 
ENDBRANCH  25  26
ENDBRANCH   1  25
TORSDOF 6
ENDMDL
MODEL 3
REMARK VINA RESULT:      -7.8      2.186      6.903
REMARK  6 active torsions:
REMARK  status: ('A' for Active; 'I' for Inactive)
REMARK    1  A    between atoms: C_2  and  O_3 
REMARK    2  A    between atoms: O_3  and  C_4 
REMARK    3  A    between atoms: C_9  and  S_10 
REMARK    4  A    between atoms: S_10  and  C_11 
REMARK    5  A    between atoms: C_11  and  C_12 
REMARK       I    between atoms: C_12  and  N_13 
REMARK    6  A    between atoms: N_13  and  C_14 
ROOT
HETATM    1  C   UNL     1     -39.769  51.662 -53.195  1.00  0.00     0.069 A 
HETATM    2  C   UNL     1     -40.009  52.507 -52.113  1.00  0.00     0.050 A 
HETATM    3  C   UNL     1     -40.567  53.785 -52.316  1.00  0.00    -0.004 A 
HETATM    4  C   UNL     1     -40.905  54.219 -53.610  1.00  0.00     0.068 A 
HETATM    5  N   UNL     1     -41.422  55.434 -53.851  1.00  0.00    -0.241 NA
HETATM    6  C   UNL     1     -41.573  56.299 -52.821  1.00  0.00     0.100 A 
HETATM    7  C   UNL     1     -41.299  55.956 -51.497  1.00  0.00    -0.026 A 
HETATM    8  C   UNL     1     -41.512  56.899 -50.350  1.00  0.00     0.051 C 
HETATM    9  C   UNL     1     -40.794  54.673 -51.257  1.00  0.00     0.023 A 
HETATM   10  C   UNL     1     -40.684  53.352 -54.670  1.00  0.00     0.035 A 
HETATM   11  C   UNL     1     -40.123  52.087 -54.472  1.00  0.00     0.039 A 
ENDROOT
BRANCH   6  12
HETATM   12  S   UNL     1     -42.094  57.937 -53.291  1.00  0.00    -0.096 SA
BRANCH  12  13
HETATM   13  C   UNL     1     -43.843  57.657 -53.769  1.00  0.00     0.142 C 
HETATM   14  C   UNL     1     -44.842  58.551 -53.045  1.00  0.00     0.031 C 
BRANCH  13  15
HETATM   15  C   UNL     1     -43.993  57.608 -55.294  1.00  0.00     0.236 C 
HETATM   16  N   UNL     1     -42.852  57.231 -55.981  1.00  0.00    -0.326 N 
HETATM   17  H   UNL     1     -42.060  56.933 -55.420  1.00  0.00     0.169 HD
HETATM   18  O   UNL     1     -45.083  57.858 -55.806  1.00  0.00    -0.272 OA
BRANCH  16  19
HETATM   19  C   UNL     1     -42.695  57.094 -57.376  1.00  0.00     0.034 A 
HETATM   20  C   UNL     1     -43.055  55.952 -58.096  1.00  0.00     0.029 A 
HETATM   21  C   UNL     1     -42.867  55.897 -59.480  1.00  0.00     0.002 A 
HETATM   22  C   UNL     1     -42.322  56.982 -60.159  1.00  0.00     0.000 A 
HETATM   23  C   UNL     1     -41.963  58.128 -59.452  1.00  0.00     0.002 A 
HETATM   24  C   UNL     1     -42.149  58.182 -58.068  1.00  0.00     0.029 A 
ENDBRANCH  16  19
ENDBRANCH  13  15
ENDBRANCH  12  13
ENDBRANCH   6  12
BRANCH   1  25
HETATM   25  O   UNL     1     -39.208  50.418 -53.137  1.00  0.00    -0.351 OA
BRANCH  25  26
HETATM   26  C   UNL     1     -39.849  49.455 -52.301  1.00  0.00     0.171 C 
HETATM   27  C   UNL     1     -39.428  49.724 -50.868  1.00  0.00     0.034 C 
ENDBRANCH  25  26
ENDBRANCH   1  25
TORSDOF 6
ENDMDL
MODEL 4
REMARK VINA RESULT:      -7.7      2.480      7.168
REMARK  6 active torsions:
REMARK  status: ('A' for Active; 'I' for Inactive)
REMARK    1  A    between atoms: C_2  and  O_3 
REMARK    2  A    between atoms: O_3  and  C_4 
REMARK    3  A    between atoms: C_9  and  S_10 
REMARK    4  A    between atoms: S_10  and  C_11 
REMARK    5  A    between atoms: C_11  and  C_12 
REMARK       I    between atoms: C_12  and  N_13 
REMARK    6  A    between atoms: N_13  and  C_14 
ROOT
HETATM    1  C   UNL     1     -40.130  52.353 -52.969  1.00  0.00     0.069 A 
HETATM    2  C   UNL     1     -40.860  53.039 -51.999  1.00  0.00     0.050 A 
HETATM    3  C   UNL     1     -41.782  54.036 -52.374  1.00  0.00    -0.004 A 
HETATM    4  C   UNL     1     -41.992  54.341 -53.730  1.00  0.00     0.068 A 
HETATM    5  N   UNL     1     -42.847  55.295 -54.130  1.00  0.00    -0.241 NA
HETATM    6  C   UNL     1     -43.492  56.032 -53.196  1.00  0.00     0.100 A 
HETATM    7  C   UNL     1     -43.379  55.789 -51.828  1.00  0.00    -0.026 A 
HETATM    8  C   UNL     1     -44.131  56.574 -50.794  1.00  0.00     0.051 C 
HETATM    9  C   UNL     1     -42.511  54.766 -51.426  1.00  0.00     0.023 A 
HETATM   10  C   UNL     1     -41.276  53.628 -54.680  1.00  0.00     0.035 A 
HETATM   11  C   UNL     1     -40.354  52.644 -54.311  1.00  0.00     0.039 A 
ENDROOT
BRANCH   6  12
HETATM   12  S   UNL     1     -44.456  57.383 -53.845  1.00  0.00    -0.096 SA
BRANCH  12  13
HETATM   13  C   UNL     1     -43.162  58.452 -54.586  1.00  0.00     0.142 C 
HETATM   14  C   UNL     1     -41.804  58.361 -53.900  1.00  0.00     0.031 C 
BRANCH  13  15
HETATM   15  C   UNL     1     -43.137  58.304 -56.111  1.00  0.00     0.236 C 
HETATM   16  N   UNL     1     -43.916  57.275 -56.611  1.00  0.00    -0.326 N 
HETATM   17  H   UNL     1     -44.499  56.780 -55.943  1.00  0.00     0.169 HD
HETATM   18  O   UNL     1     -42.485  59.098 -56.789  1.00  0.00    -0.272 OA
BRANCH  16  19
HETATM   19  C   UNL     1     -44.091  56.908 -57.962  1.00  0.00     0.034 A 
HETATM   20  C   UNL     1     -44.928  57.582 -58.854  1.00  0.00     0.029 A 
HETATM   21  C   UNL     1     -45.045  57.153 -60.180  1.00  0.00     0.002 A 
HETATM   22  C   UNL     1     -44.324  56.051 -60.627  1.00  0.00     0.000 A 
HETATM   23  C   UNL     1     -43.483  55.373 -59.747  1.00  0.00     0.002 A 
HETATM   24  C   UNL     1     -43.368  55.800 -58.421  1.00  0.00     0.029 A 
ENDBRANCH  16  19
ENDBRANCH  13  15
ENDBRANCH  12  13
ENDBRANCH   6  12
BRANCH   1  25
HETATM   25  O   UNL     1     -39.188  51.391 -52.739  1.00  0.00    -0.351 OA
BRANCH  25  26
HETATM   26  C   UNL     1     -39.660  50.071 -52.469  1.00  0.00     0.171 C 
HETATM   27  C   UNL     1     -39.402  49.772 -51.003  1.00  0.00     0.034 C 
ENDBRANCH  25  26
ENDBRANCH   1  25
TORSDOF 6
ENDMDL
MODEL 5
REMARK VINA RESULT:      -7.5      2.461      7.449
REMARK  6 active torsions:
REMARK  status: ('A' for Active; 'I' for Inactive)
REMARK    1  A    between atoms: C_2  and  O_3 
REMARK    2  A    between atoms: O_3  and  C_4 
REMARK    3  A    between atoms: C_9  and  S_10 
REMARK    4  A    between atoms: S_10  and  C_11 
REMARK    5  A    between atoms: C_11  and  C_12 
REMARK       I    between atoms: C_12  and  N_13 
REMARK    6  A    between atoms: N_13  and  C_14 
ROOT
HETATM    1  C   UNL     1     -40.043  52.652 -52.518  1.00  0.00     0.069 A 
HETATM    2  C   UNL     1     -40.315  52.946 -53.853  1.00  0.00     0.050 A 
HETATM    3  C   UNL     1     -41.253  53.943 -54.187  1.00  0.00    -0.004 A 
HETATM    4  C   UNL     1     -41.915  54.666 -53.179  1.00  0.00     0.068 A 
HETATM    5  N   UNL     1     -42.828  55.612 -53.452  1.00  0.00    -0.241 NA
HETATM    6  C   UNL     1     -43.170  55.841 -54.742  1.00  0.00     0.100 A 
HETATM    7  C   UNL     1     -42.551  55.202 -55.816  1.00  0.00    -0.026 A 
HETATM    8  C   UNL     1     -42.895  55.491 -57.247  1.00  0.00     0.051 C 
HETATM    9  C   UNL     1     -41.574  54.244 -55.517  1.00  0.00     0.023 A 
HETATM   10  C   UNL     1     -41.609  54.378 -51.858  1.00  0.00     0.035 A 
HETATM   11  C   UNL     1     -40.685  53.384 -51.523  1.00  0.00     0.039 A 
ENDROOT
BRANCH   6  12
HETATM   12  S   UNL     1     -44.519  56.984 -54.966  1.00  0.00    -0.096 SA
BRANCH  12  13
HETATM   13  C   UNL     1     -43.660  58.461 -55.633  1.00  0.00     0.142 C 
HETATM   14  C   UNL     1     -44.589  59.522 -56.209  1.00  0.00     0.031 C 
BRANCH  13  15
HETATM   15  C   UNL     1     -42.609  58.978 -54.643  1.00  0.00     0.236 C 
HETATM   16  N   UNL     1     -42.886  58.720 -53.311  1.00  0.00    -0.326 N 
HETATM   17  H   UNL     1     -43.695  58.138 -53.119  1.00  0.00     0.169 HD
HETATM   18  O   UNL     1     -41.598  59.537 -55.065  1.00  0.00    -0.272 OA
BRANCH  16  19
HETATM   19  C   UNL     1     -42.105  59.067 -52.189  1.00  0.00     0.034 A 
HETATM   20  C   UNL     1     -42.390  60.136 -51.337  1.00  0.00     0.029 A 
HETATM   21  C   UNL     1     -41.563  60.413 -50.244  1.00  0.00     0.002 A 
HETATM   22  C   UNL     1     -40.447  59.622 -49.990  1.00  0.00     0.000 A 
HETATM   23  C   UNL     1     -40.155  58.551 -50.830  1.00  0.00     0.002 A 
HETATM   24  C   UNL     1     -40.980  58.275 -51.925  1.00  0.00     0.029 A 
ENDBRANCH  16  19
ENDBRANCH  13  15
ENDBRANCH  12  13
ENDBRANCH   6  12
BRANCH   1  25
HETATM   25  O   UNL     1     -39.184  51.694 -52.062  1.00  0.00    -0.351 OA
BRANCH  25  26
HETATM   26  C   UNL     1     -39.613  50.336 -52.162  1.00  0.00     0.171 C 
HETATM   27  C   UNL     1     -39.697  49.767 -50.757  1.00  0.00     0.034 C 
ENDBRANCH  25  26
ENDBRANCH   1  25
TORSDOF 6
ENDMDL
MODEL 6
REMARK VINA RESULT:      -7.3      2.975      7.344
REMARK  6 active torsions:
REMARK  status: ('A' for Active; 'I' for Inactive)
REMARK    1  A    between atoms: C_2  and  O_3 
REMARK    2  A    between atoms: O_3  and  C_4 
REMARK    3  A    between atoms: C_9  and  S_10 
REMARK    4  A    between atoms: S_10  and  C_11 
REMARK    5  A    between atoms: C_11  and  C_12 
REMARK       I    between atoms: C_12  and  N_13 
REMARK    6  A    between atoms: N_13  and  C_14 
ROOT
HETATM    1  C   UNL     1     -40.394  52.764 -53.125  1.00  0.00     0.069 A 
HETATM    2  C   UNL     1     -41.399  53.587 -52.618  1.00  0.00     0.050 A 
HETATM    3  C   UNL     1     -42.012  54.553 -53.441  1.00  0.00    -0.004 A 
HETATM    4  C   UNL     1     -41.631  54.690 -54.787  1.00  0.00     0.068 A 
HETATM    5  N   UNL     1     -42.175  55.608 -55.601  1.00  0.00    -0.241 NA
HETATM    6  C   UNL     1     -43.085  56.475 -55.096  1.00  0.00     0.100 A 
HETATM    7  C   UNL     1     -43.553  56.404 -53.785  1.00  0.00    -0.026 A 
HETATM    8  C   UNL     1     -44.596  57.334 -53.240  1.00  0.00     0.051 C 
HETATM    9  C   UNL     1     -43.002  55.417 -52.958  1.00  0.00     0.023 A 
HETATM   10  C   UNL     1     -40.650  53.842 -55.279  1.00  0.00     0.035 A 
HETATM   11  C   UNL     1     -40.034  52.888 -54.464  1.00  0.00     0.039 A 
ENDROOT
BRANCH   6  12
HETATM   12  S   UNL     1     -43.597  57.759 -56.221  1.00  0.00    -0.096 SA
BRANCH  12  13
HETATM   13  C   UNL     1     -42.142  58.877 -56.210  1.00  0.00     0.142 C 
HETATM   14  C   UNL     1     -42.070  59.825 -57.400  1.00  0.00     0.031 C 
BRANCH  13  15
HETATM   15  C   UNL     1     -41.968  59.535 -54.836  1.00  0.00     0.236 C 
HETATM   16  N   UNL     1     -41.245  58.792 -53.920  1.00  0.00    -0.326 N 
HETATM   17  H   UNL     1     -40.819  57.936 -54.263  1.00  0.00     0.169 HD
HETATM   18  O   UNL     1     -42.427  60.659 -54.638  1.00  0.00    -0.272 OA
BRANCH  16  19
HETATM   19  C   UNL     1     -40.923  59.143 -52.593  1.00  0.00     0.034 A 
HETATM   20  C   UNL     1     -41.852  59.600 -51.656  1.00  0.00     0.029 A 
HETATM   21  C   UNL     1     -41.449  59.927 -50.357  1.00  0.00     0.002 A 
HETATM   22  C   UNL     1     -40.116  59.796 -49.982  1.00  0.00     0.000 A 
HETATM   23  C   UNL     1     -39.180  59.338 -50.906  1.00  0.00     0.002 A 
HETATM   24  C   UNL     1     -39.582  59.013 -52.205  1.00  0.00     0.029 A 
ENDBRANCH  16  19
ENDBRANCH  13  15
ENDBRANCH  12  13
ENDBRANCH   6  12
BRANCH   1  25
HETATM   25  O   UNL     1     -39.702  51.814 -52.430  1.00  0.00    -0.351 OA
BRANCH  25  26
HETATM   26  C   UNL     1     -39.998  51.683 -51.039  1.00  0.00     0.171 C 
HETATM   27  C   UNL     1     -39.865  50.218 -50.668  1.00  0.00     0.034 C 
ENDBRANCH  25  26
ENDBRANCH   1  25
TORSDOF 6
ENDMDL
MODEL 7
REMARK VINA RESULT:      -7.2      4.552      8.519
REMARK  6 active torsions:
REMARK  status: ('A' for Active; 'I' for Inactive)
REMARK    1  A    between atoms: C_2  and  O_3 
REMARK    2  A    between atoms: O_3  and  C_4 
REMARK    3  A    between atoms: C_9  and  S_10 
REMARK    4  A    between atoms: S_10  and  C_11 
REMARK    5  A    between atoms: C_11  and  C_12 
REMARK       I    between atoms: C_12  and  N_13 
REMARK    6  A    between atoms: N_13  and  C_14 
ROOT
HETATM    1  C   UNL     1     -40.128  52.699 -52.976  1.00  0.00     0.069 A 
HETATM    2  C   UNL     1     -40.536  53.510 -54.034  1.00  0.00     0.050 A 
HETATM    3  C   UNL     1     -41.454  54.557 -53.817  1.00  0.00    -0.004 A 
HETATM    4  C   UNL     1     -41.958  54.809 -52.529  1.00  0.00     0.068 A 
HETATM    5  N   UNL     1     -42.847  55.783 -52.281  1.00  0.00    -0.241 NA
HETATM    6  C   UNL     1     -43.322  56.517 -53.315  1.00  0.00     0.100 A 
HETATM    7  C   UNL     1     -42.863  56.369 -54.623  1.00  0.00    -0.026 A 
HETATM    8  C   UNL     1     -43.354  57.214 -55.761  1.00  0.00     0.051 C 
HETATM    9  C   UNL     1     -41.909  55.372 -54.861  1.00  0.00     0.023 A 
HETATM   10  C   UNL     1     -41.518  54.009 -51.485  1.00  0.00     0.035 A 
HETATM   11  C   UNL     1     -40.613  52.964 -51.698  1.00  0.00     0.039 A 
ENDROOT
BRANCH   6  12
HETATM   12  S   UNL     1     -44.628  57.652 -52.888  1.00  0.00    -0.096 SA
BRANCH  12  13
HETATM   13  C   UNL     1     -43.963  58.442 -51.371  1.00  0.00     0.142 C 
HETATM   14  C   UNL     1     -42.738  59.317 -51.603  1.00  0.00     0.031 C 
BRANCH  13  15
HETATM   15  C   UNL     1     -45.087  59.092 -50.556  1.00  0.00     0.236 C 
HETATM   16  N   UNL     1     -44.710  60.206 -49.825  1.00  0.00    -0.326 N 
HETATM   17  H   UNL     1     -43.763  60.544 -49.968  1.00  0.00     0.169 HD
HETATM   18  O   UNL     1     -46.227  58.635 -50.619  1.00  0.00    -0.272 OA
BRANCH  16  19
HETATM   19  C   UNL     1     -45.523  61.005 -48.995  1.00  0.00     0.034 A 
HETATM   20  C   UNL     1     -46.261  62.102 -49.444  1.00  0.00     0.029 A 
HETATM   21  C   UNL     1     -47.045  62.843 -48.554  1.00  0.00     0.002 A 
HETATM   22  C   UNL     1     -47.102  62.492 -47.209  1.00  0.00     0.000 A 
HETATM   23  C   UNL     1     -46.373  61.397 -46.750  1.00  0.00     0.002 A 
HETATM   24  C   UNL     1     -45.588  60.658 -47.639  1.00  0.00     0.029 A 
ENDBRANCH  16  19
ENDBRANCH  13  15
ENDBRANCH  12  13
ENDBRANCH   6  12
BRANCH   1  25
HETATM   25  O   UNL     1     -39.272  51.638 -53.056  1.00  0.00    -0.351 OA
BRANCH  25  26
HETATM   26  C   UNL     1     -39.855  50.340 -53.168  1.00  0.00     0.171 C 
HETATM   27  C   UNL     1     -39.777  49.915 -54.623  1.00  0.00     0.034 C 
ENDBRANCH  25  26
ENDBRANCH   1  25
TORSDOF 6
ENDMDL
MODEL 8
REMARK VINA RESULT:      -7.0      3.451      8.534
REMARK  6 active torsions:
REMARK  status: ('A' for Active; 'I' for Inactive)
REMARK    1  A    between atoms: C_2  and  O_3 
REMARK    2  A    between atoms: O_3  and  C_4 
REMARK    3  A    between atoms: C_9  and  S_10 
REMARK    4  A    between atoms: S_10  and  C_11 
REMARK    5  A    between atoms: C_11  and  C_12 
REMARK       I    between atoms: C_12  and  N_13 
REMARK    6  A    between atoms: N_13  and  C_14 
ROOT
HETATM    1  C   UNL     1     -40.357  52.635 -53.200  1.00  0.00     0.069 A 
HETATM    2  C   UNL     1     -40.923  53.563 -52.327  1.00  0.00     0.050 A 
HETATM    3  C   UNL     1     -41.184  54.879 -52.757  1.00  0.00    -0.004 A 
HETATM    4  C   UNL     1     -40.891  55.271 -54.075  1.00  0.00     0.068 A 
HETATM    5  N   UNL     1     -41.106  56.519 -54.520  1.00  0.00    -0.241 NA
HETATM    6  C   UNL     1     -41.568  57.454 -53.656  1.00  0.00     0.100 A 
HETATM    7  C   UNL     1     -41.920  57.161 -52.339  1.00  0.00    -0.026 A 
HETATM    8  C   UNL     1     -42.477  58.185 -51.396  1.00  0.00     0.051 C 
HETATM    9  C   UNL     1     -41.724  55.846 -51.899  1.00  0.00     0.023 A 
HETATM   10  C   UNL     1     -40.354  54.325 -54.935  1.00  0.00     0.035 A 
HETATM   11  C   UNL     1     -40.087  53.021 -54.510  1.00  0.00     0.039 A 
ENDROOT
BRANCH   6  12
HETATM   12  S   UNL     1     -41.639  59.108 -54.314  1.00  0.00    -0.096 SA
BRANCH  12  13
HETATM   13  C   UNL     1     -42.897  58.938 -55.638  1.00  0.00     0.142 C 
HETATM   14  C   UNL     1     -44.226  59.619 -55.333  1.00  0.00     0.031 C 
BRANCH  13  15
HETATM   15  C   UNL     1     -42.295  59.261 -57.010  1.00  0.00     0.236 C 
HETATM   16  N   UNL     1     -42.241  60.608 -57.322  1.00  0.00    -0.326 N 
HETATM   17  H   UNL     1     -42.510  61.257 -56.588  1.00  0.00     0.169 HD
HETATM   18  O   UNL     1     -41.873  58.349 -57.719  1.00  0.00    -0.272 OA
BRANCH  16  19
HETATM   19  C   UNL     1     -41.737  61.198 -58.500  1.00  0.00     0.034 A 
HETATM   20  C   UNL     1     -42.317  61.046 -59.761  1.00  0.00     0.029 A 
HETATM   21  C   UNL     1     -41.754  61.666 -60.881  1.00  0.00     0.002 A 
HETATM   22  C   UNL     1     -40.610  62.447 -60.750  1.00  0.00     0.000 A 
HETATM   23  C   UNL     1     -40.025  62.609 -59.496  1.00  0.00     0.002 A 
HETATM   24  C   UNL     1     -40.586  61.987 -58.377  1.00  0.00     0.029 A 
ENDBRANCH  16  19
ENDBRANCH  13  15
ENDBRANCH  12  13
ENDBRANCH   6  12
BRANCH   1  25
HETATM   25  O   UNL     1     -40.028  51.343 -52.902  1.00  0.00    -0.351 OA
BRANCH  25  26
HETATM   26  C   UNL     1     -39.416  51.105 -51.634  1.00  0.00     0.171 C 
HETATM   27  C   UNL     1     -39.647  49.650 -51.269  1.00  0.00     0.034 C 
ENDBRANCH  25  26
ENDBRANCH   1  25
TORSDOF 6
ENDMDL
MODEL 9
REMARK VINA RESULT:      -7.0      2.709      8.227
REMARK  6 active torsions:
REMARK  status: ('A' for Active; 'I' for Inactive)
REMARK    1  A    between atoms: C_2  and  O_3 
REMARK    2  A    between atoms: O_3  and  C_4 
REMARK    3  A    between atoms: C_9  and  S_10 
REMARK    4  A    between atoms: S_10  and  C_11 
REMARK    5  A    between atoms: C_11  and  C_12 
REMARK       I    between atoms: C_12  and  N_13 
REMARK    6  A    between atoms: N_13  and  C_14 
ROOT
HETATM    1  C   UNL     1     -39.901  52.354 -52.426  1.00  0.00     0.069 A 
HETATM    2  C   UNL     1     -40.224  52.706 -53.735  1.00  0.00     0.050 A 
HETATM    3  C   UNL     1     -41.115  53.768 -53.989  1.00  0.00    -0.004 A 
HETATM    4  C   UNL     1     -41.677  54.498 -52.926  1.00  0.00     0.068 A 
HETATM    5  N   UNL     1     -42.543  55.504 -53.122  1.00  0.00    -0.241 NA
HETATM    6  C   UNL     1     -42.937  55.795 -54.385  1.00  0.00     0.100 A 
HETATM    7  C   UNL     1     -42.416  55.154 -55.508  1.00  0.00    -0.026 A 
HETATM    8  C   UNL     1     -42.817  55.509 -56.909  1.00  0.00     0.051 C 
HETATM    9  C   UNL     1     -41.486  54.130 -55.290  1.00  0.00     0.023 A 
HETATM   10  C   UNL     1     -41.320  54.150 -51.632  1.00  0.00     0.035 A 
HETATM   11  C   UNL     1     -40.443  53.091 -51.377  1.00  0.00     0.039 A 
ENDROOT
BRANCH   6  12
HETATM   12  S   UNL     1     -44.223  57.023 -54.501  1.00  0.00    -0.096 SA
BRANCH  12  13
HETATM   13  C   UNL     1     -43.264  58.543 -54.874  1.00  0.00     0.142 C 
HETATM   14  C   UNL     1     -41.847  58.544 -54.316  1.00  0.00     0.031 C 
BRANCH  13  15
HETATM   15  C   UNL     1     -43.385  58.916 -56.356  1.00  0.00     0.236 C 
HETATM   16  N   UNL     1     -42.231  59.426 -56.926  1.00  0.00    -0.326 N 
HETATM   17  H   UNL     1     -41.396  59.417 -56.348  1.00  0.00     0.169 HD
HETATM   18  O   UNL     1     -44.444  58.716 -56.949  1.00  0.00    -0.272 OA
BRANCH  16  19
HETATM   19  C   UNL     1     -42.044  59.845 -58.259  1.00  0.00     0.034 A 
HETATM   20  C   UNL     1     -42.397  59.084 -59.376  1.00  0.00     0.029 A 
HETATM   21  C   UNL     1     -42.178  59.575 -60.667  1.00  0.00     0.002 A 
HETATM   22  C   UNL     1     -41.609  60.831 -60.854  1.00  0.00     0.000 A 
HETATM   23  C   UNL     1     -41.257  61.600 -59.748  1.00  0.00     0.002 A 
HETATM   24  C   UNL     1     -41.473  61.109 -58.457  1.00  0.00     0.029 A 
ENDBRANCH  16  19
ENDBRANCH  13  15
ENDBRANCH  12  13
ENDBRANCH   6  12
BRANCH   1  25
HETATM   25  O   UNL     1     -39.080  51.332 -52.045  1.00  0.00    -0.351 OA
BRANCH  25  26
HETATM   26  C   UNL     1     -39.577  50.004 -52.210  1.00  0.00     0.171 C 
HETATM   27  C   UNL     1     -39.902  49.452 -50.834  1.00  0.00     0.034 C 
ENDBRANCH  25  26
ENDBRANCH   1  25
TORSDOF 6
ENDMDL
MODEL 10
REMARK VINA RESULT:      -6.8     13.813     16.456
REMARK  6 active torsions:
REMARK  status: ('A' for Active; 'I' for Inactive)
REMARK    1  A    between atoms: C_2  and  O_3 
REMARK    2  A    between atoms: O_3  and  C_4 
REMARK    3  A    between atoms: C_9  and  S_10 
REMARK    4  A    between atoms: S_10  and  C_11 
REMARK    5  A    between atoms: C_11  and  C_12 
REMARK       I    between atoms: C_12  and  N_13 
REMARK    6  A    between atoms: N_13  and  C_14 
ROOT
HETATM    1  C   UNL     1     -35.921  42.062 -53.550  1.00  0.00     0.069 A 
HETATM    2  C   UNL     1     -35.988  42.583 -54.841  1.00  0.00     0.050 A 
HETATM    3  C   UNL     1     -36.589  41.843 -55.879  1.00  0.00    -0.004 A 
HETATM    4  C   UNL     1     -37.144  40.577 -55.624  1.00  0.00     0.068 A 
HETATM    5  N   UNL     1     -37.709  39.831 -56.586  1.00  0.00    -0.241 NA
HETATM    6  C   UNL     1     -37.697  40.285 -57.862  1.00  0.00     0.100 A 
HETATM    7  C   UNL     1     -37.201  41.540 -58.214  1.00  0.00    -0.026 A 
HETATM    8  C   UNL     1     -37.232  42.063 -59.620  1.00  0.00     0.051 C 
HETATM    9  C   UNL     1     -36.647  42.322 -57.194  1.00  0.00     0.023 A 
HETATM   10  C   UNL     1     -37.092  40.088 -54.327  1.00  0.00     0.035 A 
HETATM   11  C   UNL     1     -36.489  40.816 -53.297  1.00  0.00     0.039 A 
ENDROOT
BRANCH   6  12
HETATM   12  S   UNL     1     -38.311  39.130 -59.072  1.00  0.00    -0.096 SA
BRANCH  12  13
HETATM   13  C   UNL     1     -36.790  38.207 -59.522  1.00  0.00     0.142 C 
HETATM   14  C   UNL     1     -36.081  38.733 -60.763  1.00  0.00     0.031 C 
BRANCH  13  15
HETATM   15  C   UNL     1     -35.895  37.997 -58.295  1.00  0.00     0.236 C 
HETATM   16  N   UNL     1     -34.846  38.892 -58.177  1.00  0.00    -0.326 N 
HETATM   17  H   UNL     1     -34.821  39.655 -58.847  1.00  0.00     0.169 HD
HETATM   18  O   UNL     1     -36.164  37.105 -57.491  1.00  0.00    -0.272 OA
BRANCH  16  19
HETATM   19  C   UNL     1     -33.873  38.946 -57.157  1.00  0.00     0.034 A 
HETATM   20  C   UNL     1     -33.132  37.844 -56.724  1.00  0.00     0.029 A 
HETATM   21  C   UNL     1     -32.183  37.983 -55.706  1.00  0.00     0.002 A 
HETATM   22  C   UNL     1     -31.964  39.223 -55.115  1.00  0.00     0.000 A 
HETATM   23  C   UNL     1     -32.695  40.330 -55.541  1.00  0.00     0.002 A 
HETATM   24  C   UNL     1     -33.644  40.191 -56.557  1.00  0.00     0.029 A 
ENDBRANCH  16  19
ENDBRANCH  13  15
ENDBRANCH  12  13
ENDBRANCH   6  12
BRANCH   1  25
HETATM   25  O   UNL     1     -35.342  42.660 -52.468  1.00  0.00    -0.351 OA
BRANCH  25  26
HETATM   26  C   UNL     1     -34.946  41.810 -51.391  1.00  0.00     0.171 C 
HETATM   27  C   UNL     1     -33.524  41.350 -51.656  1.00  0.00     0.034 C 
ENDBRANCH  25  26
ENDBRANCH   1  25
TORSDOF 6
ENDMDL
