MODEL 1
REMARK VINA RESULT:      -9.0      0.000      0.000
REMARK  6 active torsions:
REMARK  status: ('A' for Active; 'I' for Inactive)
REMARK    1  A    between atoms: C_2  and  C_3 
REMARK    2  A    between atoms: C_3  and  C_4 
REMARK    3  A    between atoms: C_3  and  C_10 
REMARK    4  A    between atoms: C_10  and  C_11 
REMARK       I    between atoms: C_11  and  N_12 
REMARK    5  A    between atoms: N_12  and  C_13 
REMARK    6  A    between atoms: C_20  and  C_21 
REMARK       I    between atoms: C_21  and  N_22 
ROOT
HETATM    1  C   UNL     1     -42.502  56.182 -56.843  1.00  0.00     0.035 A 
HETATM    2  C   UNL     1     -43.119  55.588 -57.953  1.00  0.00     0.046 A 
HETATM    3  C   UNL     1     -44.088  56.312 -58.684  1.00  0.00     0.030 A 
HETATM    4  C   UNL     1     -44.399  57.606 -58.284  1.00  0.00     0.063 A 
HETATM    5  N   UNL     1     -45.347  58.041 -59.168  1.00  0.00    -0.277 N 
HETATM    6  H   UNL     1     -45.806  58.945 -59.181  1.00  0.00     0.189 HD
HETATM    7  N   UNL     1     -45.688  57.142 -60.106  1.00  0.00    -0.168 NA
HETATM    8  C   UNL     1     -44.918  56.067 -59.819  1.00  0.00     0.156 A 
HETATM    9  C   UNL     1     -43.803  58.230 -57.187  1.00  0.00     0.034 A 
HETATM   10  C   UNL     1     -42.852  57.489 -56.475  1.00  0.00     0.032 A 
ENDROOT
BRANCH   1  11
HETATM   11  N   UNL     1     -41.544  55.533 -56.037  1.00  0.00    -0.327 N 
HETATM   12  C   UNL     1     -41.741  54.453 -55.195  1.00  0.00     0.222 C 
HETATM   13  O   UNL     1     -42.774  53.812 -55.049  1.00  0.00    -0.273 OA
HETATM   14  H   UNL     1     -40.600  55.892 -56.097  1.00  0.00     0.169 HD
BRANCH  12  15
HETATM   15  C   UNL     1     -40.502  54.112 -54.385  1.00  0.00     0.112 C 
BRANCH  15  16
HETATM   16  C   UNL     1     -40.789  52.997 -53.361  1.00  0.00     0.027 C 
BRANCH  16  17
HETATM   17  C   UNL     1     -39.791  51.817 -53.424  1.00  0.00     0.005 C 
HETATM   18  C   UNL     1     -40.186  50.663 -54.336  1.00  0.00     0.006 C 
ENDBRANCH  16  17
BRANCH  16  19
HETATM   19  C   UNL     1     -40.947  53.520 -51.938  1.00  0.00    -0.054 A 
HETATM   20  C   UNL     1     -42.135  54.107 -51.477  1.00  0.00     0.007 A 
HETATM   21  C   UNL     1     -42.234  54.583 -50.167  1.00  0.00     0.001 A 
HETATM   22  C   UNL     1     -41.149  54.482 -49.301  1.00  0.00     0.000 A 
HETATM   23  C   UNL     1     -39.959  53.911 -49.745  1.00  0.00     0.001 A 
HETATM   24  C   UNL     1     -39.858  53.436 -51.054  1.00  0.00     0.007 A 
ENDBRANCH  16  19
ENDBRANCH  15  16
ENDBRANCH  12  15
ENDBRANCH   1  11
BRANCH   8  25
HETATM   25  C   UNL     1     -44.996  54.841 -60.626  1.00  0.00     0.270 C 
HETATM   26  N   UNL     1     -45.172  53.699 -59.892  1.00  0.00    -0.365 N 
HETATM   27  H   UNL     1     -45.229  53.776 -58.883  1.00  0.00     0.159 HD
HETATM   28  H   UNL     1     -45.230  52.810 -60.360  1.00  0.00     0.159 HD
HETATM   29  O   UNL     1     -44.912  54.801 -61.849  1.00  0.00    -0.266 OA
ENDBRANCH   8  25
TORSDOF 6
ENDMDL
MODEL 2
REMARK VINA RESULT:      -8.5      1.476      2.859
REMARK  6 active torsions:
REMARK  status: ('A' for Active; 'I' for Inactive)
REMARK    1  A    between atoms: C_2  and  C_3 
REMARK    2  A    between atoms: C_3  and  C_4 
REMARK    3  A    between atoms: C_3  and  C_10 
REMARK    4  A    between atoms: C_10  and  C_11 
REMARK       I    between atoms: C_11  and  N_12 
REMARK    5  A    between atoms: N_12  and  C_13 
REMARK    6  A    between atoms: C_20  and  C_21 
REMARK       I    between atoms: C_21  and  N_22 
ROOT
HETATM    1  C   UNL     1     -42.828  55.697 -56.315  1.00  0.00     0.035 A 
HETATM    2  C   UNL     1     -43.424  55.221 -57.492  1.00  0.00     0.046 A 
HETATM    3  C   UNL     1     -43.455  56.044 -58.640  1.00  0.00     0.030 A 
HETATM    4  C   UNL     1     -42.883  57.308 -58.574  1.00  0.00     0.063 A 
HETATM    5  N   UNL     1     -43.062  57.854 -59.814  1.00  0.00    -0.277 N 
HETATM    6  H   UNL     1     -42.769  58.771 -60.131  1.00  0.00     0.189 HD
HETATM    7  N   UNL     1     -43.708  57.059 -60.684  1.00  0.00    -0.168 NA
HETATM    8  C   UNL     1     -43.959  55.936 -59.971  1.00  0.00     0.156 A 
HETATM    9  C   UNL     1     -42.279  57.813 -57.422  1.00  0.00     0.034 A 
HETATM   10  C   UNL     1     -42.267  56.982 -56.295  1.00  0.00     0.032 A 
ENDROOT
BRANCH   1  11
HETATM   11  N   UNL     1     -42.770  54.963 -55.112  1.00  0.00    -0.327 N 
HETATM   12  C   UNL     1     -43.262  55.332 -53.872  1.00  0.00     0.222 C 
HETATM   13  O   UNL     1     -43.906  56.339 -53.606  1.00  0.00    -0.273 OA
HETATM   14  H   UNL     1     -42.332  54.053 -55.171  1.00  0.00     0.169 HD
BRANCH  12  15
HETATM   15  C   UNL     1     -42.895  54.341 -52.781  1.00  0.00     0.112 C 
BRANCH  15  16
HETATM   16  C   UNL     1     -41.376  54.325 -52.523  1.00  0.00     0.027 C 
BRANCH  16  17
HETATM   17  C   UNL     1     -40.975  54.836 -51.120  1.00  0.00     0.005 C 
HETATM   18  C   UNL     1     -41.635  56.135 -50.673  1.00  0.00     0.006 C 
ENDBRANCH  16  17
BRANCH  16  19
HETATM   19  C   UNL     1     -40.732  52.980 -52.834  1.00  0.00    -0.054 A 
HETATM   20  C   UNL     1     -40.826  52.371 -54.095  1.00  0.00     0.007 A 
HETATM   21  C   UNL     1     -40.228  51.131 -54.334  1.00  0.00     0.001 A 
HETATM   22  C   UNL     1     -39.532  50.481 -53.319  1.00  0.00     0.000 A 
HETATM   23  C   UNL     1     -39.437  51.067 -52.060  1.00  0.00     0.001 A 
HETATM   24  C   UNL     1     -40.035  52.305 -51.818  1.00  0.00     0.007 A 
ENDBRANCH  16  19
ENDBRANCH  15  16
ENDBRANCH  12  15
ENDBRANCH   1  11
BRANCH   8  25
HETATM   25  C   UNL     1     -44.670  54.799 -60.573  1.00  0.00     0.270 C 
HETATM   26  N   UNL     1     -45.088  53.860 -59.669  1.00  0.00    -0.365 N 
HETATM   27  H   UNL     1     -44.881  54.006 -58.688  1.00  0.00     0.159 HD
HETATM   28  H   UNL     1     -45.579  53.042 -59.991  1.00  0.00     0.159 HD
HETATM   29  O   UNL     1     -44.888  54.665 -61.772  1.00  0.00    -0.266 OA
ENDBRANCH   8  25
TORSDOF 6
ENDMDL
MODEL 3
REMARK VINA RESULT:      -8.4      1.935      3.355
REMARK  6 active torsions:
REMARK  status: ('A' for Active; 'I' for Inactive)
REMARK    1  A    between atoms: C_2  and  C_3 
REMARK    2  A    between atoms: C_3  and  C_4 
REMARK    3  A    between atoms: C_3  and  C_10 
REMARK    4  A    between atoms: C_10  and  C_11 
REMARK       I    between atoms: C_11  and  N_12 
REMARK    5  A    between atoms: N_12  and  C_13 
REMARK    6  A    between atoms: C_20  and  C_21 
REMARK       I    between atoms: C_21  and  N_22 
ROOT
HETATM    1  C   UNL     1     -43.489  56.275 -55.020  1.00  0.00     0.035 A 
HETATM    2  C   UNL     1     -43.127  56.119 -56.366  1.00  0.00     0.046 A 
HETATM    3  C   UNL     1     -43.536  57.084 -57.314  1.00  0.00     0.030 A 
HETATM    4  C   UNL     1     -44.285  58.172 -56.882  1.00  0.00     0.063 A 
HETATM    5  N   UNL     1     -44.523  58.917 -58.003  1.00  0.00    -0.277 N 
HETATM    6  H   UNL     1     -45.041  59.786 -58.065  1.00  0.00     0.189 HD
HETATM    7  N   UNL     1     -44.001  58.407 -59.131  1.00  0.00    -0.168 NA
HETATM    8  C   UNL     1     -43.388  57.272 -58.721  1.00  0.00     0.156 A 
HETATM    9  C   UNL     1     -44.660  58.360 -55.551  1.00  0.00     0.034 A 
HETATM   10  C   UNL     1     -44.249  57.387 -54.632  1.00  0.00     0.032 A 
ENDROOT
BRANCH   1  11
HETATM   11  N   UNL     1     -43.151  55.355 -54.005  1.00  0.00    -0.327 N 
HETATM   12  C   UNL     1     -41.937  55.223 -53.354  1.00  0.00     0.222 C 
HETATM   13  O   UNL     1     -40.948  55.933 -53.490  1.00  0.00    -0.273 OA
HETATM   14  H   UNL     1     -43.891  54.731 -53.709  1.00  0.00     0.169 HD
BRANCH  12  15
HETATM   15  C   UNL     1     -41.906  54.032 -52.413  1.00  0.00     0.112 C 
BRANCH  15  16
HETATM   16  C   UNL     1     -40.462  53.588 -52.112  1.00  0.00     0.027 C 
BRANCH  16  17
HETATM   17  C   UNL     1     -40.056  53.743 -50.628  1.00  0.00     0.005 C 
HETATM   18  C   UNL     1     -40.482  55.042 -49.956  1.00  0.00     0.006 C 
ENDBRANCH  16  17
BRANCH  16  19
HETATM   19  C   UNL     1     -40.144  52.193 -52.636  1.00  0.00    -0.054 A 
HETATM   20  C   UNL     1     -40.265  51.851 -53.992  1.00  0.00     0.007 A 
HETATM   21  C   UNL     1     -39.973  50.555 -54.428  1.00  0.00     0.001 A 
HETATM   22  C   UNL     1     -39.560  49.585 -53.519  1.00  0.00     0.000 A 
HETATM   23  C   UNL     1     -39.444  49.907 -52.169  1.00  0.00     0.001 A 
HETATM   24  C   UNL     1     -39.737  51.199 -51.731  1.00  0.00     0.007 A 
ENDBRANCH  16  19
ENDBRANCH  15  16
ENDBRANCH  12  15
ENDBRANCH   1  11
BRANCH   8  25
HETATM   25  C   UNL     1     -42.687  56.402 -59.675  1.00  0.00     0.270 C 
HETATM   26  N   UNL     1     -41.459  56.870 -60.060  1.00  0.00    -0.365 N 
HETATM   27  H   UNL     1     -41.136  57.751 -59.679  1.00  0.00     0.159 HD
HETATM   28  H   UNL     1     -40.909  56.342 -60.718  1.00  0.00     0.159 HD
HETATM   29  O   UNL     1     -43.128  55.345 -60.114  1.00  0.00    -0.266 OA
ENDBRANCH   8  25
TORSDOF 6
ENDMDL
MODEL 4
REMARK VINA RESULT:      -8.1      2.508      4.249
REMARK  6 active torsions:
REMARK  status: ('A' for Active; 'I' for Inactive)
REMARK    1  A    between atoms: C_2  and  C_3 
REMARK    2  A    between atoms: C_3  and  C_4 
REMARK    3  A    between atoms: C_3  and  C_10 
REMARK    4  A    between atoms: C_10  and  C_11 
REMARK       I    between atoms: C_11  and  N_12 
REMARK    5  A    between atoms: N_12  and  C_13 
REMARK    6  A    between atoms: C_20  and  C_21 
REMARK       I    between atoms: C_21  and  N_22 
ROOT
HETATM    1  C   UNL     1     -42.731  56.029 -56.915  1.00  0.00     0.035 A 
HETATM    2  C   UNL     1     -42.402  57.392 -56.937  1.00  0.00     0.046 A 
HETATM    3  C   UNL     1     -42.429  58.097 -58.161  1.00  0.00     0.030 A 
HETATM    4  C   UNL     1     -42.792  57.418 -59.317  1.00  0.00     0.063 A 
HETATM    5  N   UNL     1     -42.729  58.346 -60.318  1.00  0.00    -0.277 N 
HETATM    6  H   UNL     1     -42.931  58.204 -61.302  1.00  0.00     0.189 HD
HETATM    7  N   UNL     1     -42.350  59.571 -59.919  1.00  0.00    -0.168 NA
HETATM    8  C   UNL     1     -42.160  59.433 -58.586  1.00  0.00     0.156 A 
HETATM    9  C   UNL     1     -43.129  56.064 -59.333  1.00  0.00     0.034 A 
HETATM   10  C   UNL     1     -43.088  55.385 -58.109  1.00  0.00     0.032 A 
ENDROOT
BRANCH   1  11
HETATM   11  N   UNL     1     -42.709  55.234 -55.750  1.00  0.00    -0.327 N 
HETATM   12  C   UNL     1     -41.603  54.834 -55.022  1.00  0.00     0.222 C 
HETATM   13  O   UNL     1     -40.438  55.158 -55.214  1.00  0.00    -0.273 OA
HETATM   14  H   UNL     1     -43.611  54.939 -55.399  1.00  0.00     0.169 HD
BRANCH  12  15
HETATM   15  C   UNL     1     -41.959  53.872 -53.902  1.00  0.00     0.112 C 
BRANCH  15  16
HETATM   16  C   UNL     1     -40.748  53.591 -52.993  1.00  0.00     0.027 C 
BRANCH  16  17
HETATM   17  C   UNL     1     -40.923  54.098 -51.543  1.00  0.00     0.005 C 
HETATM   18  C   UNL     1     -42.355  54.373 -51.104  1.00  0.00     0.006 C 
ENDBRANCH  16  17
BRANCH  16  19
HETATM   19  C   UNL     1     -40.300  52.135 -53.027  1.00  0.00    -0.054 A 
HETATM   20  C   UNL     1     -40.334  51.362 -54.197  1.00  0.00     0.007 A 
HETATM   21  C   UNL     1     -39.924  50.026 -54.181  1.00  0.00     0.001 A 
HETATM   22  C   UNL     1     -39.478  49.444 -52.998  1.00  0.00     0.000 A 
HETATM   23  C   UNL     1     -39.446  50.195 -51.826  1.00  0.00     0.001 A 
HETATM   24  C   UNL     1     -39.857  51.529 -51.840  1.00  0.00     0.007 A 
ENDBRANCH  16  19
ENDBRANCH  15  16
ENDBRANCH  12  15
ENDBRANCH   1  11
BRANCH   8  25
HETATM   25  C   UNL     1     -41.725  60.568 -57.760  1.00  0.00     0.270 C 
HETATM   26  N   UNL     1     -42.654  60.980 -56.844  1.00  0.00    -0.365 N 
HETATM   27  H   UNL     1     -43.543  60.496 -56.804  1.00  0.00     0.159 HD
HETATM   28  H   UNL     1     -42.446  61.758 -56.239  1.00  0.00     0.159 HD
HETATM   29  O   UNL     1     -40.637  61.126 -57.855  1.00  0.00    -0.266 OA
ENDBRANCH   8  25
TORSDOF 6
ENDMDL
MODEL 5
REMARK VINA RESULT:      -8.0      4.469      6.596
REMARK  6 active torsions:
REMARK  status: ('A' for Active; 'I' for Inactive)
REMARK    1  A    between atoms: C_2  and  C_3 
REMARK    2  A    between atoms: C_3  and  C_4 
REMARK    3  A    between atoms: C_3  and  C_10 
REMARK    4  A    between atoms: C_10  and  C_11 
REMARK       I    between atoms: C_11  and  N_12 
REMARK    5  A    between atoms: N_12  and  C_13 
REMARK    6  A    between atoms: C_20  and  C_21 
REMARK       I    between atoms: C_21  and  N_22 
ROOT
HETATM    1  C   UNL     1     -43.621  56.831 -52.564  1.00  0.00     0.035 A 
HETATM    2  C   UNL     1     -43.992  57.761 -51.583  1.00  0.00     0.046 A 
HETATM    3  C   UNL     1     -44.804  58.862 -51.939  1.00  0.00     0.030 A 
HETATM    4  C   UNL     1     -45.221  58.989 -53.258  1.00  0.00     0.063 A 
HETATM    5  N   UNL     1     -45.978  60.127 -53.291  1.00  0.00    -0.277 N 
HETATM    6  H   UNL     1     -46.447  60.529 -54.095  1.00  0.00     0.189 HD
HETATM    7  N   UNL     1     -46.087  60.758 -52.111  1.00  0.00    -0.168 NA
HETATM    8  C   UNL     1     -45.365  59.988 -51.264  1.00  0.00     0.156 A 
HETATM    9  C   UNL     1     -44.873  58.081 -54.259  1.00  0.00     0.034 A 
HETATM   10  C   UNL     1     -44.062  57.003 -53.884  1.00  0.00     0.032 A 
ENDROOT
BRANCH   1  11
HETATM   11  N   UNL     1     -42.794  55.715 -52.315  1.00  0.00    -0.327 N 
HETATM   12  C   UNL     1     -41.518  55.711 -51.780  1.00  0.00     0.222 C 
HETATM   13  O   UNL     1     -40.896  56.677 -51.355  1.00  0.00    -0.273 OA
HETATM   14  H   UNL     1     -43.192  54.811 -52.538  1.00  0.00     0.169 HD
BRANCH  12  15
HETATM   15  C   UNL     1     -40.888  54.330 -51.783  1.00  0.00     0.112 C 
BRANCH  15  16
HETATM   16  C   UNL     1     -40.982  53.671 -53.173  1.00  0.00     0.027 C 
BRANCH  16  17
HETATM   17  C   UNL     1     -40.367  54.520 -54.310  1.00  0.00     0.005 C 
HETATM   18  C   UNL     1     -41.260  54.753 -55.522  1.00  0.00     0.006 C 
ENDBRANCH  16  17
BRANCH  16  19
HETATM   19  C   UNL     1     -40.456  52.242 -53.194  1.00  0.00    -0.054 A 
HETATM   20  C   UNL     1     -40.521  51.430 -54.337  1.00  0.00     0.007 A 
HETATM   21  C   UNL     1     -40.036  50.120 -54.310  1.00  0.00     0.001 A 
HETATM   22  C   UNL     1     -39.482  49.602 -53.142  1.00  0.00     0.000 A 
HETATM   23  C   UNL     1     -39.419  50.391 -51.996  1.00  0.00     0.001 A 
HETATM   24  C   UNL     1     -39.905  51.699 -52.022  1.00  0.00     0.007 A 
ENDBRANCH  16  19
ENDBRANCH  15  16
ENDBRANCH  12  15
ENDBRANCH   1  11
BRANCH   8  25
HETATM   25  C   UNL     1     -45.226  60.345 -49.845  1.00  0.00     0.270 C 
HETATM   26  N   UNL     1     -43.970  60.760 -49.494  1.00  0.00    -0.365 N 
HETATM   27  H   UNL     1     -43.252  60.785 -50.207  1.00  0.00     0.159 HD
HETATM   28  H   UNL     1     -43.780  61.019 -48.539  1.00  0.00     0.159 HD
HETATM   29  O   UNL     1     -46.129  60.288 -49.017  1.00  0.00    -0.266 OA
ENDBRANCH   8  25
TORSDOF 6
ENDMDL
MODEL 6
REMARK VINA RESULT:      -7.9      2.508      4.129
REMARK  6 active torsions:
REMARK  status: ('A' for Active; 'I' for Inactive)
REMARK    1  A    between atoms: C_2  and  C_3 
REMARK    2  A    between atoms: C_3  and  C_4 
REMARK    3  A    between atoms: C_3  and  C_10 
REMARK    4  A    between atoms: C_10  and  C_11 
REMARK       I    between atoms: C_11  and  N_12 
REMARK    5  A    between atoms: N_12  and  C_13 
REMARK    6  A    between atoms: C_20  and  C_21 
REMARK       I    between atoms: C_21  and  N_22 
ROOT
HETATM    1  C   UNL     1     -43.400  56.696 -52.853  1.00  0.00     0.035 A 
HETATM    2  C   UNL     1     -43.218  56.591 -54.239  1.00  0.00     0.046 A 
HETATM    3  C   UNL     1     -44.012  57.372 -55.108  1.00  0.00     0.030 A 
HETATM    4  C   UNL     1     -44.953  58.235 -54.562  1.00  0.00     0.063 A 
HETATM    5  N   UNL     1     -45.551  58.844 -55.629  1.00  0.00    -0.277 N 
HETATM    6  H   UNL     1     -46.289  59.538 -55.607  1.00  0.00     0.189 HD
HETATM    7  N   UNL     1     -45.088  58.449 -56.827  1.00  0.00    -0.168 NA
HETATM    8  C   UNL     1     -44.135  57.537 -56.521  1.00  0.00     0.156 A 
HETATM    9  C   UNL     1     -45.160  58.368 -53.188  1.00  0.00     0.034 A 
HETATM   10  C   UNL     1     -44.366  57.578 -52.348  1.00  0.00     0.032 A 
ENDROOT
BRANCH   1  11
HETATM   11  N   UNL     1     -42.676  55.941 -51.906  1.00  0.00    -0.327 N 
HETATM   12  C   UNL     1     -42.983  54.685 -51.413  1.00  0.00     0.222 C 
HETATM   13  O   UNL     1     -43.907  53.962 -51.765  1.00  0.00    -0.273 OA
HETATM   14  H   UNL     1     -41.823  56.364 -51.563  1.00  0.00     0.169 HD
BRANCH  12  15
HETATM   15  C   UNL     1     -42.041  54.247 -50.306  1.00  0.00     0.112 C 
BRANCH  15  16
HETATM   16  C   UNL     1     -40.575  54.254 -50.779  1.00  0.00     0.027 C 
BRANCH  16  17
HETATM   17  C   UNL     1     -39.545  54.258 -49.625  1.00  0.00     0.005 C 
HETATM   18  C   UNL     1     -40.103  53.974 -48.237  1.00  0.00     0.006 C 
ENDBRANCH  16  17
BRANCH  16  19
HETATM   19  C   UNL     1     -40.270  53.161 -51.796  1.00  0.00    -0.054 A 
HETATM   20  C   UNL     1     -39.788  51.897 -51.424  1.00  0.00     0.007 A 
HETATM   21  C   UNL     1     -39.512  50.926 -52.391  1.00  0.00     0.001 A 
HETATM   22  C   UNL     1     -39.709  51.204 -53.740  1.00  0.00     0.000 A 
HETATM   23  C   UNL     1     -40.179  52.457 -54.127  1.00  0.00     0.001 A 
HETATM   24  C   UNL     1     -40.454  53.428 -53.163  1.00  0.00     0.007 A 
ENDBRANCH  16  19
ENDBRANCH  15  16
ENDBRANCH  12  15
ENDBRANCH   1  11
BRANCH   8  25
HETATM   25  C   UNL     1     -43.377  56.850 -57.575  1.00  0.00     0.270 C 
HETATM   26  N   UNL     1     -43.661  55.516 -57.689  1.00  0.00    -0.365 N 
HETATM   27  H   UNL     1     -44.345  55.112 -57.060  1.00  0.00     0.159 HD
HETATM   28  H   UNL     1     -43.184  54.962 -58.381  1.00  0.00     0.159 HD
HETATM   29  O   UNL     1     -42.551  57.387 -58.306  1.00  0.00    -0.266 OA
ENDBRANCH   8  25
TORSDOF 6
ENDMDL
MODEL 7
REMARK VINA RESULT:      -7.9      3.288      4.983
REMARK  6 active torsions:
REMARK  status: ('A' for Active; 'I' for Inactive)
REMARK    1  A    between atoms: C_2  and  C_3 
REMARK    2  A    between atoms: C_3  and  C_4 
REMARK    3  A    between atoms: C_3  and  C_10 
REMARK    4  A    between atoms: C_10  and  C_11 
REMARK       I    between atoms: C_11  and  N_12 
REMARK    5  A    between atoms: N_12  and  C_13 
REMARK    6  A    between atoms: C_20  and  C_21 
REMARK       I    between atoms: C_21  and  N_22 
ROOT
HETATM    1  C   UNL     1     -42.393  56.890 -54.507  1.00  0.00     0.035 A 
HETATM    2  C   UNL     1     -43.143  57.199 -53.364  1.00  0.00     0.046 A 
HETATM    3  C   UNL     1     -44.049  58.283 -53.396  1.00  0.00     0.030 A 
HETATM    4  C   UNL     1     -44.177  59.014 -54.570  1.00  0.00     0.063 A 
HETATM    5  N   UNL     1     -45.109  59.976 -54.299  1.00  0.00    -0.277 N 
HETATM    6  H   UNL     1     -45.455  60.692 -54.928  1.00  0.00     0.189 HD
HETATM    7  N   UNL     1     -45.597  59.942 -53.048  1.00  0.00    -0.168 NA
HETATM    8  C   UNL     1     -44.949  58.900 -52.476  1.00  0.00     0.156 A 
HETATM    9  C   UNL     1     -43.449  58.734 -55.727  1.00  0.00     0.034 A 
HETATM   10  C   UNL     1     -42.553  57.659 -55.668  1.00  0.00     0.032 A 
ENDROOT
BRANCH   1  11
HETATM   11  N   UNL     1     -41.447  55.845 -54.567  1.00  0.00    -0.327 N 
HETATM   12  C   UNL     1     -41.648  54.546 -55.001  1.00  0.00     0.222 C 
HETATM   13  O   UNL     1     -42.673  54.083 -55.485  1.00  0.00    -0.273 OA
HETATM   14  H   UNL     1     -40.508  56.081 -54.273  1.00  0.00     0.169 HD
BRANCH  12  15
HETATM   15  C   UNL     1     -40.428  53.667 -54.794  1.00  0.00     0.112 C 
BRANCH  15  16
HETATM   16  C   UNL     1     -40.679  52.602 -53.710  1.00  0.00     0.027 C 
BRANCH  16  17
HETATM   17  C   UNL     1     -39.664  51.434 -53.733  1.00  0.00     0.005 C 
HETATM   18  C   UNL     1     -40.159  50.138 -54.362  1.00  0.00     0.006 C 
ENDBRANCH  16  17
BRANCH  16  19
HETATM   19  C   UNL     1     -40.819  53.193 -52.313  1.00  0.00    -0.054 A 
HETATM   20  C   UNL     1     -39.766  53.197 -51.385  1.00  0.00     0.007 A 
HETATM   21  C   UNL     1     -39.941  53.740 -50.110  1.00  0.00     0.001 A 
HETATM   22  C   UNL     1     -41.168  54.284 -49.742  1.00  0.00     0.000 A 
HETATM   23  C   UNL     1     -42.226  54.280 -50.647  1.00  0.00     0.001 A 
HETATM   24  C   UNL     1     -42.054  53.736 -51.921  1.00  0.00     0.007 A 
ENDBRANCH  16  19
ENDBRANCH  15  16
ENDBRANCH  12  15
ENDBRANCH   1  11
BRANCH   8  25
HETATM   25  C   UNL     1     -45.200  58.526 -51.078  1.00  0.00     0.270 C 
HETATM   26  N   UNL     1     -45.097  59.567 -50.194  1.00  0.00    -0.365 N 
HETATM   27  H   UNL     1     -44.859  60.484 -50.552  1.00  0.00     0.159 HD
HETATM   28  H   UNL     1     -45.246  59.402 -49.212  1.00  0.00     0.159 HD
HETATM   29  O   UNL     1     -45.477  57.394 -50.694  1.00  0.00    -0.266 OA
ENDBRANCH   8  25
TORSDOF 6
ENDMDL
MODEL 8
REMARK VINA RESULT:      -7.8      5.076      6.745
REMARK  6 active torsions:
REMARK  status: ('A' for Active; 'I' for Inactive)
REMARK    1  A    between atoms: C_2  and  C_3 
REMARK    2  A    between atoms: C_3  and  C_4 
REMARK    3  A    between atoms: C_3  and  C_10 
REMARK    4  A    between atoms: C_10  and  C_11 
REMARK       I    between atoms: C_11  and  N_12 
REMARK    5  A    between atoms: N_12  and  C_13 
REMARK    6  A    between atoms: C_20  and  C_21 
REMARK       I    between atoms: C_21  and  N_22 
ROOT
HETATM    1  C   UNL     1     -42.376  57.538 -51.265  1.00  0.00     0.035 A 
HETATM    2  C   UNL     1     -43.508  58.237 -51.707  1.00  0.00     0.046 A 
HETATM    3  C   UNL     1     -43.590  59.633 -51.498  1.00  0.00     0.030 A 
HETATM    4  C   UNL     1     -42.537  60.279 -50.864  1.00  0.00     0.063 A 
HETATM    5  N   UNL     1     -42.898  61.596 -50.811  1.00  0.00    -0.277 N 
HETATM    6  H   UNL     1     -42.367  62.363 -50.414  1.00  0.00     0.189 HD
HETATM    7  N   UNL     1     -44.099  61.866 -51.348  1.00  0.00    -0.168 NA
HETATM    8  C   UNL     1     -44.540  60.661 -51.777  1.00  0.00     0.156 A 
HETATM    9  C   UNL     1     -41.394  59.615 -50.415  1.00  0.00     0.034 A 
HETATM   10  C   UNL     1     -41.339  58.232 -50.626  1.00  0.00     0.032 A 
ENDROOT
BRANCH   1  11
HETATM   11  N   UNL     1     -42.212  56.143 -51.403  1.00  0.00    -0.327 N 
HETATM   12  C   UNL     1     -41.646  55.460 -52.465  1.00  0.00     0.222 C 
HETATM   13  O   UNL     1     -41.115  55.948 -53.455  1.00  0.00    -0.273 OA
HETATM   14  H   UNL     1     -42.531  55.581 -50.624  1.00  0.00     0.169 HD
BRANCH  12  15
HETATM   15  C   UNL     1     -41.765  53.953 -52.319  1.00  0.00     0.112 C 
BRANCH  15  16
HETATM   16  C   UNL     1     -40.452  53.332 -51.805  1.00  0.00     0.027 C 
BRANCH  16  17
HETATM   17  C   UNL     1     -40.367  53.235 -50.264  1.00  0.00     0.005 C 
HETATM   18  C   UNL     1     -39.536  54.311 -49.576  1.00  0.00     0.006 C 
ENDBRANCH  16  17
BRANCH  16  19
HETATM   19  C   UNL     1     -40.121  52.002 -52.469  1.00  0.00    -0.054 A 
HETATM   20  C   UNL     1     -39.677  50.886 -51.743  1.00  0.00     0.007 A 
HETATM   21  C   UNL     1     -39.374  49.686 -52.393  1.00  0.00     0.001 A 
HETATM   22  C   UNL     1     -39.507  49.585 -53.775  1.00  0.00     0.000 A 
HETATM   23  C   UNL     1     -39.938  50.686 -54.511  1.00  0.00     0.001 A 
HETATM   24  C   UNL     1     -40.239  51.885 -53.864  1.00  0.00     0.007 A 
ENDBRANCH  16  19
ENDBRANCH  15  16
ENDBRANCH  12  15
ENDBRANCH   1  11
BRANCH   8  25
HETATM   25  C   UNL     1     -45.848  60.522 -52.433  1.00  0.00     0.270 C 
HETATM   26  N   UNL     1     -45.778  60.127 -53.741  1.00  0.00    -0.365 N 
HETATM   27  H   UNL     1     -44.866  59.970 -54.151  1.00  0.00     0.159 HD
HETATM   28  H   UNL     1     -46.626  60.012 -54.273  1.00  0.00     0.159 HD
HETATM   29  O   UNL     1     -46.929  60.734 -51.892  1.00  0.00    -0.266 OA
ENDBRANCH   8  25
TORSDOF 6
ENDMDL
MODEL 9
REMARK VINA RESULT:      -7.8      4.558      6.561
REMARK  6 active torsions:
REMARK  status: ('A' for Active; 'I' for Inactive)
REMARK    1  A    between atoms: C_2  and  C_3 
REMARK    2  A    between atoms: C_3  and  C_4 
REMARK    3  A    between atoms: C_3  and  C_10 
REMARK    4  A    between atoms: C_10  and  C_11 
REMARK       I    between atoms: C_11  and  N_12 
REMARK    5  A    between atoms: N_12  and  C_13 
REMARK    6  A    between atoms: C_20  and  C_21 
REMARK       I    between atoms: C_21  and  N_22 
ROOT
HETATM    1  C   UNL     1     -43.917  56.908 -52.390  1.00  0.00     0.035 A 
HETATM    2  C   UNL     1     -44.387  57.977 -51.614  1.00  0.00     0.046 A 
HETATM    3  C   UNL     1     -45.039  59.062 -52.243  1.00  0.00     0.030 A 
HETATM    4  C   UNL     1     -45.203  59.036 -53.623  1.00  0.00     0.063 A 
HETATM    5  N   UNL     1     -45.856  60.197 -53.932  1.00  0.00    -0.277 N 
HETATM    6  H   UNL     1     -46.142  60.514 -54.851  1.00  0.00     0.189 HD
HETATM    7  N   UNL     1     -46.126  60.982 -52.877  1.00  0.00    -0.168 NA
HETATM    8  C   UNL     1     -45.626  60.294 -51.824  1.00  0.00     0.156 A 
HETATM    9  C   UNL     1     -44.750  57.989 -54.425  1.00  0.00     0.034 A 
HETATM   10  C   UNL     1     -44.102  56.929 -53.780  1.00  0.00     0.032 A 
ENDROOT
BRANCH   1  11
HETATM   11  N   UNL     1     -43.233  55.794 -51.860  1.00  0.00    -0.327 N 
HETATM   12  C   UNL     1     -43.615  54.997 -50.795  1.00  0.00     0.222 C 
HETATM   13  O   UNL     1     -44.660  55.069 -50.159  1.00  0.00    -0.273 OA
HETATM   14  H   UNL     1     -42.372  55.541 -52.326  1.00  0.00     0.169 HD
BRANCH  12  15
HETATM   15  C   UNL     1     -42.558  53.971 -50.426  1.00  0.00     0.112 C 
BRANCH  15  16
HETATM   16  C   UNL     1     -41.176  54.362 -50.982  1.00  0.00     0.027 C 
BRANCH  16  17
HETATM   17  C   UNL     1     -40.136  54.706 -49.890  1.00  0.00     0.005 C 
HETATM   18  C   UNL     1     -40.508  54.301 -48.469  1.00  0.00     0.006 C 
ENDBRANCH  16  17
BRANCH  16  19
HETATM   19  C   UNL     1     -40.625  53.351 -51.979  1.00  0.00    -0.054 A 
HETATM   20  C   UNL     1     -40.810  53.479 -53.365  1.00  0.00     0.007 A 
HETATM   21  C   UNL     1     -40.296  52.522 -54.245  1.00  0.00     0.001 A 
HETATM   22  C   UNL     1     -39.595  51.424 -53.754  1.00  0.00     0.000 A 
HETATM   23  C   UNL     1     -39.411  51.277 -52.382  1.00  0.00     0.001 A 
HETATM   24  C   UNL     1     -39.925  52.231 -51.502  1.00  0.00     0.007 A 
ENDBRANCH  16  19
ENDBRANCH  15  16
ENDBRANCH  12  15
ENDBRANCH   1  11
BRANCH   8  25
HETATM   25  C   UNL     1     -45.716  60.827 -50.458  1.00  0.00     0.270 C 
HETATM   26  N   UNL     1     -45.533  62.180 -50.373  1.00  0.00    -0.365 N 
HETATM   27  H   UNL     1     -45.350  62.698 -51.224  1.00  0.00     0.159 HD
HETATM   28  H   UNL     1     -45.570  62.633 -49.474  1.00  0.00     0.159 HD
HETATM   29  O   UNL     1     -45.931  60.152 -49.456  1.00  0.00    -0.266 OA
ENDBRANCH   8  25
TORSDOF 6
ENDMDL
MODEL 10
REMARK VINA RESULT:      -7.7      2.108      3.492
REMARK  6 active torsions:
REMARK  status: ('A' for Active; 'I' for Inactive)
REMARK    1  A    between atoms: C_2  and  C_3 
REMARK    2  A    between atoms: C_3  and  C_4 
REMARK    3  A    between atoms: C_3  and  C_10 
REMARK    4  A    between atoms: C_10  and  C_11 
REMARK       I    between atoms: C_11  and  N_12 
REMARK    5  A    between atoms: N_12  and  C_13 
REMARK    6  A    between atoms: C_20  and  C_21 
REMARK       I    between atoms: C_21  and  N_22 
ROOT
HETATM    1  C   UNL     1     -43.369  56.255 -55.568  1.00  0.00     0.035 A 
HETATM    2  C   UNL     1     -43.448  56.820 -56.849  1.00  0.00     0.046 A 
HETATM    3  C   UNL     1     -44.433  57.796 -57.122  1.00  0.00     0.030 A 
HETATM    4  C   UNL     1     -45.298  58.177 -56.104  1.00  0.00     0.063 A 
HETATM    5  N   UNL     1     -46.119  59.118 -56.659  1.00  0.00    -0.277 N 
HETATM    6  H   UNL     1     -46.876  59.618 -56.206  1.00  0.00     0.189 HD
HETATM    7  N   UNL     1     -45.871  59.380 -57.953  1.00  0.00    -0.168 NA
HETATM    8  C   UNL     1     -44.830  58.569 -58.254  1.00  0.00     0.156 A 
HETATM    9  C   UNL     1     -45.247  57.639 -54.818  1.00  0.00     0.034 A 
HETATM   10  C   UNL     1     -44.267  56.669 -54.574  1.00  0.00     0.032 A 
ENDROOT
BRANCH   1  11
HETATM   11  N   UNL     1     -42.439  55.258 -55.205  1.00  0.00    -0.327 N 
HETATM   12  C   UNL     1     -41.215  55.431 -54.584  1.00  0.00     0.222 C 
HETATM   13  O   UNL     1     -40.743  56.481 -54.166  1.00  0.00    -0.273 OA
HETATM   14  H   UNL     1     -42.711  54.305 -55.409  1.00  0.00     0.169 HD
BRANCH  12  15
HETATM   15  C   UNL     1     -40.430  54.136 -54.474  1.00  0.00     0.112 C 
BRANCH  15  16
HETATM   16  C   UNL     1     -40.353  53.646 -53.015  1.00  0.00     0.027 C 
BRANCH  16  17
HETATM   17  C   UNL     1     -41.566  54.062 -52.150  1.00  0.00     0.005 C 
HETATM   18  C   UNL     1     -41.238  54.800 -50.859  1.00  0.00     0.006 C 
ENDBRANCH  16  17
BRANCH  16  19
HETATM   19  C   UNL     1     -40.070  52.154 -52.900  1.00  0.00    -0.054 A 
HETATM   20  C   UNL     1     -39.761  51.536 -51.678  1.00  0.00     0.007 A 
HETATM   21  C   UNL     1     -39.498  50.165 -51.619  1.00  0.00     0.001 A 
HETATM   22  C   UNL     1     -39.535  49.393 -52.777  1.00  0.00     0.000 A 
HETATM   23  C   UNL     1     -39.831  49.992 -53.999  1.00  0.00     0.001 A 
HETATM   24  C   UNL     1     -40.093  51.362 -54.060  1.00  0.00     0.007 A 
ENDBRANCH  16  19
ENDBRANCH  15  16
ENDBRANCH  12  15
ENDBRANCH   1  11
BRANCH   8  25
HETATM   25  C   UNL     1     -44.250  58.549 -59.604  1.00  0.00     0.270 C 
HETATM   26  N   UNL     1     -45.149  58.256 -60.594  1.00  0.00    -0.365 N 
HETATM   27  H   UNL     1     -46.111  58.076 -60.336  1.00  0.00     0.159 HD
HETATM   28  H   UNL     1     -44.838  58.213 -61.551  1.00  0.00     0.159 HD
HETATM   29  O   UNL     1     -43.071  58.766 -59.862  1.00  0.00    -0.266 OA
ENDBRANCH   8  25
TORSDOF 6
ENDMDL
