MODEL 1
REMARK VINA RESULT:      -8.1      0.000      0.000
REMARK  10 active torsions:
REMARK  status: ('A' for Active; 'I' for Inactive)
REMARK    1  A    between atoms: C_2  and  O_3 
REMARK    2  A    between atoms: O_3  and  C_4 
REMARK    3  A    between atoms: C_7  and  C_8 
REMARK    4  A    between atoms: C_8  and  C_9 
REMARK    5  A    between atoms: C_10  and  C_11 
REMARK    6  A    between atoms: C_14  and  N_15 
REMARK    7  A    between atoms: N_20  and  C_21 
REMARK    8  A    between atoms: C_21  and  C_22 
REMARK    9  A    between atoms: C_22  and  N_23 
REMARK   10  A    between atoms: C_34  and  O_35 
ROOT
HETATM    1  C   UNL     1     -42.896  58.816 -54.130  1.00  0.00     0.059 C 
HETATM    2  C   UNL     1     -43.011  57.785 -55.208  1.00  0.00     0.161 C 
HETATM    3  N   UNL     1     -42.278  58.425 -56.304  1.00  0.00    -0.332 N 
HETATM    4  C   UNL     1     -42.044  59.757 -56.003  1.00  0.00     0.278 C 
HETATM    5  O   UNL     1     -41.680  60.602 -56.803  1.00  0.00    -0.265 OA
HETATM    6  C   UNL     1     -42.328  59.948 -54.572  1.00  0.00     0.146 C 
ENDROOT
BRANCH   1   7
HETATM    7  C   UNL     1     -43.257  58.705 -52.703  1.00  0.00     0.193 C 
HETATM    8  O   UNL     1     -43.799  59.668 -52.159  1.00  0.00    -0.287 OA
BRANCH   7   9
HETATM    9  C   UNL     1     -42.974  57.488 -51.911  1.00  0.00     0.015 A 
HETATM   10  C   UNL     1     -43.957  56.541 -51.604  1.00  0.00     0.018 A 
HETATM   11  C   UNL     1     -43.640  55.438 -50.804  1.00  0.00     0.038 A 
HETATM   12  C   UNL     1     -42.351  55.296 -50.291  1.00  0.00     0.069 A 
HETATM   13  C   UNL     1     -41.383  56.261 -50.551  1.00  0.00     0.038 A 
HETATM   14  C   UNL     1     -41.689  57.352 -51.367  1.00  0.00     0.018 A 
BRANCH  12  15
HETATM   15  O   UNL     1     -42.026  54.303 -49.413  1.00  0.00    -0.347 OA
BRANCH  15  16
HETATM   16  C   UNL     1     -40.622  54.014 -49.346  1.00  0.00     0.120 C 
HETATM   17  C   UNL     1     -40.368  52.661 -50.003  1.00  0.00     0.040 C 
HETATM   18  C   UNL     1     -40.239  53.966 -47.870  1.00  0.00     0.040 C 
ENDBRANCH  15  16
ENDBRANCH  12  15
ENDBRANCH   7   9
ENDBRANCH   1   7
BRANCH   2  19
HETATM   19  C   UNL     1     -42.475  56.403 -54.904  1.00  0.00    -0.030 A 
HETATM   20  C   UNL     1     -41.101  56.245 -54.639  1.00  0.00     0.012 A 
HETATM   21  C   UNL     1     -40.563  54.990 -54.339  1.00  0.00     0.037 A 
HETATM   22  C   UNL     1     -41.402  53.872 -54.304  1.00  0.00     0.102 A 
HETATM   23  C   UNL     1     -42.772  54.007 -54.567  1.00  0.00     0.037 A 
HETATM   24  C   UNL     1     -43.304  55.269 -54.858  1.00  0.00     0.012 A 
BRANCH  22  25
HETATM   25  N   UNL     1     -40.845  52.555 -53.968  1.00  0.00    -0.116 N 
HETATM   26  O   UNL     1     -41.383  51.562 -54.476  1.00  0.00    -0.532 OA
HETATM   27  O   UNL     1     -39.855  52.526 -53.227  1.00  0.00    -0.532 OA
ENDBRANCH  22  25
ENDBRANCH   2  19
BRANCH   6  28
HETATM   28  O   UNL     1     -42.033  61.094 -53.895  1.00  0.00    -0.355 OA
HETATM   29  H   UNL     1     -41.392  61.607 -54.442  1.00  0.00     0.218 HD
ENDBRANCH   6  28
BRANCH   3  30
HETATM   30  C   UNL     1     -42.331  57.944 -57.680  1.00  0.00     0.155 C 
BRANCH  30  31
HETATM   31  C   UNL     1     -43.666  58.260 -58.416  1.00  0.00     0.254 C 
BRANCH  31  32
HETATM   32  N   UNL     1     -44.667  57.089 -58.363  1.00  0.00    -0.066 N 
HETATM   33  H   UNL     1     -44.689  56.811 -57.369  1.00  0.00     0.280 HD
HETATM   34  C   UNL     1     -44.182  55.845 -59.121  1.00  0.00     0.262 C 
HETATM   35  C   UNL     1     -44.436  55.937 -60.646  1.00  0.00     0.260 C 
HETATM   36  N   UNL     1     -45.880  56.256 -60.939  1.00  0.00    -0.072 N 
HETATM   37  H   UNL     1     -46.499  55.461 -60.714  1.00  0.00     0.277 HD
HETATM   38  H   UNL     1     -45.992  56.382 -61.960  1.00  0.00     0.277 HD
HETATM   39  C   UNL     1     -46.356  57.521 -60.263  1.00  0.00     0.260 C 
HETATM   40  C   UNL     1     -46.118  57.450 -58.732  1.00  0.00     0.262 C 
ENDBRANCH  31  32
ENDBRANCH  30  31
ENDBRANCH   3  30
TORSDOF 10
ENDMDL
MODEL 2
REMARK VINA RESULT:      -7.6      3.465      6.571
REMARK  10 active torsions:
REMARK  status: ('A' for Active; 'I' for Inactive)
REMARK    1  A    between atoms: C_2  and  O_3 
REMARK    2  A    between atoms: O_3  and  C_4 
REMARK    3  A    between atoms: C_7  and  C_8 
REMARK    4  A    between atoms: C_8  and  C_9 
REMARK    5  A    between atoms: C_10  and  C_11 
REMARK    6  A    between atoms: C_14  and  N_15 
REMARK    7  A    between atoms: N_20  and  C_21 
REMARK    8  A    between atoms: C_21  and  C_22 
REMARK    9  A    between atoms: C_22  and  N_23 
REMARK   10  A    between atoms: C_34  and  O_35 
ROOT
HETATM    1  C   UNL     1     -43.796  57.760 -54.265  1.00  0.00     0.059 C 
HETATM    2  C   UNL     1     -43.048  58.252 -53.067  1.00  0.00     0.161 C 
HETATM    3  N   UNL     1     -44.015  59.184 -52.481  1.00  0.00    -0.332 N 
HETATM    4  C   UNL     1     -45.042  59.426 -53.378  1.00  0.00     0.278 C 
HETATM    5  O   UNL     1     -45.857  60.330 -53.283  1.00  0.00    -0.265 OA
HETATM    6  C   UNL     1     -44.951  58.418 -54.445  1.00  0.00     0.146 C 
ENDROOT
BRANCH   1   7
HETATM    7  C   UNL     1     -43.453  56.652 -55.177  1.00  0.00     0.193 C 
HETATM    8  O   UNL     1     -44.077  56.547 -56.233  1.00  0.00    -0.287 OA
BRANCH   7   9
HETATM    9  C   UNL     1     -42.402  55.662 -54.854  1.00  0.00     0.015 A 
HETATM   10  C   UNL     1     -41.039  55.917 -55.045  1.00  0.00     0.018 A 
HETATM   11  C   UNL     1     -40.096  54.919 -54.772  1.00  0.00     0.038 A 
HETATM   12  C   UNL     1     -40.515  53.664 -54.333  1.00  0.00     0.069 A 
HETATM   13  C   UNL     1     -41.872  53.389 -54.189  1.00  0.00     0.038 A 
HETATM   14  C   UNL     1     -42.815  54.388 -54.440  1.00  0.00     0.018 A 
BRANCH  12  15
HETATM   15  O   UNL     1     -39.645  52.627 -54.167  1.00  0.00    -0.347 OA
BRANCH  15  16
HETATM   16  C   UNL     1     -40.215  51.478 -53.524  1.00  0.00     0.120 C 
HETATM   17  C   UNL     1     -39.551  51.296 -52.163  1.00  0.00     0.040 C 
HETATM   18  C   UNL     1     -39.932  50.273 -54.416  1.00  0.00     0.040 C 
ENDBRANCH  15  16
ENDBRANCH  12  15
ENDBRANCH   7   9
ENDBRANCH   1   7
BRANCH   2  19
HETATM   19  C   UNL     1     -42.587  57.216 -52.064  1.00  0.00    -0.030 A 
HETATM   20  C   UNL     1     -41.237  57.206 -51.663  1.00  0.00     0.012 A 
HETATM   21  C   UNL     1     -40.769  56.278 -50.729  1.00  0.00     0.037 A 
HETATM   22  C   UNL     1     -41.655  55.342 -50.184  1.00  0.00     0.102 A 
HETATM   23  C   UNL     1     -43.001  55.334 -50.571  1.00  0.00     0.037 A 
HETATM   24  C   UNL     1     -43.463  56.273 -51.502  1.00  0.00     0.012 A 
BRANCH  22  25
HETATM   25  N   UNL     1     -41.171  54.379 -49.185  1.00  0.00    -0.116 N 
HETATM   26  O   UNL     1     -40.938  53.226 -49.572  1.00  0.00    -0.532 OA
HETATM   27  O   UNL     1     -40.997  54.791 -48.032  1.00  0.00    -0.532 OA
ENDBRANCH  22  25
ENDBRANCH   2  19
BRANCH   6  28
HETATM   28  O   UNL     1     -45.909  58.247 -55.400  1.00  0.00    -0.355 OA
HETATM   29  H   UNL     1     -46.452  57.465 -55.140  1.00  0.00     0.218 HD
ENDBRANCH   6  28
BRANCH   3  30
HETATM   30  C   UNL     1     -43.663  60.140 -51.436  1.00  0.00     0.155 C 
BRANCH  30  31
HETATM   31  C   UNL     1     -44.717  60.257 -50.297  1.00  0.00     0.254 C 
BRANCH  31  32
HETATM   32  N   UNL     1     -45.453  61.611 -50.304  1.00  0.00    -0.066 N 
HETATM   33  H   UNL     1     -46.220  61.486 -50.984  1.00  0.00     0.280 HD
HETATM   34  C   UNL     1     -44.601  62.760 -50.861  1.00  0.00     0.262 C 
HETATM   35  C   UNL     1     -43.626  63.345 -49.810  1.00  0.00     0.260 C 
HETATM   36  N   UNL     1     -44.355  63.735 -48.549  1.00  0.00    -0.072 N 
HETATM   37  H   UNL     1     -44.956  64.561 -48.697  1.00  0.00     0.277 HD
HETATM   38  H   UNL     1     -43.661  64.051 -47.847  1.00  0.00     0.277 HD
HETATM   39  C   UNL     1     -45.140  62.595 -47.941  1.00  0.00     0.260 C 
HETATM   40  C   UNL     1     -46.129  61.997 -48.975  1.00  0.00     0.262 C 
ENDBRANCH  31  32
ENDBRANCH  30  31
ENDBRANCH   3  30
TORSDOF 10
ENDMDL
MODEL 3
REMARK VINA RESULT:      -7.5      1.739      2.447
REMARK  10 active torsions:
REMARK  status: ('A' for Active; 'I' for Inactive)
REMARK    1  A    between atoms: C_2  and  O_3 
REMARK    2  A    between atoms: O_3  and  C_4 
REMARK    3  A    between atoms: C_7  and  C_8 
REMARK    4  A    between atoms: C_8  and  C_9 
REMARK    5  A    between atoms: C_10  and  C_11 
REMARK    6  A    between atoms: C_14  and  N_15 
REMARK    7  A    between atoms: N_20  and  C_21 
REMARK    8  A    between atoms: C_21  and  C_22 
REMARK    9  A    between atoms: C_22  and  N_23 
REMARK   10  A    between atoms: C_34  and  O_35 
ROOT
HETATM    1  C   UNL     1     -44.735  59.041 -53.300  1.00  0.00     0.059 C 
HETATM    2  C   UNL     1     -44.872  57.952 -54.316  1.00  0.00     0.161 C 
HETATM    3  N   UNL     1     -44.936  58.721 -55.562  1.00  0.00    -0.332 N 
HETATM    4  C   UNL     1     -45.122  60.065 -55.280  1.00  0.00     0.278 C 
HETATM    5  O   UNL     1     -45.454  60.912 -56.094  1.00  0.00    -0.265 OA
HETATM    6  C   UNL     1     -44.862  60.260 -53.846  1.00  0.00     0.146 C 
ENDROOT
BRANCH   1   7
HETATM    7  C   UNL     1     -44.428  58.929 -51.861  1.00  0.00     0.193 C 
HETATM    8  O   UNL     1     -44.782  59.840 -51.113  1.00  0.00    -0.287 OA
BRANCH   7   9
HETATM    9  C   UNL     1     -43.698  57.771 -51.300  1.00  0.00     0.015 A 
HETATM   10  C   UNL     1     -42.302  57.729 -51.210  1.00  0.00     0.018 A 
HETATM   11  C   UNL     1     -41.667  56.582 -50.721  1.00  0.00     0.038 A 
HETATM   12  C   UNL     1     -42.423  55.472 -50.346  1.00  0.00     0.069 A 
HETATM   13  C   UNL     1     -43.808  55.489 -50.480  1.00  0.00     0.038 A 
HETATM   14  C   UNL     1     -44.447  56.639 -50.948  1.00  0.00     0.018 A 
BRANCH  12  15
HETATM   15  O   UNL     1     -41.844  54.294 -49.975  1.00  0.00    -0.347 OA
BRANCH  15  16
HETATM   16  C   UNL     1     -40.460  54.407 -49.611  1.00  0.00     0.120 C 
HETATM   17  C   UNL     1     -39.643  53.463 -50.487  1.00  0.00     0.040 C 
HETATM   18  C   UNL     1     -40.343  54.003 -48.145  1.00  0.00     0.040 C 
ENDBRANCH  15  16
ENDBRANCH  12  15
ENDBRANCH   7   9
ENDBRANCH   1   7
BRANCH   2  19
HETATM   19  C   UNL     1     -43.783  56.903 -54.359  1.00  0.00    -0.030 A 
HETATM   20  C   UNL     1     -44.138  55.544 -54.258  1.00  0.00     0.012 A 
HETATM   21  C   UNL     1     -43.168  54.539 -54.307  1.00  0.00     0.037 A 
HETATM   22  C   UNL     1     -41.821  54.888 -54.457  1.00  0.00     0.102 A 
HETATM   23  C   UNL     1     -41.447  56.234 -54.557  1.00  0.00     0.037 A 
HETATM   24  C   UNL     1     -42.426  57.234 -54.516  1.00  0.00     0.012 A 
BRANCH  22  25
HETATM   25  N   UNL     1     -40.801  53.833 -54.531  1.00  0.00    -0.116 N 
HETATM   26  O   UNL     1     -39.904  53.967 -55.374  1.00  0.00    -0.532 OA
HETATM   27  O   UNL     1     -40.886  52.898 -53.725  1.00  0.00    -0.532 OA
ENDBRANCH  22  25
ENDBRANCH   2  19
BRANCH   6  28
HETATM   28  O   UNL     1     -44.777  61.488 -53.259  1.00  0.00    -0.355 OA
HETATM   29  H   UNL     1     -45.281  62.123 -53.822  1.00  0.00     0.218 HD
ENDBRANCH   6  28
BRANCH   3  30
HETATM   30  C   UNL     1     -45.347  58.137 -56.835  1.00  0.00     0.155 C 
BRANCH  30  31
HETATM   31  C   UNL     1     -44.370  58.421 -58.013  1.00  0.00     0.254 C 
BRANCH  31  32
HETATM   32  N   UNL     1     -42.992  57.761 -57.816  1.00  0.00    -0.066 N 
HETATM   33  H   UNL     1     -42.779  57.897 -56.815  1.00  0.00     0.280 HD
HETATM   34  C   UNL     1     -41.864  58.479 -58.571  1.00  0.00     0.262 C 
HETATM   35  C   UNL     1     -41.794  58.078 -60.065  1.00  0.00     0.260 C 
HETATM   36  N   UNL     1     -41.724  56.580 -60.223  1.00  0.00    -0.072 N 
HETATM   37  H   UNL     1     -40.814  56.206 -59.908  1.00  0.00     0.277 HD
HETATM   38  H   UNL     1     -41.754  56.350 -61.233  1.00  0.00     0.277 HD
HETATM   39  C   UNL     1     -42.869  55.858 -59.551  1.00  0.00     0.260 C 
HETATM   40  C   UNL     1     -42.954  56.240 -58.051  1.00  0.00     0.262 C 
ENDBRANCH  31  32
ENDBRANCH  30  31
ENDBRANCH   3  30
TORSDOF 10
ENDMDL
MODEL 4
REMARK VINA RESULT:      -7.3      3.010      5.901
REMARK  10 active torsions:
REMARK  status: ('A' for Active; 'I' for Inactive)
REMARK    1  A    between atoms: C_2  and  O_3 
REMARK    2  A    between atoms: O_3  and  C_4 
REMARK    3  A    between atoms: C_7  and  C_8 
REMARK    4  A    between atoms: C_8  and  C_9 
REMARK    5  A    between atoms: C_10  and  C_11 
REMARK    6  A    between atoms: C_14  and  N_15 
REMARK    7  A    between atoms: N_20  and  C_21 
REMARK    8  A    between atoms: C_21  and  C_22 
REMARK    9  A    between atoms: C_22  and  N_23 
REMARK   10  A    between atoms: C_34  and  O_35 
ROOT
HETATM    1  C   UNL     1     -42.842  56.376 -55.305  1.00  0.00     0.059 C 
HETATM    2  C   UNL     1     -42.373  57.693 -54.772  1.00  0.00     0.161 C 
HETATM    3  N   UNL     1     -42.537  58.557 -55.944  1.00  0.00    -0.332 N 
HETATM    4  C   UNL     1     -42.772  57.787 -57.071  1.00  0.00     0.278 C 
HETATM    5  O   UNL     1     -42.708  58.191 -58.221  1.00  0.00    -0.265 OA
HETATM    6  C   UNL     1     -43.089  56.423 -56.623  1.00  0.00     0.146 C 
ENDROOT
BRANCH   1   7
HETATM    7  C   UNL     1     -43.111  55.125 -54.569  1.00  0.00     0.193 C 
HETATM    8  O   UNL     1     -44.282  54.803 -54.367  1.00  0.00    -0.287 OA
BRANCH   7   9
HETATM    9  C   UNL     1     -42.022  54.263 -54.058  1.00  0.00     0.015 A 
HETATM   10  C   UNL     1     -41.108  53.621 -54.901  1.00  0.00     0.018 A 
HETATM   11  C   UNL     1     -40.134  52.774 -54.361  1.00  0.00     0.038 A 
HETATM   12  C   UNL     1     -40.089  52.550 -52.986  1.00  0.00     0.069 A 
HETATM   13  C   UNL     1     -41.026  53.147 -52.148  1.00  0.00     0.038 A 
HETATM   14  C   UNL     1     -41.987  54.009 -52.680  1.00  0.00     0.018 A 
BRANCH  12  15
HETATM   15  O   UNL     1     -39.235  51.645 -52.426  1.00  0.00    -0.347 OA
BRANCH  15  16
HETATM   16  C   UNL     1     -39.810  50.346 -52.217  1.00  0.00     0.120 C 
HETATM   17  C   UNL     1     -39.355  49.822 -50.859  1.00  0.00     0.040 C 
HETATM   18  C   UNL     1     -39.298  49.440 -53.333  1.00  0.00     0.040 C 
ENDBRANCH  15  16
ENDBRANCH  12  15
ENDBRANCH   7   9
ENDBRANCH   1   7
BRANCH   2  19
HETATM   19  C   UNL     1     -43.090  58.246 -53.560  1.00  0.00    -0.030 A 
HETATM   20  C   UNL     1     -44.495  58.341 -53.581  1.00  0.00     0.012 A 
HETATM   21  C   UNL     1     -45.201  58.831 -52.480  1.00  0.00     0.037 A 
HETATM   22  C   UNL     1     -44.503  59.236 -51.337  1.00  0.00     0.102 A 
HETATM   23  C   UNL     1     -43.105  59.151 -51.297  1.00  0.00     0.037 A 
HETATM   24  C   UNL     1     -42.406  58.651 -52.402  1.00  0.00     0.012 A 
BRANCH  22  25
HETATM   25  N   UNL     1     -45.244  59.731 -50.169  1.00  0.00    -0.116 N 
HETATM   26  O   UNL     1     -46.241  59.089 -49.814  1.00  0.00    -0.532 OA
HETATM   27  O   UNL     1     -44.804  60.737 -49.598  1.00  0.00    -0.532 OA
ENDBRANCH  22  25
ENDBRANCH   2  19
BRANCH   6  28
HETATM   28  O   UNL     1     -43.548  55.446 -57.456  1.00  0.00    -0.355 OA
HETATM   29  H   UNL     1     -42.930  55.394 -58.224  1.00  0.00     0.218 HD
ENDBRANCH   6  28
BRANCH   3  30
HETATM   30  C   UNL     1     -41.959  59.894 -56.030  1.00  0.00     0.155 C 
BRANCH  30  31
HETATM   31  C   UNL     1     -43.006  61.032 -56.208  1.00  0.00     0.254 C 
BRANCH  31  32
HETATM   32  N   UNL     1     -42.719  62.251 -55.310  1.00  0.00    -0.066 N 
HETATM   33  H   UNL     1     -41.689  62.334 -55.305  1.00  0.00     0.280 HD
HETATM   34  C   UNL     1     -43.114  62.027 -53.844  1.00  0.00     0.262 C 
HETATM   35  C   UNL     1     -44.625  62.252 -53.590  1.00  0.00     0.260 C 
HETATM   36  N   UNL     1     -45.068  63.599 -54.101  1.00  0.00    -0.072 N 
HETATM   37  H   UNL     1     -44.687  64.369 -53.527  1.00  0.00     0.277 HD
HETATM   38  H   UNL     1     -46.093  63.680 -53.981  1.00  0.00     0.277 HD
HETATM   39  C   UNL     1     -44.757  63.809 -55.565  1.00  0.00     0.260 C 
HETATM   40  C   UNL     1     -43.246  63.596 -55.842  1.00  0.00     0.262 C 
ENDBRANCH  31  32
ENDBRANCH  30  31
ENDBRANCH   3  30
TORSDOF 10
ENDMDL
MODEL 5
REMARK VINA RESULT:      -7.2      2.511      3.822
REMARK  10 active torsions:
REMARK  status: ('A' for Active; 'I' for Inactive)
REMARK    1  A    between atoms: C_2  and  O_3 
REMARK    2  A    between atoms: O_3  and  C_4 
REMARK    3  A    between atoms: C_7  and  C_8 
REMARK    4  A    between atoms: C_8  and  C_9 
REMARK    5  A    between atoms: C_10  and  C_11 
REMARK    6  A    between atoms: C_14  and  N_15 
REMARK    7  A    between atoms: N_20  and  C_21 
REMARK    8  A    between atoms: C_21  and  C_22 
REMARK    9  A    between atoms: C_22  and  N_23 
REMARK   10  A    between atoms: C_34  and  O_35 
ROOT
HETATM    1  C   UNL     1     -42.210  58.124 -53.921  1.00  0.00     0.059 C 
HETATM    2  C   UNL     1     -42.613  56.930 -54.728  1.00  0.00     0.161 C 
HETATM    3  N   UNL     1     -42.326  57.388 -56.090  1.00  0.00    -0.332 N 
HETATM    4  C   UNL     1     -42.087  58.752 -56.091  1.00  0.00     0.278 C 
HETATM    5  O   UNL     1     -42.062  59.458 -57.086  1.00  0.00    -0.265 OA
HETATM    6  C   UNL     1     -41.892  59.173 -54.695  1.00  0.00     0.146 C 
ENDROOT
BRANCH   1   7
HETATM    7  C   UNL     1     -42.070  58.245 -52.457  1.00  0.00     0.193 C 
HETATM    8  O   UNL     1     -41.030  57.845 -51.932  1.00  0.00    -0.287 OA
BRANCH   7   9
HETATM    9  C   UNL     1     -43.141  58.813 -51.608  1.00  0.00     0.015 A 
HETATM   10  C   UNL     1     -44.394  58.206 -51.467  1.00  0.00     0.018 A 
HETATM   11  C   UNL     1     -45.385  58.821 -50.694  1.00  0.00     0.038 A 
HETATM   12  C   UNL     1     -45.133  60.049 -50.085  1.00  0.00     0.069 A 
HETATM   13  C   UNL     1     -43.906  60.681 -50.262  1.00  0.00     0.038 A 
HETATM   14  C   UNL     1     -42.907  60.061 -51.015  1.00  0.00     0.018 A 
BRANCH  12  15
HETATM   15  O   UNL     1     -46.104  60.740 -49.421  1.00  0.00    -0.347 OA
BRANCH  15  16
HETATM   16  C   UNL     1     -45.626  61.488 -48.293  1.00  0.00     0.120 C 
HETATM   17  C   UNL     1     -45.768  60.630 -47.039  1.00  0.00     0.040 C 
HETATM   18  C   UNL     1     -46.492  62.739 -48.178  1.00  0.00     0.040 C 
ENDBRANCH  15  16
ENDBRANCH  12  15
ENDBRANCH   7   9
ENDBRANCH   1   7
BRANCH   2  19
HETATM   19  C   UNL     1     -41.923  55.620 -54.418  1.00  0.00    -0.030 A 
HETATM   20  C   UNL     1     -42.480  54.767 -53.445  1.00  0.00     0.012 A 
HETATM   21  C   UNL     1     -41.886  53.540 -53.136  1.00  0.00     0.037 A 
HETATM   22  C   UNL     1     -40.718  53.152 -53.802  1.00  0.00     0.102 A 
HETATM   23  C   UNL     1     -40.148  53.988 -54.771  1.00  0.00     0.037 A 
HETATM   24  C   UNL     1     -40.753  55.211 -55.080  1.00  0.00     0.012 A 
BRANCH  22  25
HETATM   25  N   UNL     1     -40.104  51.854 -53.495  1.00  0.00    -0.116 N 
HETATM   26  O   UNL     1     -39.600  51.713 -52.373  1.00  0.00    -0.532 OA
HETATM   27  O   UNL     1     -40.159  50.976 -54.365  1.00  0.00    -0.532 OA
ENDBRANCH  22  25
ENDBRANCH   2  19
BRANCH   6  28
HETATM   28  O   UNL     1     -41.459  60.416 -54.339  1.00  0.00    -0.355 OA
HETATM   29  H   UNL     1     -41.557  60.497 -53.360  1.00  0.00     0.218 HD
ENDBRANCH   6  28
BRANCH   3  30
HETATM   30  C   UNL     1     -42.803  56.688 -57.278  1.00  0.00     0.155 C 
BRANCH  30  31
HETATM   31  C   UNL     1     -44.308  56.928 -57.599  1.00  0.00     0.254 C 
BRANCH  31  32
HETATM   32  N   UNL     1     -44.675  56.553 -59.048  1.00  0.00    -0.066 N 
HETATM   33  H   UNL     1     -44.675  55.520 -59.057  1.00  0.00     0.280 HD
HETATM   34  C   UNL     1     -43.605  56.966 -60.069  1.00  0.00     0.262 C 
HETATM   35  C   UNL     1     -43.710  58.456 -60.475  1.00  0.00     0.260 C 
HETATM   36  N   UNL     1     -45.104  58.797 -60.939  1.00  0.00    -0.072 N 
HETATM   37  H   UNL     1     -45.319  58.361 -61.850  1.00  0.00     0.277 HD
HETATM   38  H   UNL     1     -45.152  59.814 -61.130  1.00  0.00     0.277 HD
HETATM   39  C   UNL     1     -46.166  58.468 -59.915  1.00  0.00     0.260 C 
HETATM   40  C   UNL     1     -46.084  56.977 -59.498  1.00  0.00     0.262 C 
ENDBRANCH  31  32
ENDBRANCH  30  31
ENDBRANCH   3  30
TORSDOF 10
ENDMDL
MODEL 6
REMARK VINA RESULT:      -7.1     16.511     20.185
REMARK  10 active torsions:
REMARK  status: ('A' for Active; 'I' for Inactive)
REMARK    1  A    between atoms: C_2  and  O_3 
REMARK    2  A    between atoms: O_3  and  C_4 
REMARK    3  A    between atoms: C_7  and  C_8 
REMARK    4  A    between atoms: C_8  and  C_9 
REMARK    5  A    between atoms: C_10  and  C_11 
REMARK    6  A    between atoms: C_14  and  N_15 
REMARK    7  A    between atoms: N_20  and  C_21 
REMARK    8  A    between atoms: C_21  and  C_22 
REMARK    9  A    between atoms: C_22  and  N_23 
REMARK   10  A    between atoms: C_34  and  O_35 
ROOT
HETATM    1  C   UNL     1     -35.478  40.548 -52.431  1.00  0.00     0.059 C 
HETATM    2  C   UNL     1     -34.232  39.725 -52.357  1.00  0.00     0.161 C 
HETATM    3  N   UNL     1     -34.706  38.542 -51.632  1.00  0.00    -0.332 N 
HETATM    4  C   UNL     1     -35.960  38.785 -51.098  1.00  0.00     0.278 C 
HETATM    5  O   UNL     1     -36.506  38.097 -50.250  1.00  0.00    -0.265 OA
HETATM    6  C   UNL     1     -36.482  40.010 -51.723  1.00  0.00     0.146 C 
ENDROOT
BRANCH   1   7
HETATM    7  C   UNL     1     -35.727  41.780 -53.206  1.00  0.00     0.193 C 
HETATM    8  O   UNL     1     -35.792  42.850 -52.601  1.00  0.00    -0.287 OA
BRANCH   7   9
HETATM    9  C   UNL     1     -35.917  41.762 -54.673  1.00  0.00     0.015 A 
HETATM   10  C   UNL     1     -37.086  41.288 -55.277  1.00  0.00     0.018 A 
HETATM   11  C   UNL     1     -37.185  41.245 -56.673  1.00  0.00     0.038 A 
HETATM   12  C   UNL     1     -36.109  41.650 -57.461  1.00  0.00     0.069 A 
HETATM   13  C   UNL     1     -34.925  42.076 -56.865  1.00  0.00     0.038 A 
HETATM   14  C   UNL     1     -34.830  42.141 -55.473  1.00  0.00     0.018 A 
BRANCH  12  15
HETATM   15  O   UNL     1     -36.114  41.517 -58.818  1.00  0.00    -0.347 OA
BRANCH  15  16
HETATM   16  C   UNL     1     -37.421  41.569 -59.409  1.00  0.00     0.120 C 
HETATM   17  C   UNL     1     -37.655  40.284 -60.197  1.00  0.00     0.040 C 
HETATM   18  C   UNL     1     -37.448  42.775 -60.343  1.00  0.00     0.040 C 
ENDBRANCH  15  16
ENDBRANCH  12  15
ENDBRANCH   7   9
ENDBRANCH   1   7
BRANCH   2  19
HETATM   19  C   UNL     1     -33.567  39.354 -53.664  1.00  0.00    -0.030 A 
HETATM   20  C   UNL     1     -32.267  39.828 -53.930  1.00  0.00     0.012 A 
HETATM   21  C   UNL     1     -31.608  39.500 -55.117  1.00  0.00     0.037 A 
HETATM   22  C   UNL     1     -32.248  38.689 -56.060  1.00  0.00     0.102 A 
HETATM   23  C   UNL     1     -33.542  38.208 -55.815  1.00  0.00     0.037 A 
HETATM   24  C   UNL     1     -34.192  38.535 -54.620  1.00  0.00     0.012 A 
BRANCH  22  25
HETATM   25  N   UNL     1     -31.550  38.323 -57.299  1.00  0.00    -0.116 N 
HETATM   26  O   UNL     1     -30.312  38.367 -57.289  1.00  0.00    -0.532 OA
HETATM   27  O   UNL     1     -32.241  37.965 -58.260  1.00  0.00    -0.532 OA
ENDBRANCH  22  25
ENDBRANCH   2  19
BRANCH   6  28
HETATM   28  O   UNL     1     -37.765  40.445 -51.565  1.00  0.00    -0.355 OA
HETATM   29  H   UNL     1     -38.365  39.718 -51.856  1.00  0.00     0.218 HD
ENDBRANCH   6  28
BRANCH   3  30
HETATM   30  C   UNL     1     -33.803  37.548 -51.060  1.00  0.00     0.155 C 
BRANCH  30  31
HETATM   31  C   UNL     1     -32.611  38.153 -50.263  1.00  0.00     0.254 C 
BRANCH  31  32
HETATM   32  N   UNL     1     -33.069  39.014 -49.069  1.00  0.00    -0.066 N 
HETATM   33  H   UNL     1     -33.806  39.625 -49.457  1.00  0.00     0.280 HD
HETATM   34  C   UNL     1     -31.979  39.968 -48.560  1.00  0.00     0.262 C 
HETATM   35  C   UNL     1     -30.969  39.272 -47.614  1.00  0.00     0.260 C 
HETATM   36  N   UNL     1     -31.678  38.562 -46.489  1.00  0.00    -0.072 N 
HETATM   37  H   UNL     1     -32.098  39.229 -45.822  1.00  0.00     0.277 HD
HETATM   38  H   UNL     1     -30.977  38.050 -45.924  1.00  0.00     0.277 HD
HETATM   39  C   UNL     1     -32.702  37.560 -46.972  1.00  0.00     0.260 C 
HETATM   40  C   UNL     1     -33.729  38.237 -47.916  1.00  0.00     0.262 C 
ENDBRANCH  31  32
ENDBRANCH  30  31
ENDBRANCH   3  30
TORSDOF 10
ENDMDL
MODEL 7
REMARK VINA RESULT:      -6.9      3.226      5.870
REMARK  10 active torsions:
REMARK  status: ('A' for Active; 'I' for Inactive)
REMARK    1  A    between atoms: C_2  and  O_3 
REMARK    2  A    between atoms: O_3  and  C_4 
REMARK    3  A    between atoms: C_7  and  C_8 
REMARK    4  A    between atoms: C_8  and  C_9 
REMARK    5  A    between atoms: C_10  and  C_11 
REMARK    6  A    between atoms: C_14  and  N_15 
REMARK    7  A    between atoms: N_20  and  C_21 
REMARK    8  A    between atoms: C_21  and  C_22 
REMARK    9  A    between atoms: C_22  and  N_23 
REMARK   10  A    between atoms: C_34  and  O_35 
ROOT
HETATM    1  C   UNL     1     -43.686  57.856 -56.465  1.00  0.00     0.059 C 
HETATM    2  C   UNL     1     -43.157  59.046 -55.729  1.00  0.00     0.161 C 
HETATM    3  N   UNL     1     -44.314  59.946 -55.760  1.00  0.00    -0.332 N 
HETATM    4  C   UNL     1     -45.261  59.469 -56.651  1.00  0.00     0.278 C 
HETATM    5  O   UNL     1     -46.209  60.110 -57.074  1.00  0.00    -0.265 OA
HETATM    6  C   UNL     1     -44.901  58.083 -56.987  1.00  0.00     0.146 C 
ENDROOT
BRANCH   1   7
HETATM    7  C   UNL     1     -43.080  56.518 -56.616  1.00  0.00     0.193 C 
HETATM    8  O   UNL     1     -42.988  56.041 -57.747  1.00  0.00    -0.287 OA
BRANCH   7   9
HETATM    9  C   UNL     1     -42.602  55.736 -55.455  1.00  0.00     0.015 A 
HETATM   10  C   UNL     1     -41.249  55.451 -55.242  1.00  0.00     0.018 A 
HETATM   11  C   UNL     1     -40.864  54.658 -54.155  1.00  0.00     0.038 A 
HETATM   12  C   UNL     1     -41.830  54.132 -53.298  1.00  0.00     0.069 A 
HETATM   13  C   UNL     1     -43.180  54.371 -53.534  1.00  0.00     0.038 A 
HETATM   14  C   UNL     1     -43.567  55.179 -54.605  1.00  0.00     0.018 A 
BRANCH  12  15
HETATM   15  O   UNL     1     -41.513  53.261 -52.297  1.00  0.00    -0.347 OA
BRANCH  15  16
HETATM   16  C   UNL     1     -40.120  53.242 -51.953  1.00  0.00     0.120 C 
HETATM   17  C   UNL     1     -39.600  51.815 -52.088  1.00  0.00     0.040 C 
HETATM   18  C   UNL     1     -40.005  53.713 -50.506  1.00  0.00     0.040 C 
ENDBRANCH  15  16
ENDBRANCH  12  15
ENDBRANCH   7   9
ENDBRANCH   1   7
BRANCH   2  19
HETATM   19  C   UNL     1     -42.656  58.822 -54.319  1.00  0.00    -0.030 A 
HETATM   20  C   UNL     1     -41.304  59.081 -54.024  1.00  0.00     0.012 A 
HETATM   21  C   UNL     1     -40.800  58.903 -52.733  1.00  0.00     0.037 A 
HETATM   22  C   UNL     1     -41.651  58.458 -51.716  1.00  0.00     0.102 A 
HETATM   23  C   UNL     1     -43.000  58.193 -51.989  1.00  0.00     0.037 A 
HETATM   24  C   UNL     1     -43.498  58.382 -53.283  1.00  0.00     0.012 A 
BRANCH  22  25
HETATM   25  N   UNL     1     -41.130  58.290 -50.353  1.00  0.00    -0.116 N 
HETATM   26  O   UNL     1     -40.821  59.316 -49.732  1.00  0.00    -0.532 OA
HETATM   27  O   UNL     1     -41.065  57.140 -49.903  1.00  0.00    -0.532 OA
ENDBRANCH  22  25
ENDBRANCH   2  19
BRANCH   6  28
HETATM   28  O   UNL     1     -45.711  57.248 -57.697  1.00  0.00    -0.355 OA
HETATM   29  H   UNL     1     -45.891  57.676 -58.568  1.00  0.00     0.218 HD
ENDBRANCH   6  28
BRANCH   3  30
HETATM   30  C   UNL     1     -44.227  61.360 -55.410  1.00  0.00     0.155 C 
BRANCH  30  31
HETATM   31  C   UNL     1     -44.938  61.731 -54.075  1.00  0.00     0.254 C 
BRANCH  31  32
HETATM   32  N   UNL     1     -44.097  62.678 -53.197  1.00  0.00    -0.066 N 
HETATM   33  H   UNL     1     -43.423  63.109 -53.850  1.00  0.00     0.280 HD
HETATM   34  C   UNL     1     -43.239  61.938 -52.161  1.00  0.00     0.262 C 
HETATM   35  C   UNL     1     -44.038  61.543 -50.894  1.00  0.00     0.260 C 
HETATM   36  N   UNL     1     -44.744  62.737 -50.303  1.00  0.00    -0.072 N 
HETATM   37  H   UNL     1     -44.078  63.402 -49.879  1.00  0.00     0.277 HD
HETATM   38  H   UNL     1     -45.324  62.419 -49.506  1.00  0.00     0.277 HD
HETATM   39  C   UNL     1     -45.654  63.435 -51.287  1.00  0.00     0.260 C 
HETATM   40  C   UNL     1     -44.873  63.846 -52.562  1.00  0.00     0.262 C 
ENDBRANCH  31  32
ENDBRANCH  30  31
ENDBRANCH   3  30
TORSDOF 10
ENDMDL
MODEL 8
REMARK VINA RESULT:      -6.8      2.681      5.429
REMARK  10 active torsions:
REMARK  status: ('A' for Active; 'I' for Inactive)
REMARK    1  A    between atoms: C_2  and  O_3 
REMARK    2  A    between atoms: O_3  and  C_4 
REMARK    3  A    between atoms: C_7  and  C_8 
REMARK    4  A    between atoms: C_8  and  C_9 
REMARK    5  A    between atoms: C_10  and  C_11 
REMARK    6  A    between atoms: C_14  and  N_15 
REMARK    7  A    between atoms: N_20  and  C_21 
REMARK    8  A    between atoms: C_21  and  C_22 
REMARK    9  A    between atoms: C_22  and  N_23 
REMARK   10  A    between atoms: C_34  and  O_35 
ROOT
HETATM    1  C   UNL     1     -42.838  56.500 -57.150  1.00  0.00     0.059 C 
HETATM    2  C   UNL     1     -42.396  57.734 -56.430  1.00  0.00     0.161 C 
HETATM    3  N   UNL     1     -42.734  58.777 -57.402  1.00  0.00    -0.332 N 
HETATM    4  C   UNL     1     -43.038  58.203 -58.626  1.00  0.00     0.278 C 
HETATM    5  O   UNL     1     -43.119  58.808 -59.683  1.00  0.00    -0.265 OA
HETATM    6  C   UNL     1     -43.224  56.760 -58.409  1.00  0.00     0.146 C 
ENDROOT
BRANCH   1   7
HETATM    7  C   UNL     1     -42.952  55.120 -56.637  1.00  0.00     0.193 C 
HETATM    8  O   UNL     1     -43.632  54.313 -57.271  1.00  0.00    -0.287 OA
BRANCH   7   9
HETATM    9  C   UNL     1     -42.293  54.690 -55.384  1.00  0.00     0.015 A 
HETATM   10  C   UNL     1     -42.987  54.539 -54.179  1.00  0.00     0.018 A 
HETATM   11  C   UNL     1     -42.297  54.182 -53.015  1.00  0.00     0.038 A 
HETATM   12  C   UNL     1     -40.915  54.003 -53.050  1.00  0.00     0.069 A 
HETATM   13  C   UNL     1     -40.213  54.201 -54.235  1.00  0.00     0.038 A 
HETATM   14  C   UNL     1     -40.900  54.535 -55.404  1.00  0.00     0.018 A 
BRANCH  12  15
HETATM   15  O   UNL     1     -40.186  53.771 -51.921  1.00  0.00    -0.347 OA
BRANCH  15  16
HETATM   16  C   UNL     1     -40.543  52.566 -51.227  1.00  0.00     0.120 C 
HETATM   17  C   UNL     1     -40.405  52.804 -49.727  1.00  0.00     0.040 C 
HETATM   18  C   UNL     1     -39.574  51.478 -51.682  1.00  0.00     0.040 C 
ENDBRANCH  15  16
ENDBRANCH  12  15
ENDBRANCH   7   9
ENDBRANCH   1   7
BRANCH   2  19
HETATM   19  C   UNL     1     -43.015  58.005 -55.076  1.00  0.00    -0.030 A 
HETATM   20  C   UNL     1     -42.173  58.161 -53.958  1.00  0.00     0.012 A 
HETATM   21  C   UNL     1     -42.698  58.427 -52.691  1.00  0.00     0.037 A 
HETATM   22  C   UNL     1     -44.083  58.539 -52.529  1.00  0.00     0.102 A 
HETATM   23  C   UNL     1     -44.938  58.387 -53.628  1.00  0.00     0.037 A 
HETATM   24  C   UNL     1     -44.403  58.128 -54.895  1.00  0.00     0.012 A 
BRANCH  22  25
HETATM   25  N   UNL     1     -44.638  58.842 -51.202  1.00  0.00    -0.116 N 
HETATM   26  O   UNL     1     -45.436  58.027 -50.720  1.00  0.00    -0.532 OA
HETATM   27  O   UNL     1     -44.246  59.872 -50.640  1.00  0.00    -0.532 OA
ENDBRANCH  22  25
ENDBRANCH   2  19
BRANCH   6  28
HETATM   28  O   UNL     1     -43.708  55.914 -59.362  1.00  0.00    -0.355 OA
HETATM   29  H   UNL     1     -43.644  54.995 -59.006  1.00  0.00     0.218 HD
ENDBRANCH   6  28
BRANCH   3  30
HETATM   30  C   UNL     1     -42.249  60.149 -57.294  1.00  0.00     0.155 C 
BRANCH  30  31
HETATM   31  C   UNL     1     -43.342  61.181 -56.890  1.00  0.00     0.254 C 
BRANCH  31  32
HETATM   32  N   UNL     1     -42.850  62.185 -55.829  1.00  0.00    -0.066 N 
HETATM   33  H   UNL     1     -41.821  62.159 -55.904  1.00  0.00     0.280 HD
HETATM   34  C   UNL     1     -43.162  61.745 -54.391  1.00  0.00     0.262 C 
HETATM   35  C   UNL     1     -44.614  62.075 -53.966  1.00  0.00     0.260 C 
HETATM   36  N   UNL     1     -44.932  63.530 -54.200  1.00  0.00    -0.072 N 
HETATM   37  H   UNL     1     -44.423  64.142 -53.542  1.00  0.00     0.277 HD
HETATM   38  H   UNL     1     -45.929  63.693 -53.974  1.00  0.00     0.277 HD
HETATM   39  C   UNL     1     -44.705  63.964 -55.630  1.00  0.00     0.260 C 
HETATM   40  C   UNL     1     -43.254  63.650 -56.075  1.00  0.00     0.262 C 
ENDBRANCH  31  32
ENDBRANCH  30  31
ENDBRANCH   3  30
TORSDOF 10
ENDMDL
MODEL 9
REMARK VINA RESULT:      -6.6     16.699     19.520
REMARK  10 active torsions:
REMARK  status: ('A' for Active; 'I' for Inactive)
REMARK    1  A    between atoms: C_2  and  O_3 
REMARK    2  A    between atoms: O_3  and  C_4 
REMARK    3  A    between atoms: C_7  and  C_8 
REMARK    4  A    between atoms: C_8  and  C_9 
REMARK    5  A    between atoms: C_10  and  C_11 
REMARK    6  A    between atoms: C_14  and  N_15 
REMARK    7  A    between atoms: N_20  and  C_21 
REMARK    8  A    between atoms: C_21  and  C_22 
REMARK    9  A    between atoms: C_22  and  N_23 
REMARK   10  A    between atoms: C_34  and  O_35 
ROOT
HETATM    1  C   UNL     1     -32.866  39.306 -56.814  1.00  0.00     0.059 C 
HETATM    2  C   UNL     1     -34.196  39.965 -57.001  1.00  0.00     0.161 C 
HETATM    3  N   UNL     1     -34.873  39.013 -57.886  1.00  0.00    -0.332 N 
HETATM    4  C   UNL     1     -33.959  38.099 -58.385  1.00  0.00     0.278 C 
HETATM    5  O   UNL     1     -34.164  37.345 -59.323  1.00  0.00    -0.265 OA
HETATM    6  C   UNL     1     -32.725  38.224 -57.594  1.00  0.00     0.146 C 
ENDROOT
BRANCH   1   7
HETATM    7  C   UNL     1     -31.784  39.658 -55.874  1.00  0.00     0.193 C 
HETATM    8  O   UNL     1     -30.757  40.166 -56.326  1.00  0.00    -0.287 OA
BRANCH   7   9
HETATM    9  C   UNL     1     -31.889  39.402 -54.421  1.00  0.00     0.015 A 
HETATM   10  C   UNL     1     -32.149  40.417 -53.493  1.00  0.00     0.018 A 
HETATM   11  C   UNL     1     -32.182  40.122 -52.125  1.00  0.00     0.038 A 
HETATM   12  C   UNL     1     -31.932  38.822 -51.686  1.00  0.00     0.069 A 
HETATM   13  C   UNL     1     -31.624  37.820 -52.601  1.00  0.00     0.038 A 
HETATM   14  C   UNL     1     -31.611  38.106 -53.967  1.00  0.00     0.018 A 
BRANCH  12  15
HETATM   15  O   UNL     1     -31.837  38.511 -50.361  1.00  0.00    -0.347 OA
BRANCH  15  16
HETATM   16  C   UNL     1     -32.506  39.437 -49.491  1.00  0.00     0.120 C 
HETATM   17  C   UNL     1     -31.626  39.686 -48.270  1.00  0.00     0.040 C 
HETATM   18  C   UNL     1     -33.824  38.792 -49.071  1.00  0.00     0.040 C 
ENDBRANCH  15  16
ENDBRANCH  12  15
ENDBRANCH   7   9
ENDBRANCH   1   7
BRANCH   2  19
HETATM   19  C   UNL     1     -35.008  40.250 -55.756  1.00  0.00    -0.030 A 
HETATM   20  C   UNL     1     -35.525  39.171 -55.014  1.00  0.00     0.012 A 
HETATM   21  C   UNL     1     -36.268  39.385 -53.850  1.00  0.00     0.037 A 
HETATM   22  C   UNL     1     -36.504  40.694 -53.415  1.00  0.00     0.102 A 
HETATM   23  C   UNL     1     -35.999  41.781 -54.139  1.00  0.00     0.037 A 
HETATM   24  C   UNL     1     -35.250  41.557 -55.300  1.00  0.00     0.012 A 
BRANCH  22  25
HETATM   25  N   UNL     1     -37.266  40.922 -52.179  1.00  0.00    -0.116 N 
HETATM   26  O   UNL     1     -38.416  41.366 -52.294  1.00  0.00    -0.532 OA
HETATM   27  O   UNL     1     -36.721  40.626 -51.109  1.00  0.00    -0.532 OA
ENDBRANCH  22  25
ENDBRANCH   2  19
BRANCH   6  28
HETATM   28  O   UNL     1     -31.679  37.354 -57.694  1.00  0.00    -0.355 OA
HETATM   29  H   UNL     1     -30.860  37.843 -57.442  1.00  0.00     0.218 HD
ENDBRANCH   6  28
BRANCH   3  30
HETATM   30  C   UNL     1     -36.111  39.328 -58.590  1.00  0.00     0.155 C 
BRANCH  30  31
HETATM   31  C   UNL     1     -37.279  38.339 -58.300  1.00  0.00     0.254 C 
BRANCH  31  32
HETATM   32  N   UNL     1     -37.512  37.340 -59.450  1.00  0.00    -0.066 N 
HETATM   33  H   UNL     1     -36.826  36.586 -59.282  1.00  0.00     0.280 HD
HETATM   34  C   UNL     1     -37.156  37.912 -60.829  1.00  0.00     0.262 C 
HETATM   35  C   UNL     1     -38.285  38.790 -61.422  1.00  0.00     0.260 C 
HETATM   36  N   UNL     1     -39.600  38.053 -61.432  1.00  0.00    -0.072 N 
HETATM   37  H   UNL     1     -39.603  37.288 -62.126  1.00  0.00     0.277 HD
HETATM   38  H   UNL     1     -40.340  38.697 -61.764  1.00  0.00     0.277 HD
HETATM   39  C   UNL     1     -40.007  37.548 -60.067  1.00  0.00     0.260 C 
HETATM   40  C   UNL     1     -38.893  36.659 -59.456  1.00  0.00     0.262 C 
ENDBRANCH  31  32
ENDBRANCH  30  31
ENDBRANCH   3  30
TORSDOF 10
ENDMDL
MODEL 10
REMARK VINA RESULT:      -6.5      2.741      6.164
REMARK  10 active torsions:
REMARK  status: ('A' for Active; 'I' for Inactive)
REMARK    1  A    between atoms: C_2  and  O_3 
REMARK    2  A    between atoms: O_3  and  C_4 
REMARK    3  A    between atoms: C_7  and  C_8 
REMARK    4  A    between atoms: C_8  and  C_9 
REMARK    5  A    between atoms: C_10  and  C_11 
REMARK    6  A    between atoms: C_14  and  N_15 
REMARK    7  A    between atoms: N_20  and  C_21 
REMARK    8  A    between atoms: C_21  and  C_22 
REMARK    9  A    between atoms: C_22  and  N_23 
REMARK   10  A    between atoms: C_34  and  O_35 
ROOT
HETATM    1  C   UNL     1     -42.856  56.534 -53.220  1.00  0.00     0.059 C 
HETATM    2  C   UNL     1     -42.555  57.273 -54.485  1.00  0.00     0.161 C 
HETATM    3  N   UNL     1     -43.031  56.326 -55.497  1.00  0.00    -0.332 N 
HETATM    4  C   UNL     1     -43.283  55.095 -54.913  1.00  0.00     0.278 C 
HETATM    5  O   UNL     1     -43.452  54.052 -55.523  1.00  0.00    -0.265 OA
HETATM    6  C   UNL     1     -43.289  55.286 -53.454  1.00  0.00     0.146 C 
ENDROOT
BRANCH   1   7
HETATM    7  C   UNL     1     -42.795  57.021 -51.827  1.00  0.00     0.193 C 
HETATM    8  O   UNL     1     -42.004  56.482 -51.052  1.00  0.00    -0.287 OA
BRANCH   7   9
HETATM    9  C   UNL     1     -43.661  58.115 -51.338  1.00  0.00     0.015 A 
HETATM   10  C   UNL     1     -45.032  57.950 -51.112  1.00  0.00     0.018 A 
HETATM   11  C   UNL     1     -45.810  59.039 -50.702  1.00  0.00     0.038 A 
HETATM   12  C   UNL     1     -45.223  60.293 -50.541  1.00  0.00     0.069 A 
HETATM   13  C   UNL     1     -43.870  60.475 -50.812  1.00  0.00     0.038 A 
HETATM   14  C   UNL     1     -43.087  59.387 -51.201  1.00  0.00     0.018 A 
BRANCH  12  15
HETATM   15  O   UNL     1     -45.960  61.406 -50.257  1.00  0.00    -0.347 OA
BRANCH  15  16
HETATM   16  C   UNL     1     -46.008  62.367 -51.322  1.00  0.00     0.120 C 
HETATM   17  C   UNL     1     -46.112  63.764 -50.718  1.00  0.00     0.040 C 
HETATM   18  C   UNL     1     -47.247  62.057 -52.156  1.00  0.00     0.040 C 
ENDBRANCH  15  16
ENDBRANCH  12  15
ENDBRANCH   7   9
ENDBRANCH   1   7
BRANCH   2  19
HETATM   19  C   UNL     1     -43.182  58.640 -54.654  1.00  0.00    -0.030 A 
HETATM   20  C   UNL     1     -44.585  58.753 -54.656  1.00  0.00     0.012 A 
HETATM   21  C   UNL     1     -45.209  59.996 -54.794  1.00  0.00     0.037 A 
HETATM   22  C   UNL     1     -44.426  61.147 -54.936  1.00  0.00     0.102 A 
HETATM   23  C   UNL     1     -43.028  61.056 -54.938  1.00  0.00     0.037 A 
HETATM   24  C   UNL     1     -42.412  59.808 -54.790  1.00  0.00     0.012 A 
BRANCH  22  25
HETATM   25  N   UNL     1     -45.078  62.458 -55.059  1.00  0.00    -0.116 N 
HETATM   26  O   UNL     1     -46.157  62.503 -55.666  1.00  0.00    -0.532 OA
HETATM   27  O   UNL     1     -44.524  63.424 -54.521  1.00  0.00    -0.532 OA
ENDBRANCH  22  25
ENDBRANCH   2  19
BRANCH   6  28
HETATM   28  O   UNL     1     -43.682  54.322 -52.573  1.00  0.00    -0.355 OA
HETATM   29  H   UNL     1     -43.765  54.745 -51.686  1.00  0.00     0.218 HD
ENDBRANCH   6  28
BRANCH   3  30
HETATM   30  C   UNL     1     -42.715  56.456 -56.915  1.00  0.00     0.155 C 
BRANCH  30  31
HETATM   31  C   UNL     1     -43.861  57.070 -57.771  1.00  0.00     0.254 C 
BRANCH  31  32
HETATM   32  N   UNL     1     -43.572  57.011 -59.283  1.00  0.00    -0.066 N 
HETATM   33  H   UNL     1     -42.652  57.467 -59.391  1.00  0.00     0.280 HD
HETATM   34  C   UNL     1     -44.543  57.859 -60.118  1.00  0.00     0.262 C 
HETATM   35  C   UNL     1     -45.885  57.137 -60.390  1.00  0.00     0.260 C 
HETATM   36  N   UNL     1     -45.658  55.773 -60.991  1.00  0.00    -0.072 N 
HETATM   37  H   UNL     1     -45.304  55.837 -61.959  1.00  0.00     0.277 HD
HETATM   38  H   UNL     1     -46.571  55.295 -61.088  1.00  0.00     0.277 HD
HETATM   39  C   UNL     1     -44.765  54.894 -60.145  1.00  0.00     0.260 C 
HETATM   40  C   UNL     1     -43.411  55.595 -59.865  1.00  0.00     0.262 C 
ENDBRANCH  31  32
ENDBRANCH  30  31
ENDBRANCH   3  30
TORSDOF 10
ENDMDL
