MODEL 1
REMARK VINA RESULT:      -8.3      0.000      0.000
REMARK  3 active torsions:
REMARK  status: ('A' for Active; 'I' for Inactive)
REMARK    1  A    between atoms: C_6  and  C_7 
REMARK    2  A    between atoms: C_13  and  C_14 
REMARK    3  A    between atoms: C_14  and  C_15 
ROOT
HETATM    1  C   UNL     1     -40.308  51.614 -50.266  1.00  0.00     0.070 C 
HETATM    2  C   UNL     1     -40.544  52.866 -51.062  1.00  0.00     0.033 A 
HETATM    3  N   UNL     1     -40.831  53.980 -50.368  1.00  0.00    -0.246 NA
HETATM    4  C   UNL     1     -41.027  55.086 -51.112  1.00  0.00     0.112 A 
HETATM    5  C   UNL     1     -40.972  55.183 -52.499  1.00  0.00     0.043 A 
HETATM    6  C   UNL     1     -40.670  53.989 -53.209  1.00  0.00     0.065 A 
HETATM    7  C   UNL     1     -40.450  52.826 -52.446  1.00  0.00     0.044 A 
HETATM    8  S   UNL     1     -41.385  56.562 -50.350  1.00  0.00    -0.063 SA
HETATM    9  C   UNL     1     -41.434  57.404 -51.837  1.00  0.00     0.085 A 
HETATM   10  C   UNL     1     -41.243  56.539 -52.901  1.00  0.00     0.061 A 
HETATM   11  N   UNL     1     -41.296  56.956 -54.190  1.00  0.00    -0.397 N 
HETATM   12  H   UNL     1     -41.686  57.886 -54.379  1.00  0.00     0.156 HD
HETATM   13  H   UNL     1     -41.528  56.316 -54.948  1.00  0.00     0.156 HD
ENDROOT
BRANCH   9  14
HETATM   14  C   UNL     1     -41.747  58.826 -51.902  1.00  0.00     0.201 C 
HETATM   15  O   UNL     1     -41.005  59.643 -52.454  1.00  0.00    -0.286 OA
BRANCH  14  16
HETATM   16  C   UNL     1     -42.975  59.377 -51.270  1.00  0.00     0.018 A 
HETATM   17  C   UNL     1     -42.858  60.533 -50.485  1.00  0.00     0.055 A 
HETATM   18  C   UNL     1     -43.997  61.008 -49.872  1.00  0.00     0.106 A 
HETATM   19  C   UNL     1     -45.212  60.375 -50.006  1.00  0.00     0.105 A 
HETATM   20  O   UNL     1     -44.072  62.110 -49.081  1.00  0.00    -0.323 OA
HETATM   21  O   UNL     1     -46.201  61.002 -49.316  1.00  0.00    -0.323 OA
HETATM   22  C   UNL     1     -45.357  59.228 -50.757  1.00  0.00     0.040 A 
HETATM   23  C   UNL     1     -45.470  62.094 -48.721  1.00  0.00     0.352 A 
HETATM   24  C   UNL     1     -44.219  58.716 -51.390  1.00  0.00     0.018 A 
ENDBRANCH  14  16
ENDBRANCH   9  14
BRANCH   6  25
HETATM   25  C   UNL     1     -40.521  53.923 -54.705  1.00  0.00     0.418 C 
HETATM   26  F   UNL     1     -41.666  54.227 -55.381  1.00  0.00    -0.166 F 
HETATM   27  F   UNL     1     -39.566  54.770 -55.176  1.00  0.00    -0.166 F 
HETATM   28  F   UNL     1     -40.163  52.684 -55.151  1.00  0.00    -0.166 F 
ENDBRANCH   6  25
TORSDOF 3
ENDMDL
MODEL 2
REMARK VINA RESULT:      -8.2      5.044      8.031
REMARK  3 active torsions:
REMARK  status: ('A' for Active; 'I' for Inactive)
REMARK    1  A    between atoms: C_6  and  C_7 
REMARK    2  A    between atoms: C_13  and  C_14 
REMARK    3  A    between atoms: C_14  and  C_15 
ROOT
HETATM    1  C   UNL     1     -41.329  61.352 -58.096  1.00  0.00     0.070 C 
HETATM    2  C   UNL     1     -41.762  59.955 -57.759  1.00  0.00     0.033 A 
HETATM    3  N   UNL     1     -41.782  59.624 -56.456  1.00  0.00    -0.246 NA
HETATM    4  C   UNL     1     -42.184  58.367 -56.188  1.00  0.00     0.112 A 
HETATM    5  C   UNL     1     -42.564  57.395 -57.108  1.00  0.00     0.043 A 
HETATM    6  C   UNL     1     -42.530  57.768 -58.479  1.00  0.00     0.065 A 
HETATM    7  C   UNL     1     -42.123  59.084 -58.777  1.00  0.00     0.044 A 
HETATM    8  S   UNL     1     -42.264  57.833 -54.576  1.00  0.00    -0.063 SA
HETATM    9  C   UNL     1     -42.855  56.297 -55.036  1.00  0.00     0.085 A 
HETATM   10  C   UNL     1     -42.921  56.185 -56.414  1.00  0.00     0.061 A 
HETATM   11  N   UNL     1     -43.305  55.039 -57.029  1.00  0.00    -0.397 N 
HETATM   12  H   UNL     1     -43.348  54.182 -56.466  1.00  0.00     0.156 HD
HETATM   13  H   UNL     1     -43.011  54.820 -57.980  1.00  0.00     0.156 HD
ENDROOT
BRANCH   9  14
HETATM   14  C   UNL     1     -43.129  55.256 -54.053  1.00  0.00     0.201 C 
HETATM   15  O   UNL     1     -44.243  55.101 -53.545  1.00  0.00    -0.286 OA
BRANCH  14  16
HETATM   16  C   UNL     1     -42.059  54.338 -53.581  1.00  0.00     0.018 A 
HETATM   17  C   UNL     1     -41.719  53.242 -54.388  1.00  0.00     0.055 A 
HETATM   18  C   UNL     1     -40.755  52.377 -53.918  1.00  0.00     0.106 A 
HETATM   19  C   UNL     1     -40.147  52.560 -52.697  1.00  0.00     0.105 A 
HETATM   20  O   UNL     1     -40.301  51.270 -54.562  1.00  0.00    -0.323 OA
HETATM   21  O   UNL     1     -39.233  51.591 -52.423  1.00  0.00    -0.323 OA
HETATM   22  C   UNL     1     -40.471  53.617 -51.873  1.00  0.00     0.040 A 
HETATM   23  C   UNL     1     -39.345  50.769 -53.604  1.00  0.00     0.352 A 
HETATM   24  C   UNL     1     -41.448  54.514 -52.318  1.00  0.00     0.018 A 
ENDBRANCH  14  16
ENDBRANCH   9  14
BRANCH   6  25
HETATM   25  C   UNL     1     -42.954  56.861 -59.602  1.00  0.00     0.418 C 
HETATM   26  F   UNL     1     -42.196  55.732 -59.706  1.00  0.00    -0.166 F 
HETATM   27  F   UNL     1     -44.243  56.443 -59.481  1.00  0.00    -0.166 F 
HETATM   28  F   UNL     1     -42.876  57.457 -60.827  1.00  0.00    -0.166 F 
ENDBRANCH   6  25
TORSDOF 3
ENDMDL
MODEL 3
REMARK VINA RESULT:      -8.2      2.420      2.926
REMARK  3 active torsions:
REMARK  status: ('A' for Active; 'I' for Inactive)
REMARK    1  A    between atoms: C_6  and  C_7 
REMARK    2  A    between atoms: C_13  and  C_14 
REMARK    3  A    between atoms: C_14  and  C_15 
ROOT
HETATM    1  C   UNL     1     -40.522  51.925 -54.304  1.00  0.00     0.070 C 
HETATM    2  C   UNL     1     -40.707  53.125 -53.419  1.00  0.00     0.033 A 
HETATM    3  N   UNL     1     -40.994  54.288 -54.028  1.00  0.00    -0.246 NA
HETATM    4  C   UNL     1     -41.163  55.341 -53.205  1.00  0.00     0.112 A 
HETATM    5  C   UNL     1     -41.062  55.344 -51.817  1.00  0.00     0.043 A 
HETATM    6  C   UNL     1     -40.754  54.102 -51.199  1.00  0.00     0.065 A 
HETATM    7  C   UNL     1     -40.586  52.988 -52.044  1.00  0.00     0.044 A 
HETATM    8  S   UNL     1     -41.542  56.866 -53.853  1.00  0.00    -0.063 SA
HETATM    9  C   UNL     1     -41.635  57.584 -52.305  1.00  0.00     0.085 A 
HETATM   10  C   UNL     1     -41.311  56.671 -51.316  1.00  0.00     0.061 A 
HETATM   11  N   UNL     1     -41.256  57.014 -50.006  1.00  0.00    -0.397 N 
HETATM   12  H   UNL     1     -41.254  58.013 -49.769  1.00  0.00     0.156 HD
HETATM   13  H   UNL     1     -40.683  56.494 -49.342  1.00  0.00     0.156 HD
ENDROOT
BRANCH   9  14
HETATM   14  C   UNL     1     -41.919  59.003 -52.136  1.00  0.00     0.201 C 
HETATM   15  O   UNL     1     -41.174  59.885 -52.572  1.00  0.00    -0.286 OA
BRANCH  14  16
HETATM   16  C   UNL     1     -43.120  59.468 -51.391  1.00  0.00     0.018 A 
HETATM   17  C   UNL     1     -42.995  60.594 -50.564  1.00  0.00     0.055 A 
HETATM   18  C   UNL     1     -44.105  60.988 -49.849  1.00  0.00     0.106 A 
HETATM   19  C   UNL     1     -45.297  60.305 -49.923  1.00  0.00     0.105 A 
HETATM   20  O   UNL     1     -44.169  62.050 -49.004  1.00  0.00    -0.323 OA
HETATM   21  O   UNL     1     -46.259  60.855 -49.135  1.00  0.00    -0.323 OA
HETATM   22  C   UNL     1     -45.448  59.186 -50.714  1.00  0.00     0.040 A 
HETATM   23  C   UNL     1     -45.534  61.954 -48.545  1.00  0.00     0.352 A 
HETATM   24  C   UNL     1     -44.340  58.755 -51.451  1.00  0.00     0.018 A 
ENDBRANCH  14  16
ENDBRANCH   9  14
BRANCH   6  25
HETATM   25  C   UNL     1     -40.657  53.913 -49.709  1.00  0.00     0.418 C 
HETATM   26  F   UNL     1     -39.639  54.616 -49.136  1.00  0.00    -0.166 F 
HETATM   27  F   UNL     1     -41.791  54.287 -49.056  1.00  0.00    -0.166 F 
HETATM   28  F   UNL     1     -40.440  52.614 -49.350  1.00  0.00    -0.166 F 
ENDBRANCH   6  25
TORSDOF 3
ENDMDL
MODEL 4
REMARK VINA RESULT:      -8.1      3.953      5.132
REMARK  3 active torsions:
REMARK  status: ('A' for Active; 'I' for Inactive)
REMARK    1  A    between atoms: C_6  and  C_7 
REMARK    2  A    between atoms: C_13  and  C_14 
REMARK    3  A    between atoms: C_14  and  C_15 
ROOT
HETATM    1  C   UNL     1     -39.858  53.986 -49.193  1.00  0.00     0.070 C 
HETATM    2  C   UNL     1     -40.471  54.174 -50.551  1.00  0.00     0.033 A 
HETATM    3  N   UNL     1     -41.309  55.214 -50.699  1.00  0.00    -0.246 NA
HETATM    4  C   UNL     1     -41.834  55.358 -51.931  1.00  0.00     0.112 A 
HETATM    5  C   UNL     1     -41.605  54.548 -53.039  1.00  0.00     0.043 A 
HETATM    6  C   UNL     1     -40.718  53.454 -52.855  1.00  0.00     0.065 A 
HETATM    7  C   UNL     1     -40.151  53.294 -51.575  1.00  0.00     0.044 A 
HETATM    8  S   UNL     1     -42.899  56.644 -52.248  1.00  0.00    -0.063 SA
HETATM    9  C   UNL     1     -43.063  56.202 -53.891  1.00  0.00     0.085 A 
HETATM   10  C   UNL     1     -42.358  55.043 -54.163  1.00  0.00     0.061 A 
HETATM   11  N   UNL     1     -42.376  54.456 -55.385  1.00  0.00    -0.397 N 
HETATM   12  H   UNL     1     -43.088  54.765 -56.057  1.00  0.00     0.156 HD
HETATM   13  H   UNL     1     -42.192  53.460 -55.501  1.00  0.00     0.156 HD
ENDROOT
BRANCH   9  14
HETATM   14  C   UNL     1     -43.933  56.938 -54.798  1.00  0.00     0.201 C 
HETATM   15  O   UNL     1     -45.159  56.971 -54.660  1.00  0.00    -0.286 OA
BRANCH  14  16
HETATM   16  C   UNL     1     -43.386  57.670 -55.972  1.00  0.00     0.018 A 
HETATM   17  C   UNL     1     -42.647  58.840 -55.741  1.00  0.00     0.055 A 
HETATM   18  C   UNL     1     -42.182  59.530 -56.839  1.00  0.00     0.106 A 
HETATM   19  C   UNL     1     -42.434  59.106 -58.123  1.00  0.00     0.105 A 
HETATM   20  O   UNL     1     -41.451  60.675 -56.806  1.00  0.00    -0.323 OA
HETATM   21  O   UNL     1     -41.892  59.932 -59.057  1.00  0.00    -0.323 OA
HETATM   22  C   UNL     1     -43.170  57.970 -58.384  1.00  0.00     0.040 A 
HETATM   23  C   UNL     1     -41.281  60.932 -58.215  1.00  0.00     0.352 A 
HETATM   24  C   UNL     1     -43.662  57.247 -57.292  1.00  0.00     0.018 A 
ENDBRANCH  14  16
ENDBRANCH   9  14
BRANCH   6  25
HETATM   25  C   UNL     1     -40.319  52.508 -53.956  1.00  0.00     0.418 C 
HETATM   26  F   UNL     1     -41.342  51.720 -54.394  1.00  0.00    -0.166 F 
HETATM   27  F   UNL     1     -39.839  53.153 -55.054  1.00  0.00    -0.166 F 
HETATM   28  F   UNL     1     -39.335  51.640 -53.582  1.00  0.00    -0.166 F 
ENDBRANCH   6  25
TORSDOF 3
ENDMDL
MODEL 5
REMARK VINA RESULT:      -8.1      4.160      5.411
REMARK  3 active torsions:
REMARK  status: ('A' for Active; 'I' for Inactive)
REMARK    1  A    between atoms: C_6  and  C_7 
REMARK    2  A    between atoms: C_13  and  C_14 
REMARK    3  A    between atoms: C_14  and  C_15 
ROOT
HETATM    1  C   UNL     1     -39.502  49.987 -53.944  1.00  0.00     0.070 C 
HETATM    2  C   UNL     1     -39.896  51.367 -53.503  1.00  0.00     0.033 A 
HETATM    3  N   UNL     1     -40.196  52.251 -54.470  1.00  0.00    -0.246 NA
HETATM    4  C   UNL     1     -40.554  53.475 -54.039  1.00  0.00     0.112 A 
HETATM    5  C   UNL     1     -40.635  53.908 -52.719  1.00  0.00     0.043 A 
HETATM    6  C   UNL     1     -40.310  52.956 -51.716  1.00  0.00     0.065 A 
HETATM    7  C   UNL     1     -39.943  51.666 -52.149  1.00  0.00     0.044 A 
HETATM    8  S   UNL     1     -40.970  54.678 -55.166  1.00  0.00    -0.063 SA
HETATM    9  C   UNL     1     -41.321  55.814 -53.938  1.00  0.00     0.085 A 
HETATM   10  C   UNL     1     -41.054  55.286 -52.686  1.00  0.00     0.061 A 
HETATM   11  N   UNL     1     -41.197  56.012 -51.550  1.00  0.00    -0.397 N 
HETATM   12  H   UNL     1     -41.307  57.029 -51.639  1.00  0.00     0.156 HD
HETATM   13  H   UNL     1     -40.673  55.788 -50.704  1.00  0.00     0.156 HD
ENDROOT
BRANCH   9  14
HETATM   14  C   UNL     1     -41.739  57.174 -54.250  1.00  0.00     0.201 C 
HETATM   15  O   UNL     1     -41.173  58.165 -53.781  1.00  0.00    -0.286 OA
BRANCH  14  16
HETATM   16  C   UNL     1     -42.904  57.441 -55.135  1.00  0.00     0.018 A 
HETATM   17  C   UNL     1     -42.669  57.624 -56.506  1.00  0.00     0.055 A 
HETATM   18  C   UNL     1     -43.753  57.912 -57.307  1.00  0.00     0.106 A 
HETATM   19  C   UNL     1     -45.024  58.031 -56.794  1.00  0.00     0.105 A 
HETATM   20  O   UNL     1     -43.715  58.117 -58.650  1.00  0.00    -0.323 OA
HETATM   21  O   UNL     1     -45.943  58.324 -57.752  1.00  0.00    -0.323 OA
HETATM   22  C   UNL     1     -45.285  57.873 -55.450  1.00  0.00     0.040 A 
HETATM   23  C   UNL     1     -45.105  58.390 -58.925  1.00  0.00     0.352 A 
HETATM   24  C   UNL     1     -44.207  57.583 -54.607  1.00  0.00     0.018 A 
ENDBRANCH  14  16
ENDBRANCH   9  14
BRANCH   6  25
HETATM   25  C   UNL     1     -40.390  53.237 -50.240  1.00  0.00     0.418 C 
HETATM   26  F   UNL     1     -40.238  52.126 -49.464  1.00  0.00    -0.166 F 
HETATM   27  F   UNL     1     -39.446  54.124 -49.821  1.00  0.00    -0.166 F 
HETATM   28  F   UNL     1     -41.587  53.774 -49.864  1.00  0.00    -0.166 F 
ENDBRANCH   6  25
TORSDOF 3
ENDMDL
MODEL 6
REMARK VINA RESULT:      -8.0      5.328      6.994
REMARK  3 active torsions:
REMARK  status: ('A' for Active; 'I' for Inactive)
REMARK    1  A    between atoms: C_6  and  C_7 
REMARK    2  A    between atoms: C_13  and  C_14 
REMARK    3  A    between atoms: C_14  and  C_15 
ROOT
HETATM    1  C   UNL     1     -44.039  54.788 -50.140  1.00  0.00     0.070 C 
HETATM    2  C   UNL     1     -43.487  54.869 -51.534  1.00  0.00     0.033 A 
HETATM    3  N   UNL     1     -43.976  55.840 -52.324  1.00  0.00    -0.246 NA
HETATM    4  C   UNL     1     -43.453  55.889 -53.565  1.00  0.00     0.112 A 
HETATM    5  C   UNL     1     -42.483  55.046 -54.099  1.00  0.00     0.043 A 
HETATM    6  C   UNL     1     -41.986  54.025 -53.244  1.00  0.00     0.065 A 
HETATM    7  C   UNL     1     -42.514  53.967 -51.939  1.00  0.00     0.044 A 
HETATM    8  S   UNL     1     -43.980  57.081 -54.655  1.00  0.00    -0.063 SA
HETATM    9  C   UNL     1     -42.901  56.552 -55.871  1.00  0.00     0.085 A 
HETATM   10  C   UNL     1     -42.200  55.433 -55.457  1.00  0.00     0.061 A 
HETATM   11  N   UNL     1     -41.323  54.788 -56.266  1.00  0.00    -0.397 N 
HETATM   12  H   UNL     1     -41.336  55.015 -57.267  1.00  0.00     0.156 HD
HETATM   13  H   UNL     1     -41.098  53.803 -56.131  1.00  0.00     0.156 HD
ENDROOT
BRANCH   9  14
HETATM   14  C   UNL     1     -42.860  57.182 -57.185  1.00  0.00     0.201 C 
HETATM   15  O   UNL     1     -42.131  58.145 -57.435  1.00  0.00    -0.286 OA
BRANCH  14  16
HETATM   16  C   UNL     1     -43.729  56.710 -58.296  1.00  0.00     0.018 A 
HETATM   17  C   UNL     1     -44.917  57.408 -58.554  1.00  0.00     0.055 A 
HETATM   18  C   UNL     1     -45.732  56.934 -59.559  1.00  0.00     0.106 A 
HETATM   19  C   UNL     1     -45.411  55.811 -60.286  1.00  0.00     0.105 A 
HETATM   20  O   UNL     1     -46.914  57.481 -59.947  1.00  0.00    -0.323 OA
HETATM   21  O   UNL     1     -46.350  55.514 -61.222  1.00  0.00    -0.323 OA
HETATM   22  C   UNL     1     -44.258  55.094 -60.047  1.00  0.00     0.040 A 
HETATM   23  C   UNL     1     -47.308  56.569 -60.993  1.00  0.00     0.352 A 
HETATM   24  C   UNL     1     -43.409  55.544 -59.030  1.00  0.00     0.018 A 
ENDBRANCH  14  16
ENDBRANCH   9  14
BRANCH   6  25
HETATM   25  C   UNL     1     -40.903  53.059 -53.640  1.00  0.00     0.418 C 
HETATM   26  F   UNL     1     -41.304  52.138 -54.562  1.00  0.00    -0.166 F 
HETATM   27  F   UNL     1     -39.814  53.679 -54.171  1.00  0.00    -0.166 F 
HETATM   28  F   UNL     1     -40.430  52.328 -52.589  1.00  0.00    -0.166 F 
ENDBRANCH   6  25
TORSDOF 3
ENDMDL
MODEL 7
REMARK VINA RESULT:      -8.0      5.202      7.811
REMARK  3 active torsions:
REMARK  status: ('A' for Active; 'I' for Inactive)
REMARK    1  A    between atoms: C_6  and  C_7 
REMARK    2  A    between atoms: C_13  and  C_14 
REMARK    3  A    between atoms: C_14  and  C_15 
ROOT
HETATM    1  C   UNL     1     -41.188  61.699 -58.079  1.00  0.00     0.070 C 
HETATM    2  C   UNL     1     -41.647  60.289 -57.844  1.00  0.00     0.033 A 
HETATM    3  N   UNL     1     -41.761  59.894 -56.565  1.00  0.00    -0.246 NA
HETATM    4  C   UNL     1     -42.184  58.627 -56.390  1.00  0.00     0.112 A 
HETATM    5  C   UNL     1     -42.500  57.704 -57.384  1.00  0.00     0.043 A 
HETATM    6  C   UNL     1     -42.367  58.146 -58.727  1.00  0.00     0.065 A 
HETATM    7  C   UNL     1     -41.937  59.473 -58.928  1.00  0.00     0.044 A 
HETATM    8  S   UNL     1     -42.382  58.013 -54.818  1.00  0.00    -0.063 SA
HETATM    9  C   UNL     1     -42.942  56.505 -55.396  1.00  0.00     0.085 A 
HETATM   10  C   UNL     1     -42.909  56.463 -56.779  1.00  0.00     0.061 A 
HETATM   11  N   UNL     1     -43.251  55.352 -57.477  1.00  0.00    -0.397 N 
HETATM   12  H   UNL     1     -43.337  54.468 -56.962  1.00  0.00     0.156 HD
HETATM   13  H   UNL     1     -42.891  55.180 -58.415  1.00  0.00     0.156 HD
ENDROOT
BRANCH   9  14
HETATM   14  C   UNL     1     -43.288  55.418 -54.489  1.00  0.00     0.201 C 
HETATM   15  O   UNL     1     -44.437  55.241 -54.076  1.00  0.00    -0.286 OA
BRANCH  14  16
HETATM   16  C   UNL     1     -42.256  54.475 -53.982  1.00  0.00     0.018 A 
HETATM   17  C   UNL     1     -42.255  54.161 -52.616  1.00  0.00     0.055 A 
HETATM   18  C   UNL     1     -41.267  53.318 -52.154  1.00  0.00     0.106 A 
HETATM   19  C   UNL     1     -40.302  52.805 -52.988  1.00  0.00     0.105 A 
HETATM   20  O   UNL     1     -41.114  52.906 -50.868  1.00  0.00    -0.323 OA
HETATM   21  O   UNL     1     -39.422  52.004 -52.331  1.00  0.00    -0.323 OA
HETATM   22  C   UNL     1     -40.265  53.107 -54.333  1.00  0.00     0.040 A 
HETATM   23  C   UNL     1     -39.934  52.082 -50.984  1.00  0.00     0.352 A 
HETATM   24  C   UNL     1     -41.251  53.963 -54.835  1.00  0.00     0.018 A 
ENDBRANCH  14  16
ENDBRANCH   9  14
BRANCH   6  25
HETATM   25  C   UNL     1     -42.712  57.299 -59.923  1.00  0.00     0.418 C 
HETATM   26  F   UNL     1     -42.520  57.935 -61.114  1.00  0.00    -0.166 F 
HETATM   27  F   UNL     1     -41.981  56.153 -59.983  1.00  0.00    -0.166 F 
HETATM   28  F   UNL     1     -44.017  56.902 -59.936  1.00  0.00    -0.166 F 
ENDBRANCH   6  25
TORSDOF 3
ENDMDL
MODEL 8
REMARK VINA RESULT:      -7.9      4.315      5.515
REMARK  3 active torsions:
REMARK  status: ('A' for Active; 'I' for Inactive)
REMARK    1  A    between atoms: C_6  and  C_7 
REMARK    2  A    between atoms: C_13  and  C_14 
REMARK    3  A    between atoms: C_14  and  C_15 
ROOT
HETATM    1  C   UNL     1     -39.460  50.618 -53.827  1.00  0.00     0.070 C 
HETATM    2  C   UNL     1     -40.166  51.890 -53.455  1.00  0.00     0.033 A 
HETATM    3  N   UNL     1     -40.853  52.509 -54.429  1.00  0.00    -0.246 NA
HETATM    4  C   UNL     1     -41.482  53.641 -54.059  1.00  0.00     0.112 A 
HETATM    5  C   UNL     1     -41.482  54.225 -52.795  1.00  0.00     0.043 A 
HETATM    6  C   UNL     1     -40.744  53.552 -51.784  1.00  0.00     0.065 A 
HETATM    7  C   UNL     1     -40.089  52.360 -52.151  1.00  0.00     0.044 A 
HETATM    8  S   UNL     1     -42.396  54.509 -55.199  1.00  0.00    -0.063 SA
HETATM    9  C   UNL     1     -42.869  55.676 -54.042  1.00  0.00     0.085 A 
HETATM   10  C   UNL     1     -42.272  55.428 -52.818  1.00  0.00     0.061 A 
HETATM   11  N   UNL     1     -42.444  56.247 -51.751  1.00  0.00    -0.397 N 
HETATM   12  H   UNL     1     -42.857  57.172 -51.916  1.00  0.00     0.156 HD
HETATM   13  H   UNL     1     -41.755  56.298 -51.002  1.00  0.00     0.156 HD
ENDROOT
BRANCH   9  14
HETATM   14  C   UNL     1     -43.707  56.813 -54.400  1.00  0.00     0.201 C 
HETATM   15  O   UNL     1     -44.692  57.145 -53.736  1.00  0.00    -0.286 OA
BRANCH  14  16
HETATM   16  C   UNL     1     -43.434  57.622 -55.618  1.00  0.00     0.018 A 
HETATM   17  C   UNL     1     -42.448  58.616 -55.549  1.00  0.00     0.055 A 
HETATM   18  C   UNL     1     -42.235  59.385 -56.672  1.00  0.00     0.106 A 
HETATM   19  C   UNL     1     -42.963  59.203 -57.826  1.00  0.00     0.105 A 
HETATM   20  O   UNL     1     -41.325  60.387 -56.788  1.00  0.00    -0.323 OA
HETATM   21  O   UNL     1     -42.599  60.068 -58.809  1.00  0.00    -0.323 OA
HETATM   22  C   UNL     1     -43.950  58.245 -57.921  1.00  0.00     0.040 A 
HETATM   23  C   UNL     1     -41.569  60.825 -58.141  1.00  0.00     0.352 A 
HETATM   24  C   UNL     1     -44.196  57.449 -56.797  1.00  0.00     0.018 A 
ENDBRANCH  14  16
ENDBRANCH   9  14
BRANCH   6  25
HETATM   25  C   UNL     1     -40.675  54.014 -50.353  1.00  0.00     0.418 C 
HETATM   26  F   UNL     1     -40.058  55.221 -50.199  1.00  0.00    -0.166 F 
HETATM   27  F   UNL     1     -41.904  54.142 -49.784  1.00  0.00    -0.166 F 
HETATM   28  F   UNL     1     -39.987  53.155 -49.548  1.00  0.00    -0.166 F 
ENDBRANCH   6  25
TORSDOF 3
ENDMDL
MODEL 9
REMARK VINA RESULT:      -7.9      4.592      6.717
REMARK  3 active torsions:
REMARK  status: ('A' for Active; 'I' for Inactive)
REMARK    1  A    between atoms: C_6  and  C_7 
REMARK    2  A    between atoms: C_13  and  C_14 
REMARK    3  A    between atoms: C_14  and  C_15 
ROOT
HETATM    1  C   UNL     1     -39.477  51.087 -52.087  1.00  0.00     0.070 C 
HETATM    2  C   UNL     1     -40.129  52.428 -52.266  1.00  0.00     0.033 A 
HETATM    3  N   UNL     1     -40.142  52.935 -53.510  1.00  0.00    -0.246 NA
HETATM    4  C   UNL     1     -40.742  54.134 -53.636  1.00  0.00     0.112 A 
HETATM    5  C   UNL     1     -41.331  54.886 -52.624  1.00  0.00     0.043 A 
HETATM    6  C   UNL     1     -41.300  54.329 -51.317  1.00  0.00     0.065 A 
HETATM    7  C   UNL     1     -40.686  53.070 -51.169  1.00  0.00     0.044 A 
HETATM    8  S   UNL     1     -40.834  54.875 -55.163  1.00  0.00    -0.063 SA
HETATM    9  C   UNL     1     -41.705  56.210 -54.546  1.00  0.00     0.085 A 
HETATM   10  C   UNL     1     -41.858  56.108 -53.174  1.00  0.00     0.061 A 
HETATM   11  N   UNL     1     -42.465  57.074 -52.441  1.00  0.00    -0.397 N 
HETATM   12  H   UNL     1     -42.629  57.985 -52.886  1.00  0.00     0.156 HD
HETATM   13  H   UNL     1     -42.262  57.198 -51.450  1.00  0.00     0.156 HD
ENDROOT
BRANCH   9  14
HETATM   14  C   UNL     1     -42.107  57.321 -55.398  1.00  0.00     0.201 C 
HETATM   15  O   UNL     1     -42.172  58.482 -54.985  1.00  0.00    -0.286 OA
BRANCH  14  16
HETATM   16  C   UNL     1     -42.495  57.107 -56.818  1.00  0.00     0.018 A 
HETATM   17  C   UNL     1     -43.218  55.950 -57.142  1.00  0.00     0.055 A 
HETATM   18  C   UNL     1     -43.535  55.743 -58.467  1.00  0.00     0.106 A 
HETATM   19  C   UNL     1     -43.153  56.626 -59.451  1.00  0.00     0.105 A 
HETATM   20  O   UNL     1     -44.228  54.685 -58.962  1.00  0.00    -0.323 OA
HETATM   21  O   UNL     1     -43.560  56.232 -60.687  1.00  0.00    -0.323 OA
HETATM   22  C   UNL     1     -42.428  57.764 -59.167  1.00  0.00     0.040 A 
HETATM   23  C   UNL     1     -44.231  54.994 -60.372  1.00  0.00     0.352 A 
HETATM   24  C   UNL     1     -42.086  58.003 -57.832  1.00  0.00     0.018 A 
ENDBRANCH  14  16
ENDBRANCH   9  14
BRANCH   6  25
HETATM   25  C   UNL     1     -41.931  54.982 -50.116  1.00  0.00     0.418 C 
HETATM   26  F   UNL     1     -43.271  55.193 -50.252  1.00  0.00    -0.166 F 
HETATM   27  F   UNL     1     -41.775  54.251 -48.979  1.00  0.00    -0.166 F 
HETATM   28  F   UNL     1     -41.403  56.209 -49.838  1.00  0.00    -0.166 F 
ENDBRANCH   6  25
TORSDOF 3
ENDMDL
MODEL 10
REMARK VINA RESULT:      -7.7      3.969      5.164
REMARK  3 active torsions:
REMARK  status: ('A' for Active; 'I' for Inactive)
REMARK    1  A    between atoms: C_6  and  C_7 
REMARK    2  A    between atoms: C_13  and  C_14 
REMARK    3  A    between atoms: C_14  and  C_15 
ROOT
HETATM    1  C   UNL     1     -40.807  54.055 -48.969  1.00  0.00     0.070 C 
HETATM    2  C   UNL     1     -40.956  54.470 -50.405  1.00  0.00     0.033 A 
HETATM    3  N   UNL     1     -41.337  55.739 -50.632  1.00  0.00    -0.246 NA
HETATM    4  C   UNL     1     -41.452  56.080 -51.930  1.00  0.00     0.112 A 
HETATM    5  C   UNL     1     -41.228  55.263 -53.034  1.00  0.00     0.043 A 
HETATM    6  C   UNL     1     -40.829  53.926 -52.766  1.00  0.00     0.065 A 
HETATM    7  C   UNL     1     -40.693  53.555 -51.414  1.00  0.00     0.044 A 
HETATM    8  S   UNL     1     -41.915  57.661 -52.348  1.00  0.00    -0.063 SA
HETATM    9  C   UNL     1     -41.790  57.336 -54.021  1.00  0.00     0.085 A 
HETATM   10  C   UNL     1     -41.462  56.010 -54.244  1.00  0.00     0.061 A 
HETATM   11  N   UNL     1     -41.360  55.489 -55.491  1.00  0.00    -0.397 N 
HETATM   12  H   UNL     1     -41.734  56.039 -56.274  1.00  0.00     0.156 HD
HETATM   13  H   UNL     1     -41.491  54.494 -55.666  1.00  0.00     0.156 HD
ENDROOT
BRANCH   9  14
HETATM   14  C   UNL     1     -42.107  58.345 -55.023  1.00  0.00     0.201 C 
HETATM   15  O   UNL     1     -41.435  59.371 -55.167  1.00  0.00    -0.286 OA
BRANCH  14  16
HETATM   16  C   UNL     1     -43.290  58.206 -55.914  1.00  0.00     0.018 A 
HETATM   17  C   UNL     1     -43.071  57.937 -57.273  1.00  0.00     0.055 A 
HETATM   18  C   UNL     1     -44.175  57.851 -58.093  1.00  0.00     0.106 A 
HETATM   19  C   UNL     1     -45.452  58.033 -57.614  1.00  0.00     0.105 A 
HETATM   20  O   UNL     1     -44.154  57.597 -59.428  1.00  0.00    -0.323 OA
HETATM   21  O   UNL     1     -46.392  57.913 -58.589  1.00  0.00    -0.323 OA
HETATM   22  C   UNL     1     -45.700  58.314 -56.288  1.00  0.00     0.040 A 
HETATM   23  C   UNL     1     -45.562  57.650 -59.739  1.00  0.00     0.352 A 
HETATM   24  C   UNL     1     -44.601  58.412 -55.427  1.00  0.00     0.018 A 
ENDBRANCH  14  16
ENDBRANCH   9  14
BRANCH   6  25
HETATM   25  C   UNL     1     -40.498  52.923 -53.838  1.00  0.00     0.418 C 
HETATM   26  F   UNL     1     -41.575  52.549 -54.586  1.00  0.00    -0.166 F 
HETATM   27  F   UNL     1     -39.566  53.382 -54.716  1.00  0.00    -0.166 F 
HETATM   28  F   UNL     1     -39.988  51.759 -53.339  1.00  0.00    -0.166 F 
ENDBRANCH   6  25
TORSDOF 3
ENDMDL
