MODEL 1
REMARK VINA RESULT:      -8.7      0.000      0.000
REMARK  4 active torsions:
REMARK  status: ('A' for Active; 'I' for Inactive)
REMARK    1  A    between atoms: C_5  and  C_6 
REMARK    2  A    between atoms: C_6  and  N_7 
REMARK    3  A    between atoms: C_6  and  C_18 
REMARK    4  A    between atoms: N_7  and  C_8 
ROOT
HETATM    1  C   UNL     1     -40.580  53.520 -52.612  1.00  0.00     0.290 C 
ENDROOT
BRANCH   1   2
HETATM    2  C   UNL     1     -40.173  52.063 -52.697  1.00  0.00     0.021 A 
HETATM    3  C   UNL     1     -39.976  51.265 -51.558  1.00  0.00     0.055 A 
HETATM    4  C   UNL     1     -39.582  49.936 -51.695  1.00  0.00     0.117 A 
HETATM    5  C   UNL     1     -39.366  49.374 -52.949  1.00  0.00     0.045 A 
HETATM    6  F   UNL     1     -39.416  49.185 -50.599  1.00  0.00    -0.206 F 
HETATM    7  C   UNL     1     -39.547  50.155 -54.088  1.00  0.00     0.046 A 
HETATM    8  C   UNL     1     -39.945  51.484 -53.954  1.00  0.00     0.125 A 
HETATM    9  F   UNL     1     -40.125  52.217 -55.062  1.00  0.00    -0.205 F 
ENDBRANCH   1   2
BRANCH   1  10
HETATM   10  N   UNL     1     -41.821  53.855 -53.354  1.00  0.00     0.101 N 
HETATM   11  H   UNL     1     -42.488  54.213 -52.674  1.00  0.00     0.317 HD
BRANCH  10  12
HETATM   12  C   UNL     1     -41.656  54.727 -54.524  1.00  0.00     0.225 C 
HETATM   13  C   UNL     1     -40.696  55.919 -54.327  1.00  0.00     0.069 C 
HETATM   14  C   UNL     1     -41.289  56.959 -53.395  1.00  0.00     0.190 C 
HETATM   15  N   UNL     1     -42.602  57.423 -53.966  1.00  0.00    -0.067 N 
HETATM   16  C   UNL     1     -40.546  58.273 -53.266  1.00  0.00     0.035 C 
HETATM   17  H   UNL     1     -42.436  57.754 -54.929  1.00  0.00     0.280 HD
HETATM   18  C   UNL     1     -43.618  56.327 -54.046  1.00  0.00     0.237 C 
HETATM   19  C   UNL     1     -42.968  58.647 -53.168  1.00  0.00     0.235 C 
HETATM   20  C   UNL     1     -43.056  55.231 -54.948  1.00  0.00     0.063 C 
HETATM   21  C   UNL     1     -41.618  59.224 -52.733  1.00  0.00     0.030 C 
ENDBRANCH  10  12
ENDBRANCH   1  10
BRANCH   1  22
HETATM   22  C   UNL     1     -40.704  53.988 -51.166  1.00  0.00    -0.018 A 
HETATM   23  C   UNL     1     -41.901  54.555 -50.710  1.00  0.00     0.029 A 
HETATM   24  C   UNL     1     -41.988  54.963 -49.388  1.00  0.00     0.116 A 
HETATM   25  N   UNL     1     -40.978  54.848 -48.502  1.00  0.00    -0.273 NA
HETATM   26  C   UNL     1     -39.822  54.325 -48.959  1.00  0.00     0.116 A 
HETATM   27  C   UNL     1     -39.639  53.885 -50.260  1.00  0.00     0.029 A 
ENDBRANCH   1  22
TORSDOF 4
ENDMDL
MODEL 2
REMARK VINA RESULT:      -8.2      1.832      4.113
REMARK  4 active torsions:
REMARK  status: ('A' for Active; 'I' for Inactive)
REMARK    1  A    between atoms: C_5  and  C_6 
REMARK    2  A    between atoms: C_6  and  N_7 
REMARK    3  A    between atoms: C_6  and  C_18 
REMARK    4  A    between atoms: N_7  and  C_8 
ROOT
HETATM    1  C   UNL     1     -41.337  53.557 -52.399  1.00  0.00     0.290 C 
ENDROOT
BRANCH   1   2
HETATM    2  C   UNL     1     -40.599  52.246 -52.578  1.00  0.00     0.021 A 
HETATM    3  C   UNL     1     -40.373  51.670 -53.839  1.00  0.00     0.055 A 
HETATM    4  C   UNL     1     -39.706  50.452 -53.942  1.00  0.00     0.117 A 
HETATM    5  C   UNL     1     -39.262  49.776 -52.811  1.00  0.00     0.045 A 
HETATM    6  F   UNL     1     -39.484  49.927 -55.154  1.00  0.00    -0.206 F 
HETATM    7  C   UNL     1     -39.488  50.328 -51.552  1.00  0.00     0.046 A 
HETATM    8  C   UNL     1     -40.151  51.549 -51.446  1.00  0.00     0.125 A 
HETATM    9  F   UNL     1     -40.350  52.069 -50.226  1.00  0.00    -0.205 F 
ENDBRANCH   1   2
BRANCH   1  10
HETATM   10  N   UNL     1     -40.610  54.564 -51.586  1.00  0.00     0.101 N 
HETATM   11  H   UNL     1     -40.360  55.327 -52.209  1.00  0.00     0.317 HD
BRANCH  10  12
HETATM   12  C   UNL     1     -41.285  55.010 -50.360  1.00  0.00     0.225 C 
HETATM   13  C   UNL     1     -42.799  55.274 -50.501  1.00  0.00     0.069 C 
HETATM   14  C   UNL     1     -43.070  56.515 -51.330  1.00  0.00     0.190 C 
HETATM   15  N   UNL     1     -42.384  57.687 -50.680  1.00  0.00    -0.067 N 
HETATM   16  C   UNL     1     -44.501  57.008 -51.387  1.00  0.00     0.035 C 
HETATM   17  H   UNL     1     -42.705  57.746 -49.702  1.00  0.00     0.280 HD
HETATM   18  C   UNL     1     -40.895  57.540 -50.648  1.00  0.00     0.237 C 
HETATM   19  C   UNL     1     -42.944  58.903 -51.371  1.00  0.00     0.235 C 
HETATM   20  C   UNL     1     -40.565  56.281 -49.850  1.00  0.00     0.063 C 
HETATM   21  C   UNL     1     -44.345  58.470 -51.809  1.00  0.00     0.030 C 
ENDBRANCH  10  12
ENDBRANCH   1  10
BRANCH   1  22
HETATM   22  C   UNL     1     -41.733  54.168 -53.739  1.00  0.00    -0.018 A 
HETATM   23  C   UNL     1     -40.968  55.203 -54.294  1.00  0.00     0.029 A 
HETATM   24  C   UNL     1     -41.346  55.733 -55.518  1.00  0.00     0.116 A 
HETATM   25  N   UNL     1     -42.420  55.312 -56.215  1.00  0.00    -0.273 NA
HETATM   26  C   UNL     1     -43.164  54.335 -55.659  1.00  0.00     0.116 A 
HETATM   27  C   UNL     1     -42.865  53.738 -54.444  1.00  0.00     0.029 A 
ENDBRANCH   1  22
TORSDOF 4
ENDMDL
MODEL 3
REMARK VINA RESULT:      -8.1      2.368      3.576
REMARK  4 active torsions:
REMARK  status: ('A' for Active; 'I' for Inactive)
REMARK    1  A    between atoms: C_5  and  C_6 
REMARK    2  A    between atoms: C_6  and  N_7 
REMARK    3  A    between atoms: C_6  and  C_18 
REMARK    4  A    between atoms: N_7  and  C_8 
ROOT
HETATM    1  C   UNL     1     -40.741  54.431 -53.303  1.00  0.00     0.290 C 
ENDROOT
BRANCH   1   2
HETATM    2  C   UNL     1     -40.353  52.969 -53.217  1.00  0.00     0.021 A 
HETATM    3  C   UNL     1     -40.648  52.046 -54.233  1.00  0.00     0.055 A 
HETATM    4  C   UNL     1     -40.285  50.709 -54.091  1.00  0.00     0.117 A 
HETATM    5  C   UNL     1     -39.637  50.256 -52.946  1.00  0.00     0.045 A 
HETATM    6  F   UNL     1     -40.559  49.847 -55.078  1.00  0.00    -0.206 F 
HETATM    7  C   UNL     1     -39.347  51.157 -51.924  1.00  0.00     0.046 A 
HETATM    8  C   UNL     1     -39.705  52.497 -52.066  1.00  0.00     0.125 A 
HETATM    9  F   UNL     1     -39.407  53.351 -51.076  1.00  0.00    -0.205 F 
ENDBRANCH   1   2
BRANCH   1  10
HETATM   10  N   UNL     1     -41.172  54.872 -54.654  1.00  0.00     0.101 N 
HETATM   11  H   UNL     1     -40.864  54.162 -55.313  1.00  0.00     0.317 HD
BRANCH  10  12
HETATM   12  C   UNL     1     -42.591  55.221 -54.794  1.00  0.00     0.225 C 
HETATM   13  C   UNL     1     -43.297  54.624 -56.030  1.00  0.00     0.069 C 
HETATM   14  C   UNL     1     -42.813  55.274 -57.312  1.00  0.00     0.190 C 
HETATM   15  N   UNL     1     -43.061  56.756 -57.223  1.00  0.00    -0.067 N 
HETATM   16  C   UNL     1     -43.559  54.929 -58.585  1.00  0.00     0.035 C 
HETATM   17  H   UNL     1     -44.061  56.904 -57.017  1.00  0.00     0.280 HD
HETATM   18  C   UNL     1     -42.284  57.407 -56.122  1.00  0.00     0.237 C 
HETATM   19  C   UNL     1     -42.847  57.275 -58.621  1.00  0.00     0.235 C 
HETATM   20  C   UNL     1     -42.708  56.764 -54.804  1.00  0.00     0.063 C 
HETATM   21  C   UNL     1     -43.203  56.087 -59.517  1.00  0.00     0.030 C 
ENDBRANCH  10  12
ENDBRANCH   1  10
BRANCH   1  22
HETATM   22  C   UNL     1     -41.813  54.791 -52.280  1.00  0.00    -0.018 A 
HETATM   23  C   UNL     1     -41.732  55.996 -51.570  1.00  0.00     0.029 A 
HETATM   24  C   UNL     1     -42.725  56.301 -50.652  1.00  0.00     0.116 A 
HETATM   25  N   UNL     1     -43.777  55.497 -50.394  1.00  0.00    -0.273 NA
HETATM   26  C   UNL     1     -43.829  54.328 -51.063  1.00  0.00     0.116 A 
HETATM   27  C   UNL     1     -42.889  53.936 -52.002  1.00  0.00     0.029 A 
ENDBRANCH   1  22
TORSDOF 4
ENDMDL
MODEL 4
REMARK VINA RESULT:      -8.0      1.464      2.164
REMARK  4 active torsions:
REMARK  status: ('A' for Active; 'I' for Inactive)
REMARK    1  A    between atoms: C_5  and  C_6 
REMARK    2  A    between atoms: C_6  and  N_7 
REMARK    3  A    between atoms: C_6  and  C_18 
REMARK    4  A    between atoms: N_7  and  C_8 
ROOT
HETATM    1  C   UNL     1     -40.676  53.872 -53.121  1.00  0.00     0.290 C 
ENDROOT
BRANCH   1   2
HETATM    2  C   UNL     1     -40.257  52.416 -53.091  1.00  0.00     0.021 A 
HETATM    3  C   UNL     1     -40.410  51.561 -54.195  1.00  0.00     0.055 A 
HETATM    4  C   UNL     1     -40.026  50.226 -54.104  1.00  0.00     0.117 A 
HETATM    5  C   UNL     1     -39.497  49.707 -52.927  1.00  0.00     0.045 A 
HETATM    6  F   UNL     1     -40.164  49.430 -55.172  1.00  0.00    -0.206 F 
HETATM    7  C   UNL     1     -39.348  50.539 -51.820  1.00  0.00     0.046 A 
HETATM    8  C   UNL     1     -39.727  51.877 -51.909  1.00  0.00     0.125 A 
HETATM    9  F   UNL     1     -39.566  52.665 -50.836  1.00  0.00    -0.205 F 
ENDBRANCH   1   2
BRANCH   1  10
HETATM   10  N   UNL     1     -41.370  54.285 -54.367  1.00  0.00     0.101 N 
HETATM   11  H   UNL     1     -42.368  54.186 -54.200  1.00  0.00     0.317 HD
BRANCH  10  12
HETATM   12  C   UNL     1     -40.997  55.600 -54.904  1.00  0.00     0.225 C 
HETATM   13  C   UNL     1     -41.069  56.768 -53.897  1.00  0.00     0.069 C 
HETATM   14  C   UNL     1     -42.504  57.106 -53.543  1.00  0.00     0.190 C 
HETATM   15  N   UNL     1     -43.244  57.450 -54.809  1.00  0.00    -0.067 N 
HETATM   16  C   UNL     1     -42.735  58.358 -52.721  1.00  0.00     0.035 C 
HETATM   17  H   UNL     1     -42.730  58.205 -55.288  1.00  0.00     0.280 HD
HETATM   18  C   UNL     1     -43.324  56.298 -55.762  1.00  0.00     0.237 C 
HETATM   19  C   UNL     1     -44.543  58.060 -54.352  1.00  0.00     0.235 C 
HETATM   20  C   UNL     1     -41.898  55.892 -56.128  1.00  0.00     0.063 C 
HETATM   21  C   UNL     1     -44.204  58.684 -52.996  1.00  0.00     0.030 C 
ENDBRANCH  10  12
ENDBRANCH   1  10
BRANCH   1  22
HETATM   22  C   UNL     1     -41.531  54.236 -51.912  1.00  0.00    -0.018 A 
HETATM   23  C   UNL     1     -42.877  53.850 -51.860  1.00  0.00     0.029 A 
HETATM   24  C   UNL     1     -43.628  54.186 -50.744  1.00  0.00     0.116 A 
HETATM   25  N   UNL     1     -43.139  54.875 -49.694  1.00  0.00    -0.273 NA
HETATM   26  C   UNL     1     -41.850  55.266 -49.768  1.00  0.00     0.116 A 
HETATM   27  C   UNL     1     -41.018  54.974 -50.836  1.00  0.00     0.029 A 
ENDBRANCH   1  22
TORSDOF 4
ENDMDL
MODEL 5
REMARK VINA RESULT:      -7.9      2.059      4.351
REMARK  4 active torsions:
REMARK  status: ('A' for Active; 'I' for Inactive)
REMARK    1  A    between atoms: C_5  and  C_6 
REMARK    2  A    between atoms: C_6  and  N_7 
REMARK    3  A    between atoms: C_6  and  C_18 
REMARK    4  A    between atoms: N_7  and  C_8 
ROOT
HETATM    1  C   UNL     1     -41.798  54.992 -52.395  1.00  0.00     0.290 C 
ENDROOT
BRANCH   1   2
HETATM    2  C   UNL     1     -41.018  53.723 -52.116  1.00  0.00     0.021 A 
HETATM    3  C   UNL     1     -40.348  53.009 -53.123  1.00  0.00     0.055 A 
HETATM    4  C   UNL     1     -39.663  51.837 -52.813  1.00  0.00     0.117 A 
HETATM    5  C   UNL     1     -39.636  51.341 -51.514  1.00  0.00     0.045 A 
HETATM    6  F   UNL     1     -39.016  51.180 -53.783  1.00  0.00    -0.206 F 
HETATM    7  C   UNL     1     -40.304  52.031 -50.505  1.00  0.00     0.046 A 
HETATM    8  C   UNL     1     -40.987  53.207 -50.812  1.00  0.00     0.125 A 
HETATM    9  F   UNL     1     -41.616  53.863 -49.826  1.00  0.00    -0.205 F 
ENDBRANCH   1   2
BRANCH   1  10
HETATM   10  N   UNL     1     -41.131  56.235 -51.934  1.00  0.00     0.101 N 
HETATM   11  H   UNL     1     -40.895  56.774 -52.764  1.00  0.00     0.317 HD
BRANCH  10  12
HETATM   12  C   UNL     1     -41.852  57.014 -50.919  1.00  0.00     0.225 C 
HETATM   13  C   UNL     1     -43.277  57.455 -51.317  1.00  0.00     0.069 C 
HETATM   14  C   UNL     1     -43.245  58.524 -52.392  1.00  0.00     0.190 C 
HETATM   15  N   UNL     1     -42.450  59.696 -51.882  1.00  0.00    -0.067 N 
HETATM   16  C   UNL     1     -44.560  59.193 -52.739  1.00  0.00     0.035 C 
HETATM   17  H   UNL     1     -42.862  59.999 -50.986  1.00  0.00     0.280 HD
HETATM   18  C   UNL     1     -41.018  59.350 -51.615  1.00  0.00     0.237 C 
HETATM   19  C   UNL     1     -42.721  60.810 -52.858  1.00  0.00     0.235 C 
HETATM   20  C   UNL     1     -40.991  58.248 -50.559  1.00  0.00     0.063 C 
HETATM   21  C   UNL     1     -44.118  60.499 -53.399  1.00  0.00     0.030 C 
ENDBRANCH  10  12
ENDBRANCH   1  10
BRANCH   1  22
HETATM   22  C   UNL     1     -42.158  55.119 -53.871  1.00  0.00    -0.018 A 
HETATM   23  C   UNL     1     -43.005  54.179 -54.472  1.00  0.00     0.029 A 
HETATM   24  C   UNL     1     -43.323  54.325 -55.814  1.00  0.00     0.116 A 
HETATM   25  N   UNL     1     -42.858  55.327 -56.588  1.00  0.00    -0.273 NA
HETATM   26  C   UNL     1     -42.021  56.210 -56.005  1.00  0.00     0.116 A 
HETATM   27  C   UNL     1     -41.650  56.152 -54.672  1.00  0.00     0.029 A 
ENDBRANCH   1  22
TORSDOF 4
ENDMDL
MODEL 6
REMARK VINA RESULT:      -7.8      2.858      6.556
REMARK  4 active torsions:
REMARK  status: ('A' for Active; 'I' for Inactive)
REMARK    1  A    between atoms: C_5  and  C_6 
REMARK    2  A    between atoms: C_6  and  N_7 
REMARK    3  A    between atoms: C_6  and  C_18 
REMARK    4  A    between atoms: N_7  and  C_8 
ROOT
HETATM    1  C   UNL     1     -42.503  56.326 -55.067  1.00  0.00     0.290 C 
ENDROOT
BRANCH   1   2
HETATM    2  C   UNL     1     -42.530  56.615 -56.554  1.00  0.00     0.021 A 
HETATM    3  C   UNL     1     -42.121  57.845 -57.094  1.00  0.00     0.055 A 
HETATM    4  C   UNL     1     -42.186  58.063 -58.468  1.00  0.00     0.117 A 
HETATM    5  C   UNL     1     -42.663  57.082 -59.331  1.00  0.00     0.045 A 
HETATM    6  F   UNL     1     -41.775  59.236 -58.966  1.00  0.00    -0.206 F 
HETATM    7  C   UNL     1     -43.083  55.860 -58.810  1.00  0.00     0.046 A 
HETATM    8  C   UNL     1     -43.015  55.638 -57.436  1.00  0.00     0.125 A 
HETATM    9  F   UNL     1     -43.413  54.451 -56.955  1.00  0.00    -0.205 F 
ENDBRANCH   1   2
BRANCH   1  10
HETATM   10  N   UNL     1     -41.637  55.184 -54.680  1.00  0.00     0.101 N 
HETATM   11  H   UNL     1     -40.877  55.562 -54.119  1.00  0.00     0.317 HD
BRANCH  10  12
HETATM   12  C   UNL     1     -42.317  54.047 -54.048  1.00  0.00     0.225 C 
HETATM   13  C   UNL     1     -42.988  54.351 -52.691  1.00  0.00     0.069 C 
HETATM   14  C   UNL     1     -41.957  54.584 -51.604  1.00  0.00     0.190 C 
HETATM   15  N   UNL     1     -41.081  53.364 -51.502  1.00  0.00    -0.067 N 
HETATM   16  C   UNL     1     -42.467  54.697 -50.182  1.00  0.00     0.035 C 
HETATM   17  H   UNL     1     -41.687  52.544 -51.350  1.00  0.00     0.280 HD
HETATM   18  C   UNL     1     -40.298  53.109 -52.752  1.00  0.00     0.237 C 
HETATM   19  C   UNL     1     -40.303  53.545 -50.224  1.00  0.00     0.235 C 
HETATM   20  C   UNL     1     -41.291  52.899 -53.892  1.00  0.00     0.063 C 
HETATM   21  C   UNL     1     -41.224  54.393 -49.345  1.00  0.00     0.030 C 
ENDBRANCH  10  12
ENDBRANCH   1  10
BRANCH   1  22
HETATM   22  C   UNL     1     -42.117  57.561 -54.260  1.00  0.00    -0.018 A 
HETATM   23  C   UNL     1     -40.834  57.667 -53.708  1.00  0.00     0.029 A 
HETATM   24  C   UNL     1     -40.507  58.805 -52.986  1.00  0.00     0.116 A 
HETATM   25  N   UNL     1     -41.359  59.829 -52.778  1.00  0.00    -0.273 NA
HETATM   26  C   UNL     1     -42.600  59.703 -53.291  1.00  0.00     0.116 A 
HETATM   27  C   UNL     1     -43.019  58.609 -54.030  1.00  0.00     0.029 A 
ENDBRANCH   1  22
TORSDOF 4
ENDMDL
MODEL 7
REMARK VINA RESULT:      -7.8     13.784     15.798
REMARK  4 active torsions:
REMARK  status: ('A' for Active; 'I' for Inactive)
REMARK    1  A    between atoms: C_5  and  C_6 
REMARK    2  A    between atoms: C_6  and  N_7 
REMARK    3  A    between atoms: C_6  and  C_18 
REMARK    4  A    between atoms: N_7  and  C_8 
ROOT
HETATM    1  C   UNL     1     -35.972  41.002 -55.840  1.00  0.00     0.290 C 
ENDROOT
BRANCH   1   2
HETATM    2  C   UNL     1     -36.619  40.975 -57.210  1.00  0.00     0.021 A 
HETATM    3  C   UNL     1     -36.589  42.074 -58.084  1.00  0.00     0.055 A 
HETATM    4  C   UNL     1     -37.220  42.001 -59.323  1.00  0.00     0.117 A 
HETATM    5  C   UNL     1     -37.898  40.853 -59.719  1.00  0.00     0.045 A 
HETATM    6  F   UNL     1     -37.166  43.053 -60.150  1.00  0.00    -0.206 F 
HETATM    7  C   UNL     1     -37.947  39.757 -58.860  1.00  0.00     0.046 A 
HETATM    8  C   UNL     1     -37.313  39.827 -57.620  1.00  0.00     0.125 A 
HETATM    9  F   UNL     1     -37.362  38.759 -56.811  1.00  0.00    -0.205 F 
ENDBRANCH   1   2
BRANCH   1  10
HETATM   10  N   UNL     1     -36.836  40.499 -54.744  1.00  0.00     0.101 N 
HETATM   11  H   UNL     1     -36.434  39.621 -54.425  1.00  0.00     0.317 HD
BRANCH  10  12
HETATM   12  C   UNL     1     -37.107  41.445 -53.654  1.00  0.00     0.225 C 
HETATM   13  C   UNL     1     -35.857  42.043 -52.973  1.00  0.00     0.069 C 
HETATM   14  C   UNL     1     -35.126  41.003 -52.146  1.00  0.00     0.190 C 
HETATM   15  N   UNL     1     -36.077  40.451 -51.118  1.00  0.00    -0.067 N 
HETATM   16  C   UNL     1     -33.995  41.492 -51.265  1.00  0.00     0.035 C 
HETATM   17  H   UNL     1     -36.459  41.241 -50.575  1.00  0.00     0.280 HD
HETATM   18  C   UNL     1     -37.240  39.735 -51.732  1.00  0.00     0.237 C 
HETATM   19  C   UNL     1     -35.213  39.672 -50.161  1.00  0.00     0.235 C 
HETATM   20  C   UNL     1     -37.996  40.731 -52.607  1.00  0.00     0.063 C 
HETATM   21  C   UNL     1     -33.855  40.373 -50.232  1.00  0.00     0.030 C 
ENDBRANCH  10  12
ENDBRANCH   1  10
BRANCH   1  22
HETATM   22  C   UNL     1     -34.643  40.253 -55.832  1.00  0.00    -0.018 A 
HETATM   23  C   UNL     1     -34.528  39.032 -55.155  1.00  0.00     0.029 A 
HETATM   24  C   UNL     1     -33.311  38.369 -55.172  1.00  0.00     0.116 A 
HETATM   25  N   UNL     1     -32.214  38.834 -55.804  1.00  0.00    -0.273 NA
HETATM   26  C   UNL     1     -32.329  40.024 -56.427  1.00  0.00     0.116 A 
HETATM   27  C   UNL     1     -33.503  40.759 -56.472  1.00  0.00     0.029 A 
ENDBRANCH   1  22
TORSDOF 4
ENDMDL
MODEL 8
REMARK VINA RESULT:      -7.7      3.326      5.711
REMARK  4 active torsions:
REMARK  status: ('A' for Active; 'I' for Inactive)
REMARK    1  A    between atoms: C_5  and  C_6 
REMARK    2  A    between atoms: C_6  and  N_7 
REMARK    3  A    between atoms: C_6  and  C_18 
REMARK    4  A    between atoms: N_7  and  C_8 
ROOT
HETATM    1  C   UNL     1     -42.387  56.043 -52.067  1.00  0.00     0.290 C 
ENDROOT
BRANCH   1   2
HETATM    2  C   UNL     1     -42.047  57.462 -51.660  1.00  0.00     0.021 A 
HETATM    3  C   UNL     1     -40.725  57.923 -51.549  1.00  0.00     0.055 A 
HETATM    4  C   UNL     1     -40.472  59.233 -51.150  1.00  0.00     0.117 A 
HETATM    5  C   UNL     1     -41.510  60.106 -50.844  1.00  0.00     0.045 A 
HETATM    6  F   UNL     1     -39.206  59.660 -51.067  1.00  0.00    -0.206 F 
HETATM    7  C   UNL     1     -42.827  59.662 -50.939  1.00  0.00     0.046 A 
HETATM    8  C   UNL     1     -43.084  58.353 -51.342  1.00  0.00     0.125 A 
HETATM    9  F   UNL     1     -44.358  57.947 -51.437  1.00  0.00    -0.205 F 
ENDBRANCH   1   2
BRANCH   1  10
HETATM   10  N   UNL     1     -42.177  55.751 -53.507  1.00  0.00     0.101 N 
HETATM   11  H   UNL     1     -41.338  55.180 -53.577  1.00  0.00     0.317 HD
BRANCH  10  12
HETATM   12  C   UNL     1     -43.328  55.186 -54.223  1.00  0.00     0.225 C 
HETATM   13  C   UNL     1     -43.069  54.817 -55.699  1.00  0.00     0.069 C 
HETATM   14  C   UNL     1     -42.898  56.055 -56.558  1.00  0.00     0.190 C 
HETATM   15  N   UNL     1     -44.136  56.902 -56.432  1.00  0.00    -0.067 N 
HETATM   16  C   UNL     1     -42.835  55.850 -58.058  1.00  0.00     0.035 C 
HETATM   17  H   UNL     1     -44.951  56.319 -56.676  1.00  0.00     0.280 HD
HETATM   18  C   UNL     1     -44.353  57.404 -55.039  1.00  0.00     0.237 C 
HETATM   19  C   UNL     1     -44.022  57.930 -57.528  1.00  0.00     0.235 C 
HETATM   20  C   UNL     1     -44.498  56.193 -54.121  1.00  0.00     0.063 C 
HETATM   21  C   UNL     1     -43.194  57.231 -58.609  1.00  0.00     0.030 C 
ENDBRANCH  10  12
ENDBRANCH   1  10
BRANCH   1  22
HETATM   22  C   UNL     1     -41.636  55.020 -51.221  1.00  0.00    -0.018 A 
HETATM   23  C   UNL     1     -40.805  54.073 -51.834  1.00  0.00     0.029 A 
HETATM   24  C   UNL     1     -40.128  53.161 -51.040  1.00  0.00     0.116 A 
HETATM   25  N   UNL     1     -40.222  53.126 -49.695  1.00  0.00    -0.273 NA
HETATM   26  C   UNL     1     -41.046  54.024 -49.118  1.00  0.00     0.116 A 
HETATM   27  C   UNL     1     -41.760  54.977 -49.825  1.00  0.00     0.029 A 
ENDBRANCH   1  22
TORSDOF 4
ENDMDL
MODEL 9
REMARK VINA RESULT:      -7.7      3.387      5.882
REMARK  4 active torsions:
REMARK  status: ('A' for Active; 'I' for Inactive)
REMARK    1  A    between atoms: C_5  and  C_6 
REMARK    2  A    between atoms: C_6  and  N_7 
REMARK    3  A    between atoms: C_6  and  C_18 
REMARK    4  A    between atoms: N_7  and  C_8 
ROOT
HETATM    1  C   UNL     1     -42.142  55.530 -54.099  1.00  0.00     0.290 C 
ENDROOT
BRANCH   1   2
HETATM    2  C   UNL     1     -41.777  56.757 -53.288  1.00  0.00     0.021 A 
HETATM    3  C   UNL     1     -40.564  57.444 -53.458  1.00  0.00     0.055 A 
HETATM    4  C   UNL     1     -40.272  58.554 -52.669  1.00  0.00     0.117 A 
HETATM    5  C   UNL     1     -41.159  58.999 -51.696  1.00  0.00     0.045 A 
HETATM    6  F   UNL     1     -39.118  59.206 -52.858  1.00  0.00    -0.206 F 
HETATM    7  C   UNL     1     -42.363  58.323 -51.507  1.00  0.00     0.046 A 
HETATM    8  C   UNL     1     -42.659  57.214 -52.298  1.00  0.00     0.125 A 
HETATM    9  F   UNL     1     -43.827  56.582 -52.108  1.00  0.00    -0.205 F 
ENDBRANCH   1   2
BRANCH   1  10
HETATM   10  N   UNL     1     -42.005  55.703 -55.567  1.00  0.00     0.101 N 
HETATM   11  H   UNL     1     -41.443  54.927 -55.908  1.00  0.00     0.317 HD
BRANCH  10  12
HETATM   12  C   UNL     1     -43.257  55.887 -56.312  1.00  0.00     0.225 C 
HETATM   13  C   UNL     1     -43.150  55.693 -57.840  1.00  0.00     0.069 C 
HETATM   14  C   UNL     1     -42.373  56.822 -58.488  1.00  0.00     0.190 C 
HETATM   15  N   UNL     1     -43.058  58.124 -58.165  1.00  0.00    -0.067 N 
HETATM   16  C   UNL     1     -42.357  56.868 -60.002  1.00  0.00     0.035 C 
HETATM   17  H   UNL     1     -44.043  58.053 -58.464  1.00  0.00     0.280 HD
HETATM   18  C   UNL     1     -43.062  58.427 -56.699  1.00  0.00     0.237 C 
HETATM   19  C   UNL     1     -42.423  59.139 -59.079  1.00  0.00     0.235 C 
HETATM   20  C   UNL     1     -43.805  57.298 -55.989  1.00  0.00     0.063 C 
HETATM   21  C   UNL     1     -41.990  58.323 -60.299  1.00  0.00     0.030 C 
ENDBRANCH  10  12
ENDBRANCH   1  10
BRANCH   1  22
HETATM   22  C   UNL     1     -41.354  54.304 -53.650  1.00  0.00    -0.018 A 
HETATM   23  C   UNL     1     -40.868  53.394 -54.599  1.00  0.00     0.029 A 
HETATM   24  C   UNL     1     -40.148  52.293 -54.163  1.00  0.00     0.116 A 
HETATM   25  N   UNL     1     -39.885  52.037 -52.866  1.00  0.00    -0.273 NA
HETATM   26  C   UNL     1     -40.381  52.905 -51.960  1.00  0.00     0.116 A 
HETATM   27  C   UNL     1     -41.107  54.035 -52.297  1.00  0.00     0.029 A 
ENDBRANCH   1  22
TORSDOF 4
ENDMDL
MODEL 10
REMARK VINA RESULT:      -7.7      2.808      4.770
REMARK  4 active torsions:
REMARK  status: ('A' for Active; 'I' for Inactive)
REMARK    1  A    between atoms: C_5  and  C_6 
REMARK    2  A    between atoms: C_6  and  N_7 
REMARK    3  A    between atoms: C_6  and  C_18 
REMARK    4  A    between atoms: N_7  and  C_8 
ROOT
HETATM    1  C   UNL     1     -41.162  57.254 -53.864  1.00  0.00     0.290 C 
ENDROOT
BRANCH   1   2
HETATM    2  C   UNL     1     -41.248  55.837 -53.334  1.00  0.00     0.021 A 
HETATM    3  C   UNL     1     -42.016  55.495 -52.209  1.00  0.00     0.055 A 
HETATM    4  C   UNL     1     -42.042  54.179 -51.754  1.00  0.00     0.117 A 
HETATM    5  C   UNL     1     -41.307  53.183 -52.388  1.00  0.00     0.045 A 
HETATM    6  F   UNL     1     -42.794  53.869 -50.690  1.00  0.00    -0.206 F 
HETATM    7  C   UNL     1     -40.532  53.508 -53.498  1.00  0.00     0.046 A 
HETATM    8  C   UNL     1     -40.507  54.823 -53.959  1.00  0.00     0.125 A 
HETATM    9  F   UNL     1     -39.763  55.114 -55.036  1.00  0.00    -0.205 F 
ENDBRANCH   1   2
BRANCH   1  10
HETATM   10  N   UNL     1     -42.083  57.544 -54.991  1.00  0.00     0.101 N 
HETATM   11  H   UNL     1     -41.507  57.770 -55.798  1.00  0.00     0.317 HD
BRANCH  10  12
HETATM   12  C   UNL     1     -43.101  56.522 -55.270  1.00  0.00     0.225 C 
HETATM   13  C   UNL     1     -42.877  55.705 -56.560  1.00  0.00     0.069 C 
HETATM   14  C   UNL     1     -43.111  56.549 -57.798  1.00  0.00     0.190 C 
HETATM   15  N   UNL     1     -44.513  57.094 -57.750  1.00  0.00    -0.067 N 
HETATM   16  C   UNL     1     -43.122  55.830 -59.131  1.00  0.00     0.035 C 
HETATM   17  H   UNL     1     -45.164  56.301 -57.642  1.00  0.00     0.280 HD
HETATM   18  C   UNL     1     -44.738  58.011 -56.589  1.00  0.00     0.237 C 
HETATM   19  C   UNL     1     -44.766  57.649 -59.128  1.00  0.00     0.235 C 
HETATM   20  C   UNL     1     -44.482  57.218 -55.309  1.00  0.00     0.063 C 
HETATM   21  C   UNL     1     -43.877  56.801 -60.040  1.00  0.00     0.030 C 
ENDBRANCH  10  12
ENDBRANCH   1  10
BRANCH   1  22
HETATM   22  C   UNL     1     -41.365  58.283 -52.757  1.00  0.00    -0.018 A 
HETATM   23  C   UNL     1     -42.572  58.989 -52.665  1.00  0.00     0.029 A 
HETATM   24  C   UNL     1     -42.732  59.912 -51.643  1.00  0.00     0.116 A 
HETATM   25  N   UNL     1     -41.785  60.178 -50.721  1.00  0.00    -0.273 NA
HETATM   26  C   UNL     1     -40.618  59.513 -50.836  1.00  0.00     0.116 A 
HETATM   27  C   UNL     1     -40.364  58.569 -51.818  1.00  0.00     0.029 A 
ENDBRANCH   1  22
TORSDOF 4
ENDMDL
