MODEL 1
REMARK VINA RESULT:      -8.7      0.000      0.000
REMARK  3 active torsions:
REMARK  status: ('A' for Active; 'I' for Inactive)
REMARK    1  A    between atoms: C_8  and  C_9 
REMARK       I    between atoms: C_9  and  N_10 
REMARK    2  A    between atoms: N_10  and  C_11 
REMARK    3  A    between atoms: C_18  and  C_19 
REMARK       I    between atoms: C_19  and  N_20 
ROOT
HETATM    1  C   UNL     1     -42.530  55.448 -56.204  1.00  0.00     0.036 A 
HETATM    2  C   UNL     1     -43.112  55.025 -57.407  1.00  0.00     0.046 A 
HETATM    3  C   UNL     1     -43.658  55.981 -58.291  1.00  0.00     0.030 A 
HETATM    4  C   UNL     1     -43.571  57.327 -57.959  1.00  0.00     0.063 A 
HETATM    5  N   UNL     1     -44.163  57.994 -58.996  1.00  0.00    -0.277 N 
HETATM    6  H   UNL     1     -44.272  58.996 -59.098  1.00  0.00     0.189 HD
HETATM    7  N   UNL     1     -44.658  57.200 -59.959  1.00  0.00    -0.168 NA
HETATM    8  C   UNL     1     -44.358  55.951 -59.534  1.00  0.00     0.156 A 
HETATM    9  C   UNL     1     -42.987  57.785 -56.777  1.00  0.00     0.034 A 
HETATM   10  C   UNL     1     -42.483  56.816 -55.901  1.00  0.00     0.032 A 
ENDROOT
BRANCH   1  11
HETATM   11  N   UNL     1     -42.018  54.559 -55.232  1.00  0.00    -0.323 N 
HETATM   12  C   UNL     1     -40.712  54.490 -54.778  1.00  0.00     0.258 C 
HETATM   13  O   UNL     1     -39.810  55.275 -55.034  1.00  0.00    -0.267 OA
HETATM   14  H   UNL     1     -42.684  53.895 -54.861  1.00  0.00     0.169 HD
BRANCH  12  15
HETATM   15  C   UNL     1     -40.417  53.336 -53.885  1.00  0.00     0.056 A 
HETATM   16  C   UNL     1     -40.514  53.456 -52.492  1.00  0.00     0.048 A 
HETATM   17  C   UNL     1     -40.944  54.728 -51.816  1.00  0.00     0.071 C 
HETATM   18  N   UNL     1     -40.223  52.424 -51.651  1.00  0.00    -0.241 NA
HETATM   19  C   UNL     1     -39.847  51.255 -52.206  1.00  0.00     0.126 A 
HETATM   20 CL   UNL     1     -39.492  50.011 -51.084  1.00  0.00    -0.063 Cl
HETATM   21  C   UNL     1     -39.744  51.037 -53.567  1.00  0.00     0.045 A 
HETATM   22  C   UNL     1     -40.039  52.097 -54.421  1.00  0.00     0.022 A 
ENDBRANCH  12  15
ENDBRANCH   1  11
BRANCH   8  23
HETATM   23  C   UNL     1     -44.765  54.767 -60.304  1.00  0.00     0.270 C 
HETATM   24  N   UNL     1     -45.029  53.665 -59.537  1.00  0.00    -0.365 N 
HETATM   25  H   UNL     1     -44.904  53.732 -58.534  1.00  0.00     0.159 HD
HETATM   26  H   UNL     1     -45.276  52.796 -59.983  1.00  0.00     0.159 HD
HETATM   27  O   UNL     1     -44.857  54.725 -61.527  1.00  0.00    -0.266 OA
ENDBRANCH   8  23
TORSDOF 3
ENDMDL
MODEL 2
REMARK VINA RESULT:      -8.3      3.953      5.430
REMARK  3 active torsions:
REMARK  status: ('A' for Active; 'I' for Inactive)
REMARK    1  A    between atoms: C_8  and  C_9 
REMARK       I    between atoms: C_9  and  N_10 
REMARK    2  A    between atoms: N_10  and  C_11 
REMARK    3  A    between atoms: C_18  and  C_19 
REMARK       I    between atoms: C_19  and  N_20 
ROOT
HETATM    1  C   UNL     1     -43.483  56.133 -53.497  1.00  0.00     0.036 A 
HETATM    2  C   UNL     1     -43.951  56.957 -52.463  1.00  0.00     0.046 A 
HETATM    3  C   UNL     1     -44.662  58.135 -52.779  1.00  0.00     0.030 A 
HETATM    4  C   UNL     1     -44.912  58.429 -54.114  1.00  0.00     0.063 A 
HETATM    5  N   UNL     1     -45.619  59.600 -54.099  1.00  0.00    -0.277 N 
HETATM    6  H   UNL     1     -45.980  60.108 -54.898  1.00  0.00     0.189 HD
HETATM    7  N   UNL     1     -45.821  60.113 -52.875  1.00  0.00    -0.168 NA
HETATM    8  C   UNL     1     -45.230  59.221 -52.048  1.00  0.00     0.156 A 
HETATM    9  C   UNL     1     -44.475  57.625 -55.167  1.00  0.00     0.034 A 
HETATM   10  C   UNL     1     -43.742  56.480 -54.830  1.00  0.00     0.032 A 
ENDROOT
BRANCH   1  11
HETATM   11  N   UNL     1     -42.708  54.971 -53.276  1.00  0.00    -0.323 N 
HETATM   12  C   UNL     1     -41.343  54.837 -53.464  1.00  0.00     0.258 C 
HETATM   13  O   UNL     1     -40.552  55.735 -53.718  1.00  0.00    -0.267 OA
HETATM   14  H   UNL     1     -43.227  54.158 -52.975  1.00  0.00     0.169 HD
BRANCH  12  15
HETATM   15  C   UNL     1     -40.823  53.450 -53.328  1.00  0.00     0.056 A 
HETATM   16  C   UNL     1     -40.321  52.982 -52.105  1.00  0.00     0.048 A 
HETATM   17  C   UNL     1     -40.301  53.826 -50.862  1.00  0.00     0.071 C 
HETATM   18  N   UNL     1     -39.814  51.726 -51.961  1.00  0.00    -0.241 NA
HETATM   19  C   UNL     1     -39.823  50.921 -53.042  1.00  0.00     0.126 A 
HETATM   20 CL   UNL     1     -39.163  49.362 -52.781  1.00  0.00    -0.063 Cl
HETATM   21  C   UNL     1     -40.316  51.287 -54.280  1.00  0.00     0.045 A 
HETATM   22  C   UNL     1     -40.829  52.574 -54.423  1.00  0.00     0.022 A 
ENDBRANCH  12  15
ENDBRANCH   1  11
BRANCH   8  23
HETATM   23  C   UNL     1     -45.198  59.435 -50.594  1.00  0.00     0.270 C 
HETATM   24  N   UNL     1     -44.066  60.060 -50.146  1.00  0.00    -0.365 N 
HETATM   25  H   UNL     1     -43.346  60.297 -50.817  1.00  0.00     0.159 HD
HETATM   26  H   UNL     1     -43.940  60.211 -49.158  1.00  0.00     0.159 HD
HETATM   27  O   UNL     1     -46.080  59.086 -49.816  1.00  0.00    -0.266 OA
ENDBRANCH   8  23
TORSDOF 3
ENDMDL
MODEL 3
REMARK VINA RESULT:      -8.1     14.976     16.904
REMARK  3 active torsions:
REMARK  status: ('A' for Active; 'I' for Inactive)
REMARK    1  A    between atoms: C_8  and  C_9 
REMARK       I    between atoms: C_9  and  N_10 
REMARK    2  A    between atoms: N_10  and  C_11 
REMARK    3  A    between atoms: C_18  and  C_19 
REMARK       I    between atoms: C_19  and  N_20 
ROOT
HETATM    1  C   UNL     1     -37.533  40.871 -57.446  1.00  0.00     0.036 A 
HETATM    2  C   UNL     1     -37.907  40.800 -56.096  1.00  0.00     0.046 A 
HETATM    3  C   UNL     1     -37.107  41.427 -55.117  1.00  0.00     0.030 A 
HETATM    4  C   UNL     1     -35.982  42.135 -55.524  1.00  0.00     0.063 A 
HETATM    5  N   UNL     1     -35.433  42.632 -54.374  1.00  0.00    -0.277 N 
HETATM    6  H   UNL     1     -34.603  43.208 -54.290  1.00  0.00     0.189 HD
HETATM    7  N   UNL     1     -36.080  42.282 -53.251  1.00  0.00    -0.168 NA
HETATM    8  C   UNL     1     -37.115  41.532 -53.694  1.00  0.00     0.156 A 
HETATM    9  C   UNL     1     -35.588  42.239 -56.859  1.00  0.00     0.034 A 
HETATM   10  C   UNL     1     -36.379  41.579 -57.807  1.00  0.00     0.032 A 
ENDROOT
BRANCH   1  11
HETATM   11  N   UNL     1     -38.237  40.220 -58.484  1.00  0.00    -0.323 N 
HETATM   12  C   UNL     1     -38.179  38.875 -58.809  1.00  0.00     0.258 C 
HETATM   13  O   UNL     1     -37.619  37.996 -58.169  1.00  0.00    -0.267 OA
HETATM   14  H   UNL     1     -38.818  40.820 -59.053  1.00  0.00     0.169 HD
BRANCH  12  15
HETATM   15  C   UNL     1     -38.886  38.501 -60.063  1.00  0.00     0.056 A 
HETATM   16  C   UNL     1     -38.231  38.536 -61.302  1.00  0.00     0.048 A 
HETATM   17  C   UNL     1     -36.784  38.918 -61.442  1.00  0.00     0.071 C 
HETATM   18  N   UNL     1     -38.864  38.225 -62.468  1.00  0.00    -0.241 NA
HETATM   19  C   UNL     1     -40.158  37.859 -62.396  1.00  0.00     0.126 A 
HETATM   20 CL   UNL     1     -40.884  37.491 -63.905  1.00  0.00    -0.063 Cl
HETATM   21  C   UNL     1     -40.880  37.775 -61.220  1.00  0.00     0.045 A 
HETATM   22  C   UNL     1     -40.230  38.098 -60.032  1.00  0.00     0.022 A 
ENDBRANCH  12  15
ENDBRANCH   1  11
BRANCH   8  23
HETATM   23  C   UNL     1     -38.065  40.916 -52.756  1.00  0.00     0.270 C 
HETATM   24  N   UNL     1     -39.128  41.715 -52.433  1.00  0.00    -0.365 N 
HETATM   25  H   UNL     1     -39.171  42.648 -52.826  1.00  0.00     0.159 HD
HETATM   26  H   UNL     1     -39.809  41.391 -51.764  1.00  0.00     0.159 HD
HETATM   27  O   UNL     1     -37.943  39.797 -52.271  1.00  0.00    -0.266 OA
ENDBRANCH   8  23
TORSDOF 3
ENDMDL
MODEL 4
REMARK VINA RESULT:      -8.1      3.635      8.293
REMARK  3 active torsions:
REMARK  status: ('A' for Active; 'I' for Inactive)
REMARK    1  A    between atoms: C_8  and  C_9 
REMARK       I    between atoms: C_9  and  N_10 
REMARK    2  A    between atoms: N_10  and  C_11 
REMARK    3  A    between atoms: C_18  and  C_19 
REMARK       I    between atoms: C_19  and  N_20 
ROOT
HETATM    1  C   UNL     1     -40.882  54.264 -54.349  1.00  0.00     0.036 A 
HETATM    2  C   UNL     1     -41.071  54.530 -52.986  1.00  0.00     0.046 A 
HETATM    3  C   UNL     1     -40.700  53.562 -52.028  1.00  0.00     0.030 A 
HETATM    4  C   UNL     1     -40.119  52.377 -52.463  1.00  0.00     0.063 A 
HETATM    5  N   UNL     1     -39.861  51.663 -51.326  1.00  0.00    -0.277 N 
HETATM    6  H   UNL     1     -39.428  50.748 -51.261  1.00  0.00     0.189 HD
HETATM    7  N   UNL     1     -40.254  52.261 -50.190  1.00  0.00    -0.168 NA
HETATM    8  C   UNL     1     -40.780  53.435 -50.608  1.00  0.00     0.156 A 
HETATM    9  C   UNL     1     -39.901  52.084 -53.811  1.00  0.00     0.034 A 
HETATM   10  C   UNL     1     -40.310  53.046 -54.743  1.00  0.00     0.032 A 
ENDROOT
BRANCH   1  11
HETATM   11  N   UNL     1     -41.283  55.146 -55.378  1.00  0.00    -0.323 N 
HETATM   12  C   UNL     1     -42.578  55.521 -55.690  1.00  0.00     0.258 C 
HETATM   13  O   UNL     1     -43.585  55.265 -55.045  1.00  0.00    -0.267 OA
HETATM   14  H   UNL     1     -40.533  55.510 -55.949  1.00  0.00     0.169 HD
BRANCH  12  15
HETATM   15  C   UNL     1     -42.717  56.320 -56.938  1.00  0.00     0.056 A 
HETATM   16  C   UNL     1     -42.604  57.717 -56.919  1.00  0.00     0.048 A 
HETATM   17  C   UNL     1     -42.308  58.489 -55.663  1.00  0.00     0.071 C 
HETATM   18  N   UNL     1     -42.754  58.474 -58.041  1.00  0.00    -0.241 NA
HETATM   19  C   UNL     1     -43.005  57.830 -59.198  1.00  0.00     0.126 A 
HETATM   20 CL   UNL     1     -43.189  58.852 -60.562  1.00  0.00    -0.063 Cl
HETATM   21  C   UNL     1     -43.113  56.457 -59.318  1.00  0.00     0.045 A 
HETATM   22  C   UNL     1     -42.962  55.689 -58.166  1.00  0.00     0.022 A 
ENDBRANCH  12  15
ENDBRANCH   1  11
BRANCH   8  23
HETATM   23  C   UNL     1     -41.366  54.388 -49.656  1.00  0.00     0.270 C 
HETATM   24  N   UNL     1     -40.725  54.436 -48.447  1.00  0.00    -0.365 N 
HETATM   25  H   UNL     1     -39.939  53.816 -48.291  1.00  0.00     0.159 HD
HETATM   26  H   UNL     1     -41.083  55.032 -47.718  1.00  0.00     0.159 HD
HETATM   27  O   UNL     1     -42.350  55.085 -49.879  1.00  0.00    -0.266 OA
ENDBRANCH   8  23
TORSDOF 3
ENDMDL
MODEL 5
REMARK VINA RESULT:      -8.1      5.623      8.138
REMARK  3 active torsions:
REMARK  status: ('A' for Active; 'I' for Inactive)
REMARK    1  A    between atoms: C_8  and  C_9 
REMARK       I    between atoms: C_9  and  N_10 
REMARK    2  A    between atoms: N_10  and  C_11 
REMARK    3  A    between atoms: C_18  and  C_19 
REMARK       I    between atoms: C_19  and  N_20 
ROOT
HETATM    1  C   UNL     1     -40.635  54.653 -52.931  1.00  0.00     0.036 A 
HETATM    2  C   UNL     1     -40.334  53.530 -52.148  1.00  0.00     0.046 A 
HETATM    3  C   UNL     1     -40.130  52.280 -52.771  1.00  0.00     0.030 A 
HETATM    4  C   UNL     1     -40.198  52.203 -54.157  1.00  0.00     0.063 A 
HETATM    5  N   UNL     1     -39.947  50.893 -54.458  1.00  0.00    -0.277 N 
HETATM    6  H   UNL     1     -39.907  50.473 -55.380  1.00  0.00     0.189 HD
HETATM    7  N   UNL     1     -39.757  50.102 -53.390  1.00  0.00    -0.168 NA
HETATM    8  C   UNL     1     -39.872  50.945 -52.338  1.00  0.00     0.156 A 
HETATM    9  C   UNL     1     -40.481  53.303 -54.969  1.00  0.00     0.034 A 
HETATM   10  C   UNL     1     -40.713  54.524 -54.324  1.00  0.00     0.032 A 
ENDROOT
BRANCH   1  11
HETATM   11  N   UNL     1     -40.917  55.928 -52.388  1.00  0.00    -0.323 N 
HETATM   12  C   UNL     1     -41.731  56.205 -51.303  1.00  0.00     0.258 C 
HETATM   13  O   UNL     1     -42.232  55.389 -50.542  1.00  0.00    -0.267 OA
HETATM   14  H   UNL     1     -40.493  56.706 -52.873  1.00  0.00     0.169 HD
BRANCH  12  15
HETATM   15  C   UNL     1     -41.991  57.651 -51.066  1.00  0.00     0.056 A 
HETATM   16  C   UNL     1     -43.203  58.240 -51.450  1.00  0.00     0.048 A 
HETATM   17  C   UNL     1     -44.317  57.459 -52.091  1.00  0.00     0.071 C 
HETATM   18  N   UNL     1     -43.456  59.567 -51.270  1.00  0.00    -0.241 NA
HETATM   19  C   UNL     1     -42.496  60.310 -50.685  1.00  0.00     0.126 A 
HETATM   20 CL   UNL     1     -42.886  61.969 -50.501  1.00  0.00    -0.063 Cl
HETATM   21  C   UNL     1     -41.280  59.813 -50.254  1.00  0.00     0.045 A 
HETATM   22  C   UNL     1     -41.026  58.457 -50.445  1.00  0.00     0.022 A 
ENDBRANCH  12  15
ENDBRANCH   1  11
BRANCH   8  23
HETATM   23  C   UNL     1     -39.760  50.457 -50.956  1.00  0.00     0.270 C 
HETATM   24  N   UNL     1     -38.958  49.356 -50.816  1.00  0.00    -0.365 N 
HETATM   25  H   UNL     1     -38.535  48.956 -51.645  1.00  0.00     0.159 HD
HETATM   26  H   UNL     1     -38.855  48.929 -49.909  1.00  0.00     0.159 HD
HETATM   27  O   UNL     1     -40.331  50.953 -49.991  1.00  0.00    -0.266 OA
ENDBRANCH   8  23
TORSDOF 3
ENDMDL
MODEL 6
REMARK VINA RESULT:      -8.0      3.659      7.816
REMARK  3 active torsions:
REMARK  status: ('A' for Active; 'I' for Inactive)
REMARK    1  A    between atoms: C_8  and  C_9 
REMARK       I    between atoms: C_9  and  N_10 
REMARK    2  A    between atoms: N_10  and  C_11 
REMARK    3  A    between atoms: C_18  and  C_19 
REMARK       I    between atoms: C_19  and  N_20 
ROOT
HETATM    1  C   UNL     1     -41.046  54.548 -54.275  1.00  0.00     0.036 A 
HETATM    2  C   UNL     1     -40.761  53.182 -54.412  1.00  0.00     0.046 A 
HETATM    3  C   UNL     1     -40.351  52.439 -53.284  1.00  0.00     0.030 A 
HETATM    4  C   UNL     1     -40.278  53.077 -52.052  1.00  0.00     0.063 A 
HETATM    5  N   UNL     1     -39.876  52.113 -51.170  1.00  0.00    -0.277 N 
HETATM    6  H   UNL     1     -39.725  52.219 -50.172  1.00  0.00     0.189 HD
HETATM    7  N   UNL     1     -39.647  50.911 -51.722  1.00  0.00    -0.168 NA
HETATM    8  C   UNL     1     -39.933  51.098 -53.032  1.00  0.00     0.156 A 
HETATM    9  C   UNL     1     -40.568  54.431 -51.876  1.00  0.00     0.034 A 
HETATM   10  C   UNL     1     -40.938  55.154 -53.017  1.00  0.00     0.032 A 
ENDROOT
BRANCH   1  11
HETATM   11  N   UNL     1     -41.399  55.382 -55.361  1.00  0.00    -0.323 N 
HETATM   12  C   UNL     1     -42.668  55.836 -55.678  1.00  0.00     0.258 C 
HETATM   13  O   UNL     1     -43.677  55.710 -54.999  1.00  0.00    -0.267 OA
HETATM   14  H   UNL     1     -40.636  55.641 -55.971  1.00  0.00     0.169 HD
BRANCH  12  15
HETATM   15  C   UNL     1     -42.772  56.550 -56.980  1.00  0.00     0.056 A 
HETATM   16  C   UNL     1     -42.615  57.941 -57.057  1.00  0.00     0.048 A 
HETATM   17  C   UNL     1     -42.305  58.788 -55.855  1.00  0.00     0.071 C 
HETATM   18  N   UNL     1     -42.732  58.621 -58.231  1.00  0.00    -0.241 NA
HETATM   19  C   UNL     1     -42.994  57.906 -59.343  1.00  0.00     0.126 A 
HETATM   20 CL   UNL     1     -43.134  58.835 -60.776  1.00  0.00    -0.063 Cl
HETATM   21  C   UNL     1     -43.143  56.532 -59.368  1.00  0.00     0.045 A 
HETATM   22  C   UNL     1     -43.026  55.842 -58.164  1.00  0.00     0.022 A 
ENDBRANCH  12  15
ENDBRANCH   1  11
BRANCH   8  23
HETATM   23  C   UNL     1     -39.775  50.010 -54.007  1.00  0.00     0.270 C 
HETATM   24  N   UNL     1     -40.896  49.761 -54.753  1.00  0.00    -0.365 N 
HETATM   25  H   UNL     1     -41.730  50.305 -54.569  1.00  0.00     0.159 HD
HETATM   26  H   UNL     1     -40.892  49.005 -55.419  1.00  0.00     0.159 HD
HETATM   27  O   UNL     1     -38.753  49.349 -54.159  1.00  0.00    -0.266 OA
ENDBRANCH   8  23
TORSDOF 3
ENDMDL
MODEL 7
REMARK VINA RESULT:      -7.9      4.794      6.154
REMARK  3 active torsions:
REMARK  status: ('A' for Active; 'I' for Inactive)
REMARK    1  A    between atoms: C_8  and  C_9 
REMARK       I    between atoms: C_9  and  N_10 
REMARK    2  A    between atoms: N_10  and  C_11 
REMARK    3  A    between atoms: C_18  and  C_19 
REMARK       I    between atoms: C_19  and  N_20 
ROOT
HETATM    1  C   UNL     1     -41.741  57.332 -52.422  1.00  0.00     0.036 A 
HETATM    2  C   UNL     1     -42.882  57.786 -51.747  1.00  0.00     0.046 A 
HETATM    3  C   UNL     1     -43.304  59.123 -51.912  1.00  0.00     0.030 A 
HETATM    4  C   UNL     1     -42.593  59.948 -52.775  1.00  0.00     0.063 A 
HETATM    5  N   UNL     1     -43.240  61.153 -52.737  1.00  0.00    -0.277 N 
HETATM    6  H   UNL     1     -43.002  61.993 -53.252  1.00  0.00     0.189 HD
HETATM    7  N   UNL     1     -44.288  61.197 -51.899  1.00  0.00    -0.168 NA
HETATM    8  C   UNL     1     -44.338  59.949 -51.378  1.00  0.00     0.156 A 
HETATM    9  C   UNL     1     -41.461  59.526 -53.474  1.00  0.00     0.034 A 
HETATM   10  C   UNL     1     -41.043  58.206 -53.267  1.00  0.00     0.032 A 
ENDROOT
BRANCH   1  11
HETATM   11  N   UNL     1     -41.210  56.032 -52.266  1.00  0.00    -0.323 N 
HETATM   12  C   UNL     1     -41.824  54.839 -52.607  1.00  0.00     0.258 C 
HETATM   13  O   UNL     1     -42.869  54.711 -53.228  1.00  0.00    -0.267 OA
HETATM   14  H   UNL     1     -40.296  55.988 -51.835  1.00  0.00     0.169 HD
BRANCH  12  15
HETATM   15  C   UNL     1     -41.107  53.613 -52.162  1.00  0.00     0.056 A 
HETATM   16  C   UNL     1     -40.426  52.800 -53.079  1.00  0.00     0.048 A 
HETATM   17  C   UNL     1     -40.350  53.122 -54.545  1.00  0.00     0.071 C 
HETATM   18  N   UNL     1     -39.786  51.658 -52.703  1.00  0.00    -0.241 NA
HETATM   19  C   UNL     1     -39.810  51.332 -51.395  1.00  0.00     0.126 A 
HETATM   20 CL   UNL     1     -38.989  49.880 -51.004  1.00  0.00    -0.063 Cl
HETATM   21  C   UNL     1     -40.436  52.082 -50.417  1.00  0.00     0.045 A 
HETATM   22  C   UNL     1     -41.093  53.245 -50.809  1.00  0.00     0.022 A 
ENDBRANCH  12  15
ENDBRANCH   1  11
BRANCH   8  23
HETATM   23  C   UNL     1     -45.345  59.585 -50.371  1.00  0.00     0.270 C 
HETATM   24  N   UNL     1     -45.178  60.207 -49.163  1.00  0.00    -0.365 N 
HETATM   25  H   UNL     1     -44.387  60.829 -49.044  1.00  0.00     0.159 HD
HETATM   26  H   UNL     1     -45.798  59.986 -48.400  1.00  0.00     0.159 HD
HETATM   27  O   UNL     1     -46.259  58.788 -50.553  1.00  0.00    -0.266 OA
ENDBRANCH   8  23
TORSDOF 3
ENDMDL
MODEL 8
REMARK VINA RESULT:      -7.8      2.222      3.322
REMARK  3 active torsions:
REMARK  status: ('A' for Active; 'I' for Inactive)
REMARK    1  A    between atoms: C_8  and  C_9 
REMARK       I    between atoms: C_9  and  N_10 
REMARK    2  A    between atoms: N_10  and  C_11 
REMARK    3  A    between atoms: C_18  and  C_19 
REMARK       I    between atoms: C_19  and  N_20 
ROOT
HETATM    1  C   UNL     1     -42.804  55.516 -55.692  1.00  0.00     0.036 A 
HETATM    2  C   UNL     1     -43.347  56.740 -55.277  1.00  0.00     0.046 A 
HETATM    3  C   UNL     1     -43.869  57.633 -56.238  1.00  0.00     0.030 A 
HETATM    4  C   UNL     1     -43.864  57.256 -57.575  1.00  0.00     0.063 A 
HETATM    5  N   UNL     1     -44.436  58.301 -58.247  1.00  0.00    -0.277 N 
HETATM    6  H   UNL     1     -44.605  58.370 -59.244  1.00  0.00     0.189 HD
HETATM    7  N   UNL     1     -44.782  59.340 -57.470  1.00  0.00    -0.168 NA
HETATM    8  C   UNL     1     -44.433  58.944 -56.225  1.00  0.00     0.156 A 
HETATM    9  C   UNL     1     -43.345  56.040 -58.023  1.00  0.00     0.034 A 
HETATM   10  C   UNL     1     -42.802  55.186 -57.055  1.00  0.00     0.032 A 
ENDROOT
BRANCH   1  11
HETATM   11  N   UNL     1     -42.203  54.591 -54.809  1.00  0.00    -0.323 N 
HETATM   12  C   UNL     1     -40.857  54.494 -54.500  1.00  0.00     0.258 C 
HETATM   13  O   UNL     1     -39.977  55.278 -54.828  1.00  0.00    -0.267 OA
HETATM   14  H   UNL     1     -42.835  53.923 -54.389  1.00  0.00     0.169 HD
BRANCH  12  15
HETATM   15  C   UNL     1     -40.484  53.310 -53.679  1.00  0.00     0.056 A 
HETATM   16  C   UNL     1     -40.493  53.369 -52.278  1.00  0.00     0.048 A 
HETATM   17  C   UNL     1     -40.901  54.602 -51.522  1.00  0.00     0.071 C 
HETATM   18  N   UNL     1     -40.129  52.309 -51.504  1.00  0.00    -0.241 NA
HETATM   19  C   UNL     1     -39.769  51.172 -52.133  1.00  0.00     0.126 A 
HETATM   20 CL   UNL     1     -39.319  49.889 -51.091  1.00  0.00    -0.063 Cl
HETATM   21  C   UNL     1     -39.750  51.014 -53.506  1.00  0.00     0.045 A 
HETATM   22  C   UNL     1     -40.119  52.103 -54.292  1.00  0.00     0.022 A 
ENDBRANCH  12  15
ENDBRANCH   1  11
BRANCH   8  23
HETATM   23  C   UNL     1     -44.619  59.827 -55.065  1.00  0.00     0.270 C 
HETATM   24  N   UNL     1     -45.590  59.410 -54.195  1.00  0.00    -0.365 N 
HETATM   25  H   UNL     1     -46.110  58.569 -54.416  1.00  0.00     0.159 HD
HETATM   26  H   UNL     1     -45.814  59.976 -53.392  1.00  0.00     0.159 HD
HETATM   27  O   UNL     1     -43.993  60.863 -54.867  1.00  0.00    -0.266 OA
ENDBRANCH   8  23
TORSDOF 3
ENDMDL
MODEL 9
REMARK VINA RESULT:      -7.6      5.306      8.265
REMARK  3 active torsions:
REMARK  status: ('A' for Active; 'I' for Inactive)
REMARK    1  A    between atoms: C_8  and  C_9 
REMARK       I    between atoms: C_9  and  N_10 
REMARK    2  A    between atoms: N_10  and  C_11 
REMARK    3  A    between atoms: C_18  and  C_19 
REMARK       I    between atoms: C_19  and  N_20 
ROOT
HETATM    1  C   UNL     1     -41.237  55.997 -53.294  1.00  0.00     0.036 A 
HETATM    2  C   UNL     1     -40.950  55.039 -52.312  1.00  0.00     0.046 A 
HETATM    3  C   UNL     1     -40.515  53.753 -52.698  1.00  0.00     0.030 A 
HETATM    4  C   UNL     1     -40.347  53.481 -54.050  1.00  0.00     0.063 A 
HETATM    5  N   UNL     1     -39.912  52.185 -54.106  1.00  0.00    -0.277 N 
HETATM    6  H   UNL     1     -39.677  51.652 -54.936  1.00  0.00     0.189 HD
HETATM    7  N   UNL     1     -39.816  51.577 -52.913  1.00  0.00    -0.168 NA
HETATM    8  C   UNL     1     -40.191  52.533 -52.032  1.00  0.00     0.156 A 
HETATM    9  C   UNL     1     -40.608  54.414 -55.055  1.00  0.00     0.034 A 
HETATM   10  C   UNL     1     -41.071  55.671 -54.647  1.00  0.00     0.032 A 
ENDROOT
BRANCH   1  11
HETATM   11  N   UNL     1     -41.738  57.286 -53.002  1.00  0.00    -0.323 N 
HETATM   12  C   UNL     1     -41.016  58.467 -52.964  1.00  0.00     0.258 C 
HETATM   13  O   UNL     1     -39.855  58.621 -53.313  1.00  0.00    -0.267 OA
HETATM   14  H   UNL     1     -42.722  57.324 -52.774  1.00  0.00     0.169 HD
BRANCH  12  15
HETATM   15  C   UNL     1     -41.766  59.645 -52.450  1.00  0.00     0.056 A 
HETATM   16  C   UNL     1     -41.716  60.000 -51.095  1.00  0.00     0.048 A 
HETATM   17  C   UNL     1     -40.891  59.246 -50.090  1.00  0.00     0.071 C 
HETATM   18  N   UNL     1     -42.415  61.057 -50.594  1.00  0.00    -0.241 NA
HETATM   19  C   UNL     1     -43.159  61.777 -51.456  1.00  0.00     0.126 A 
HETATM   20 CL   UNL     1     -44.013  63.083 -50.748  1.00  0.00    -0.063 Cl
HETATM   21  C   UNL     1     -43.253  61.516 -52.810  1.00  0.00     0.045 A 
HETATM   22  C   UNL     1     -42.539  60.432 -53.316  1.00  0.00     0.022 A 
ENDBRANCH  12  15
ENDBRANCH   1  11
BRANCH   8  23
HETATM   23  C   UNL     1     -40.255  52.255 -50.590  1.00  0.00     0.270 C 
HETATM   24  N   UNL     1     -40.264  50.923 -50.277  1.00  0.00    -0.365 N 
HETATM   25  H   UNL     1     -40.252  50.248 -51.032  1.00  0.00     0.159 HD
HETATM   26  H   UNL     1     -40.348  50.639 -49.314  1.00  0.00     0.159 HD
HETATM   27  O   UNL     1     -40.315  53.112 -49.714  1.00  0.00    -0.266 OA
ENDBRANCH   8  23
TORSDOF 3
ENDMDL
MODEL 10
REMARK VINA RESULT:      -7.4      5.093      6.768
REMARK  3 active torsions:
REMARK  status: ('A' for Active; 'I' for Inactive)
REMARK    1  A    between atoms: C_8  and  C_9 
REMARK       I    between atoms: C_9  and  N_10 
REMARK    2  A    between atoms: N_10  and  C_11 
REMARK    3  A    between atoms: C_18  and  C_19 
REMARK       I    between atoms: C_19  and  N_20 
ROOT
HETATM    1  C   UNL     1     -43.939  57.410 -52.489  1.00  0.00     0.036 A 
HETATM    2  C   UNL     1     -44.291  58.138 -51.344  1.00  0.00     0.046 A 
HETATM    3  C   UNL     1     -45.054  59.318 -51.474  1.00  0.00     0.030 A 
HETATM    4  C   UNL     1     -45.470  59.710 -52.740  1.00  0.00     0.063 A 
HETATM    5  N   UNL     1     -46.188  60.857 -52.545  1.00  0.00    -0.277 N 
HETATM    6  H   UNL     1     -46.653  61.418 -53.251  1.00  0.00     0.189 HD
HETATM    7  N   UNL     1     -46.247  61.267 -51.268  1.00  0.00    -0.168 NA
HETATM    8  C   UNL     1     -45.546  60.328 -50.593  1.00  0.00     0.156 A 
HETATM    9  C   UNL     1     -45.151  59.003 -53.901  1.00  0.00     0.034 A 
HETATM   10  C   UNL     1     -44.365  57.855 -53.749  1.00  0.00     0.032 A 
ENDROOT
BRANCH   1  11
HETATM   11  N   UNL     1     -43.125  56.255 -52.459  1.00  0.00    -0.323 N 
HETATM   12  C   UNL     1     -41.741  56.215 -52.494  1.00  0.00     0.258 C 
HETATM   13  O   UNL     1     -40.984  57.172 -52.416  1.00  0.00    -0.267 OA
HETATM   14  H   UNL     1     -43.624  55.377 -52.435  1.00  0.00     0.169 HD
BRANCH  12  15
HETATM   15  C   UNL     1     -41.155  54.854 -52.633  1.00  0.00     0.056 A 
HETATM   16  C   UNL     1     -40.860  54.319 -53.894  1.00  0.00     0.048 A 
HETATM   17  C   UNL     1     -41.082  55.082 -55.170  1.00  0.00     0.071 C 
HETATM   18  N   UNL     1     -40.349  53.066 -54.050  1.00  0.00    -0.241 NA
HETATM   19  C   UNL     1     -40.115  52.344 -52.936  1.00  0.00     0.126 A 
HETATM   20 CL   UNL     1     -39.481  50.778 -53.216  1.00  0.00    -0.063 Cl
HETATM   21  C   UNL     1     -40.355  52.796 -51.652  1.00  0.00     0.045 A 
HETATM   22  C   UNL     1     -40.881  54.076 -51.499  1.00  0.00     0.022 A 
ENDBRANCH  12  15
ENDBRANCH   1  11
BRANCH   8  23
HETATM   23  C   UNL     1     -45.340  60.428 -49.142  1.00  0.00     0.270 C 
HETATM   24  N   UNL     1     -44.176  61.052 -48.784  1.00  0.00    -0.365 N 
HETATM   25  H   UNL     1     -43.550  61.366 -49.515  1.00  0.00     0.159 HD
HETATM   26  H   UNL     1     -43.933  61.130 -47.809  1.00  0.00     0.159 HD
HETATM   27  O   UNL     1     -46.111  59.988 -48.294  1.00  0.00    -0.266 OA
ENDBRANCH   8  23
TORSDOF 3
ENDMDL
