MODEL 1
REMARK VINA RESULT:      -7.5      0.000      0.000
REMARK  6 active torsions:
REMARK  status: ('A' for Active; 'I' for Inactive)
REMARK    1  A    between atoms: C_2  and  N_3 
REMARK    2  A    between atoms: C_2  and  C_24 
REMARK       I    between atoms: N_3  and  C_4 
REMARK    3  A    between atoms: C_4  and  C_5 
REMARK    4  A    between atoms: C_5  and  N_6 
REMARK    5  A    between atoms: C_10  and  N_11 
REMARK       I    between atoms: N_11  and  C_12 
REMARK       I    between atoms: C_12  and  N_13 
REMARK    6  A    between atoms: N_13  and  C_14 
ROOT
HETATM    1  N   UNL     1     -42.515  56.598 -51.422  1.00  0.00    -0.063 N 
HETATM    2  H   UNL     1     -42.391  57.042 -50.497  1.00  0.00     0.280 HD
HETATM    3  C   UNL     1     -41.399  57.018 -52.334  1.00  0.00     0.237 C 
HETATM    4  C   UNL     1     -41.564  58.443 -52.819  1.00  0.00     0.053 C 
HETATM    5  C   UNL     1     -42.931  58.723 -53.432  1.00  0.00     0.089 C 
HETATM    6  C   UNL     1     -44.047  58.315 -52.474  1.00  0.00     0.053 C 
HETATM    7  C   UNL     1     -43.919  56.924 -51.877  1.00  0.00     0.237 C 
ENDROOT
BRANCH   1   8
HETATM    8  C   UNL     1     -42.392  55.081 -51.150  1.00  0.00     0.337 C 
BRANCH   8   9
HETATM    9  C   UNL     1     -40.937  54.666 -50.963  1.00  0.00     0.244 C 
HETATM   10  N   UNL     1     -40.249  54.018 -51.937  1.00  0.00    -0.351 N 
HETATM   11  H   UNL     1     -39.293  53.810 -51.665  1.00  0.00     0.163 HD
HETATM   12  O   UNL     1     -40.375  54.929 -49.894  1.00  0.00    -0.272 OA
BRANCH  10  13
HETATM   13  C   UNL     1     -40.682  53.428 -53.207  1.00  0.00     0.120 C 
HETATM   14  C   UNL     1     -40.317  54.299 -54.405  1.00  0.00     0.038 C 
BRANCH  13  15
HETATM   15  C   UNL     1     -40.289  51.971 -53.268  1.00  0.00     0.005 A 
HETATM   16  S   UNL     1     -39.581  51.134 -51.944  1.00  0.00    -0.104 SA
HETATM   17  C   UNL     1     -39.421  49.691 -52.839  1.00  0.00     0.050 A 
HETATM   18  C   UNL     1     -39.876  49.831 -54.128  1.00  0.00     0.008 A 
HETATM   19  C   UNL     1     -40.377  51.142 -54.375  1.00  0.00     0.017 A 
ENDBRANCH  13  15
ENDBRANCH  10  13
ENDBRANCH   8   9
ENDBRANCH   1   8
BRANCH   5  20
HETATM   20  N   UNL     1     -43.072  58.250 -54.810  1.00  0.00    -0.338 N 
HETATM   21  C   UNL     1     -42.504  58.768 -55.926  1.00  0.00     0.316 C 
HETATM   22  N   UNL     1     -42.858  58.227 -57.110  1.00  0.00    -0.339 N 
HETATM   23  O   UNL     1     -41.718  59.708 -55.917  1.00  0.00    -0.247 OA
HETATM   24  H   UNL     1     -42.345  58.638 -57.881  1.00  0.00     0.164 HD
HETATM   25  H   UNL     1     -43.607  57.404 -54.938  1.00  0.00     0.164 HD
BRANCH  22  26
HETATM   26  C   UNL     1     -43.803  57.160 -57.438  1.00  0.00     0.086 C 
HETATM   27  C   UNL     1     -44.944  57.709 -58.306  1.00  0.00     0.025 C 
HETATM   28  C   UNL     1     -44.506  58.026 -59.737  1.00  0.00     0.002 C 
HETATM   29  C   UNL     1     -43.823  56.833 -60.394  1.00  0.00     0.000 C 
HETATM   30  C   UNL     1     -42.662  56.311 -59.552  1.00  0.00     0.002 C 
HETATM   31  C   UNL     1     -43.102  55.981 -58.127  1.00  0.00     0.025 C 
ENDBRANCH  22  26
ENDBRANCH   5  20
TORSDOF 6
ENDMDL
MODEL 2
REMARK VINA RESULT:      -7.5     15.320     17.137
REMARK  6 active torsions:
REMARK  status: ('A' for Active; 'I' for Inactive)
REMARK    1  A    between atoms: C_2  and  N_3 
REMARK    2  A    between atoms: C_2  and  C_24 
REMARK       I    between atoms: N_3  and  C_4 
REMARK    3  A    between atoms: C_4  and  C_5 
REMARK    4  A    between atoms: C_5  and  N_6 
REMARK    5  A    between atoms: C_10  and  N_11 
REMARK       I    between atoms: N_11  and  C_12 
REMARK       I    between atoms: C_12  and  N_13 
REMARK    6  A    between atoms: N_13  and  C_14 
ROOT
HETATM    1  N   UNL     1     -36.191  40.810 -54.565  1.00  0.00    -0.063 N 
HETATM    2  H   UNL     1     -36.057  41.519 -53.825  1.00  0.00     0.280 HD
HETATM    3  C   UNL     1     -35.021  40.838 -55.505  1.00  0.00     0.237 C 
HETATM    4  C   UNL     1     -35.059  42.037 -56.428  1.00  0.00     0.053 C 
HETATM    5  C   UNL     1     -36.383  42.195 -57.166  1.00  0.00     0.089 C 
HETATM    6  C   UNL     1     -37.553  42.194 -56.187  1.00  0.00     0.053 C 
HETATM    7  C   UNL     1     -37.551  41.064 -55.171  1.00  0.00     0.237 C 
ENDROOT
BRANCH   1   8
HETATM    8  C   UNL     1     -36.197  39.457 -53.816  1.00  0.00     0.337 C 
BRANCH   8   9
HETATM    9  C   UNL     1     -36.734  39.610 -52.398  1.00  0.00     0.244 C 
HETATM   10  N   UNL     1     -36.003  40.197 -51.417  1.00  0.00    -0.351 N 
HETATM   11  H   UNL     1     -36.495  40.225 -50.529  1.00  0.00     0.163 HD
HETATM   12  O   UNL     1     -37.866  39.186 -52.141  1.00  0.00    -0.272 OA
BRANCH  10  13
HETATM   13  C   UNL     1     -34.602  40.625 -51.371  1.00  0.00     0.120 C 
HETATM   14  C   UNL     1     -34.458  42.142 -51.430  1.00  0.00     0.038 C 
BRANCH  13  15
HETATM   15  C   UNL     1     -33.870  39.905 -50.263  1.00  0.00     0.005 A 
HETATM   16  S   UNL     1     -34.577  38.640 -49.339  1.00  0.00    -0.104 SA
HETATM   17  C   UNL     1     -33.190  38.469 -48.362  1.00  0.00     0.050 A 
HETATM   18  C   UNL     1     -32.204  39.362 -48.708  1.00  0.00     0.008 A 
HETATM   19  C   UNL     1     -32.594  40.187 -49.801  1.00  0.00     0.017 A 
ENDBRANCH  13  15
ENDBRANCH  10  13
ENDBRANCH   8   9
ENDBRANCH   1   8
BRANCH   5  20
HETATM   20  N   UNL     1     -36.523  41.314 -58.326  1.00  0.00    -0.338 N 
HETATM   21  C   UNL     1     -37.007  41.628 -59.553  1.00  0.00     0.316 C 
HETATM   22  N   UNL     1     -37.140  40.624 -60.443  1.00  0.00    -0.339 N 
HETATM   23  O   UNL     1     -37.353  42.758 -59.879  1.00  0.00    -0.247 OA
HETATM   24  H   UNL     1     -37.455  40.959 -61.346  1.00  0.00     0.164 HD
HETATM   25  H   UNL     1     -36.163  40.377 -58.221  1.00  0.00     0.164 HD
BRANCH  22  26
HETATM   26  C   UNL     1     -36.877  39.189 -60.324  1.00  0.00     0.086 C 
HETATM   27  C   UNL     1     -38.142  38.455 -59.858  1.00  0.00     0.025 C 
HETATM   28  C   UNL     1     -39.216  38.366 -60.943  1.00  0.00     0.002 C 
HETATM   29  C   UNL     1     -38.664  37.772 -62.234  1.00  0.00     0.000 C 
HETATM   30  C   UNL     1     -37.431  38.527 -62.722  1.00  0.00     0.002 C 
HETATM   31  C   UNL     1     -36.352  38.604 -61.642  1.00  0.00     0.025 C 
ENDBRANCH  22  26
ENDBRANCH   5  20
TORSDOF 6
ENDMDL
MODEL 3
REMARK VINA RESULT:      -7.5      2.528      7.051
REMARK  6 active torsions:
REMARK  status: ('A' for Active; 'I' for Inactive)
REMARK    1  A    between atoms: C_2  and  N_3 
REMARK    2  A    between atoms: C_2  and  C_24 
REMARK       I    between atoms: N_3  and  C_4 
REMARK    3  A    between atoms: C_4  and  C_5 
REMARK    4  A    between atoms: C_5  and  N_6 
REMARK    5  A    between atoms: C_10  and  N_11 
REMARK       I    between atoms: N_11  and  C_12 
REMARK       I    between atoms: C_12  and  N_13 
REMARK    6  A    between atoms: N_13  and  C_14 
ROOT
HETATM    1  N   UNL     1     -43.242  58.598 -53.043  1.00  0.00    -0.063 N 
HETATM    2  H   UNL     1     -43.678  59.400 -52.560  1.00  0.00     0.280 HD
HETATM    3  C   UNL     1     -44.066  57.365 -52.816  1.00  0.00     0.237 C 
HETATM    4  C   UNL     1     -43.896  56.814 -51.416  1.00  0.00     0.053 C 
HETATM    5  C   UNL     1     -42.441  56.603 -51.017  1.00  0.00     0.089 C 
HETATM    6  C   UNL     1     -41.631  57.880 -51.229  1.00  0.00     0.053 C 
HETATM    7  C   UNL     1     -41.803  58.543 -52.585  1.00  0.00     0.237 C 
ENDROOT
BRANCH   1   8
HETATM    8  C   UNL     1     -43.298  58.966 -54.544  1.00  0.00     0.337 C 
BRANCH   8   9
HETATM    9  C   UNL     1     -44.439  58.242 -55.251  1.00  0.00     0.244 C 
HETATM   10  N   UNL     1     -44.229  57.111 -55.970  1.00  0.00    -0.351 N 
HETATM   11  H   UNL     1     -45.084  56.746 -56.380  1.00  0.00     0.163 HD
HETATM   12  O   UNL     1     -45.582  58.703 -55.163  1.00  0.00    -0.272 OA
BRANCH  10  13
HETATM   13  C   UNL     1     -42.996  56.441 -56.394  1.00  0.00     0.120 C 
HETATM   14  C   UNL     1     -42.953  54.978 -55.963  1.00  0.00     0.038 C 
BRANCH  13  15
HETATM   15  C   UNL     1     -42.708  56.742 -57.846  1.00  0.00     0.005 A 
HETATM   16  S   UNL     1     -42.073  58.244 -58.385  1.00  0.00    -0.104 SA
HETATM   17  C   UNL     1     -42.124  57.770 -60.023  1.00  0.00     0.050 A 
HETATM   18  C   UNL     1     -42.629  56.501 -60.175  1.00  0.00     0.008 A 
HETATM   19  C   UNL     1     -42.964  55.909 -58.924  1.00  0.00     0.017 A 
ENDBRANCH  13  15
ENDBRANCH  10  13
ENDBRANCH   8   9
ENDBRANCH   1   8
BRANCH   5  20
HETATM   20  N   UNL     1     -41.850  55.378 -51.557  1.00  0.00    -0.338 N 
HETATM   21  C   UNL     1     -42.362  54.124 -51.519  1.00  0.00     0.316 C 
HETATM   22  N   UNL     1     -41.590  53.124 -51.993  1.00  0.00    -0.339 N 
HETATM   23  O   UNL     1     -43.463  53.852 -51.055  1.00  0.00    -0.247 OA
HETATM   24  H   UNL     1     -42.073  52.233 -51.976  1.00  0.00     0.164 HD
HETATM   25  H   UNL     1     -40.987  55.487 -52.070  1.00  0.00     0.164 HD
BRANCH  22  26
HETATM   26  C   UNL     1     -40.232  53.130 -52.538  1.00  0.00     0.086 C 
HETATM   27  C   UNL     1     -39.349  52.132 -51.775  1.00  0.00     0.025 C 
HETATM   28  C   UNL     1     -39.681  50.674 -52.097  1.00  0.00     0.002 C 
HETATM   29  C   UNL     1     -39.661  50.410 -53.598  1.00  0.00     0.000 C 
HETATM   30  C   UNL     1     -40.571  51.375 -54.354  1.00  0.00     0.002 C 
HETATM   31  C   UNL     1     -40.231  52.832 -54.043  1.00  0.00     0.025 C 
ENDBRANCH  22  26
ENDBRANCH   5  20
TORSDOF 6
ENDMDL
MODEL 4
REMARK VINA RESULT:      -7.4      2.738      7.343
REMARK  6 active torsions:
REMARK  status: ('A' for Active; 'I' for Inactive)
REMARK    1  A    between atoms: C_2  and  N_3 
REMARK    2  A    between atoms: C_2  and  C_24 
REMARK       I    between atoms: N_3  and  C_4 
REMARK    3  A    between atoms: C_4  and  C_5 
REMARK    4  A    between atoms: C_5  and  N_6 
REMARK    5  A    between atoms: C_10  and  N_11 
REMARK       I    between atoms: N_11  and  C_12 
REMARK       I    between atoms: C_12  and  N_13 
REMARK    6  A    between atoms: N_13  and  C_14 
ROOT
HETATM    1  N   UNL     1     -43.175  58.530 -53.686  1.00  0.00    -0.063 N 
HETATM    2  H   UNL     1     -43.636  59.364 -53.288  1.00  0.00     0.280 HD
HETATM    3  C   UNL     1     -44.021  57.317 -53.429  1.00  0.00     0.237 C 
HETATM    4  C   UNL     1     -43.945  56.864 -51.986  1.00  0.00     0.053 C 
HETATM    5  C   UNL     1     -42.520  56.678 -51.481  1.00  0.00     0.089 C 
HETATM    6  C   UNL     1     -41.689  57.934 -51.727  1.00  0.00     0.053 C 
HETATM    7  C   UNL     1     -41.769  58.503 -53.133  1.00  0.00     0.237 C 
ENDROOT
BRANCH   1   8
HETATM    8  C   UNL     1     -43.132  58.794 -55.209  1.00  0.00     0.337 C 
BRANCH   8   9
HETATM    9  C   UNL     1     -44.481  58.509 -55.860  1.00  0.00     0.244 C 
HETATM   10  N   UNL     1     -44.623  57.567 -56.827  1.00  0.00    -0.351 N 
HETATM   11  H   UNL     1     -45.579  57.493 -57.161  1.00  0.00     0.163 HD
HETATM   12  O   UNL     1     -45.468  59.156 -55.494  1.00  0.00    -0.272 OA
BRANCH  10  13
HETATM   13  C   UNL     1     -43.634  56.784 -57.575  1.00  0.00     0.120 C 
HETATM   14  C   UNL     1     -42.885  55.796 -56.687  1.00  0.00     0.038 C 
BRANCH  13  15
HETATM   15  C   UNL     1     -44.249  56.242 -58.844  1.00  0.00     0.005 A 
HETATM   16  S   UNL     1     -45.542  57.019 -59.667  1.00  0.00    -0.104 SA
HETATM   17  C   UNL     1     -45.633  55.792 -60.849  1.00  0.00     0.050 A 
HETATM   18  C   UNL     1     -44.716  54.794 -60.626  1.00  0.00     0.008 A 
HETATM   19  C   UNL     1     -43.918  55.052 -59.474  1.00  0.00     0.017 A 
ENDBRANCH  13  15
ENDBRANCH  10  13
ENDBRANCH   8   9
ENDBRANCH   1   8
BRANCH   5  20
HETATM   20  N   UNL     1     -41.904  55.417 -51.895  1.00  0.00    -0.338 N 
HETATM   21  C   UNL     1     -42.386  54.162 -51.723  1.00  0.00     0.316 C 
HETATM   22  N   UNL     1     -41.594  53.136 -52.098  1.00  0.00    -0.339 N 
HETATM   23  O   UNL     1     -43.478  53.915 -51.224  1.00  0.00    -0.247 OA
HETATM   24  H   UNL     1     -42.056  52.241 -51.984  1.00  0.00     0.164 HD
HETATM   25  H   UNL     1     -41.047  55.492 -52.425  1.00  0.00     0.164 HD
BRANCH  22  26
HETATM   26  C   UNL     1     -40.241  53.116 -52.653  1.00  0.00     0.086 C 
HETATM   27  C   UNL     1     -39.336  52.201 -51.814  1.00  0.00     0.025 C 
HETATM   28  C   UNL     1     -39.647  50.716 -52.007  1.00  0.00     0.002 C 
HETATM   29  C   UNL     1     -39.633  50.325 -53.480  1.00  0.00     0.000 C 
HETATM   30  C   UNL     1     -40.563  51.207 -54.308  1.00  0.00     0.002 C 
HETATM   31  C   UNL     1     -40.245  52.690 -54.127  1.00  0.00     0.025 C 
ENDBRANCH  22  26
ENDBRANCH   5  20
TORSDOF 6
ENDMDL
MODEL 5
REMARK VINA RESULT:      -7.3      2.451      3.534
REMARK  6 active torsions:
REMARK  status: ('A' for Active; 'I' for Inactive)
REMARK    1  A    between atoms: C_2  and  N_3 
REMARK    2  A    between atoms: C_2  and  C_24 
REMARK       I    between atoms: N_3  and  C_4 
REMARK    3  A    between atoms: C_4  and  C_5 
REMARK    4  A    between atoms: C_5  and  N_6 
REMARK    5  A    between atoms: C_10  and  N_11 
REMARK       I    between atoms: N_11  and  C_12 
REMARK       I    between atoms: C_12  and  N_13 
REMARK    6  A    between atoms: N_13  and  C_14 
ROOT
HETATM    1  N   UNL     1     -42.254  54.811 -53.070  1.00  0.00    -0.063 N 
HETATM    2  H   UNL     1     -41.930  53.880 -52.762  1.00  0.00     0.280 HD
HETATM    3  C   UNL     1     -43.447  54.657 -53.967  1.00  0.00     0.237 C 
HETATM    4  C   UNL     1     -43.065  54.159 -55.345  1.00  0.00     0.053 C 
HETATM    5  C   UNL     1     -41.963  54.979 -56.005  1.00  0.00     0.089 C 
HETATM    6  C   UNL     1     -40.751  55.095 -55.085  1.00  0.00     0.053 C 
HETATM    7  C   UNL     1     -41.053  55.517 -53.657  1.00  0.00     0.237 C 
ENDROOT
BRANCH   1   8
HETATM    8  C   UNL     1     -42.695  55.524 -51.771  1.00  0.00     0.337 C 
BRANCH   8   9
HETATM    9  C   UNL     1     -42.954  54.524 -50.649  1.00  0.00     0.244 C 
HETATM   10  N   UNL     1     -41.943  53.844 -50.052  1.00  0.00    -0.351 N 
HETATM   11  H   UNL     1     -42.273  53.217 -49.324  1.00  0.00     0.163 HD
HETATM   12  O   UNL     1     -44.117  54.333 -50.279  1.00  0.00    -0.272 OA
BRANCH  10  13
HETATM   13  C   UNL     1     -40.519  53.728 -50.382  1.00  0.00     0.120 C 
HETATM   14  C   UNL     1     -39.625  54.368 -49.325  1.00  0.00     0.038 C 
BRANCH  13  15
HETATM   15  C   UNL     1     -40.192  52.312 -50.798  1.00  0.00     0.005 A 
HETATM   16  S   UNL     1     -39.736  51.886 -52.398  1.00  0.00    -0.104 SA
HETATM   17  C   UNL     1     -39.628  50.229 -52.012  1.00  0.00     0.050 A 
HETATM   18  C   UNL     1     -39.947  49.985 -50.698  1.00  0.00     0.008 A 
HETATM   19  C   UNL     1     -40.270  51.183 -49.999  1.00  0.00     0.017 A 
ENDBRANCH  13  15
ENDBRANCH  10  13
ENDBRANCH   8   9
ENDBRANCH   1   8
BRANCH   5  20
HETATM   20  N   UNL     1     -42.432  56.231 -56.601  1.00  0.00    -0.338 N 
HETATM   21  C   UNL     1     -43.106  56.394 -57.765  1.00  0.00     0.316 C 
HETATM   22  N   UNL     1     -43.348  57.658 -58.170  1.00  0.00    -0.339 N 
HETATM   23  O   UNL     1     -43.476  55.465 -58.474  1.00  0.00    -0.247 OA
HETATM   24  H   UNL     1     -43.902  57.683 -59.019  1.00  0.00     0.164 HD
HETATM   25  H   UNL     1     -42.289  57.067 -56.053  1.00  0.00     0.164 HD
BRANCH  22  26
HETATM   26  C   UNL     1     -42.980  58.946 -57.582  1.00  0.00     0.086 C 
HETATM   27  C   UNL     1     -41.757  59.530 -58.305  1.00  0.00     0.025 C 
HETATM   28  C   UNL     1     -42.083  60.044 -59.708  1.00  0.00     0.002 C 
HETATM   29  C   UNL     1     -43.250  61.025 -59.692  1.00  0.00     0.000 C 
HETATM   30  C   UNL     1     -44.479  60.430 -59.010  1.00  0.00     0.002 C 
HETATM   31  C   UNL     1     -44.158  59.929 -57.603  1.00  0.00     0.025 C 
ENDBRANCH  22  26
ENDBRANCH   5  20
TORSDOF 6
ENDMDL
MODEL 6
REMARK VINA RESULT:      -7.2      1.904      2.395
REMARK  6 active torsions:
REMARK  status: ('A' for Active; 'I' for Inactive)
REMARK    1  A    between atoms: C_2  and  N_3 
REMARK    2  A    between atoms: C_2  and  C_24 
REMARK       I    between atoms: N_3  and  C_4 
REMARK    3  A    between atoms: C_4  and  C_5 
REMARK    4  A    between atoms: C_5  and  N_6 
REMARK    5  A    between atoms: C_10  and  N_11 
REMARK       I    between atoms: N_11  and  C_12 
REMARK       I    between atoms: C_12  and  N_13 
REMARK    6  A    between atoms: N_13  and  C_14 
ROOT
HETATM    1  N   UNL     1     -42.169  58.063 -51.670  1.00  0.00    -0.063 N 
HETATM    2  H   UNL     1     -41.708  58.551 -50.886  1.00  0.00     0.280 HD
HETATM    3  C   UNL     1     -41.134  57.595 -52.650  1.00  0.00     0.237 C 
HETATM    4  C   UNL     1     -40.577  58.732 -53.480  1.00  0.00     0.053 C 
HETATM    5  C   UNL     1     -41.651  59.578 -54.152  1.00  0.00     0.089 C 
HETATM    6  C   UNL     1     -42.675  60.067 -53.131  1.00  0.00     0.053 C 
HETATM    7  C   UNL     1     -43.230  58.999 -52.203  1.00  0.00     0.237 C 
ENDROOT
BRANCH   1   8
HETATM    8  C   UNL     1     -42.840  56.828 -51.024  1.00  0.00     0.337 C 
BRANCH   8   9
HETATM    9  C   UNL     1     -41.821  55.966 -50.287  1.00  0.00     0.244 C 
HETATM   10  N   UNL     1     -41.590  54.676 -50.637  1.00  0.00    -0.351 N 
HETATM   11  H   UNL     1     -40.886  54.234 -50.055  1.00  0.00     0.163 HD
HETATM   12  O   UNL     1     -41.193  56.461 -49.345  1.00  0.00    -0.272 OA
BRANCH  10  13
HETATM   13  C   UNL     1     -42.284  53.781 -51.568  1.00  0.00     0.120 C 
HETATM   14  C   UNL     1     -43.797  53.804 -51.376  1.00  0.00     0.038 C 
BRANCH  13  15
HETATM   15  C   UNL     1     -41.764  53.980 -52.973  1.00  0.00     0.005 A 
HETATM   16  S   UNL     1     -42.756  54.502 -54.275  1.00  0.00    -0.104 SA
HETATM   17  C   UNL     1     -41.475  54.400 -55.397  1.00  0.00     0.050 A 
HETATM   18  C   UNL     1     -40.312  53.962 -54.810  1.00  0.00     0.008 A 
HETATM   19  C   UNL     1     -40.477  53.722 -53.416  1.00  0.00     0.017 A 
ENDBRANCH  13  15
ENDBRANCH  10  13
ENDBRANCH   8   9
ENDBRANCH   1   8
BRANCH   5  20
HETATM   20  N   UNL     1     -42.203  58.979 -55.368  1.00  0.00    -0.338 N 
HETATM   21  C   UNL     1     -42.091  59.431 -56.641  1.00  0.00     0.316 C 
HETATM   22  N   UNL     1     -42.772  58.768 -57.597  1.00  0.00    -0.339 N 
HETATM   23  O   UNL     1     -41.435  60.417 -56.957  1.00  0.00    -0.247 OA
HETATM   24  H   UNL     1     -42.586  59.141 -58.521  1.00  0.00     0.164 HD
HETATM   25  H   UNL     1     -42.673  58.092 -55.255  1.00  0.00     0.164 HD
BRANCH  22  26
HETATM   26  C   UNL     1     -43.673  57.618 -57.518  1.00  0.00     0.086 C 
HETATM   27  C   UNL     1     -44.950  57.887 -58.326  1.00  0.00     0.025 C 
HETATM   28  C   UNL     1     -44.719  57.848 -59.838  1.00  0.00     0.002 C 
HETATM   29  C   UNL     1     -44.041  56.552 -60.270  1.00  0.00     0.000 C 
HETATM   30  C   UNL     1     -42.750  56.304 -59.496  1.00  0.00     0.002 C 
HETATM   31  C   UNL     1     -42.982  56.330 -57.986  1.00  0.00     0.025 C 
ENDBRANCH  22  26
ENDBRANCH   5  20
TORSDOF 6
ENDMDL
MODEL 7
REMARK VINA RESULT:      -7.2      3.293      7.235
REMARK  6 active torsions:
REMARK  status: ('A' for Active; 'I' for Inactive)
REMARK    1  A    between atoms: C_2  and  N_3 
REMARK    2  A    between atoms: C_2  and  C_24 
REMARK       I    between atoms: N_3  and  C_4 
REMARK    3  A    between atoms: C_4  and  C_5 
REMARK    4  A    between atoms: C_5  and  N_6 
REMARK    5  A    between atoms: C_10  and  N_11 
REMARK       I    between atoms: N_11  and  C_12 
REMARK       I    between atoms: C_12  and  N_13 
REMARK    6  A    between atoms: N_13  and  C_14 
ROOT
HETATM    1  N   UNL     1     -44.550  59.260 -53.973  1.00  0.00    -0.063 N 
HETATM    2  H   UNL     1     -44.882  60.189 -54.280  1.00  0.00     0.280 HD
HETATM    3  C   UNL     1     -45.065  58.973 -52.593  1.00  0.00     0.237 C 
HETATM    4  C   UNL     1     -44.327  59.762 -51.532  1.00  0.00     0.053 C 
HETATM    5  C   UNL     1     -42.812  59.620 -51.612  1.00  0.00     0.089 C 
HETATM    6  C   UNL     1     -42.310  59.946 -53.016  1.00  0.00     0.053 C 
HETATM    7  C   UNL     1     -43.049  59.254 -54.149  1.00  0.00     0.237 C 
ENDROOT
BRANCH   1   8
HETATM    8  C   UNL     1     -45.197  58.264 -54.964  1.00  0.00     0.337 C 
BRANCH   8   9
HETATM    9  C   UNL     1     -44.329  57.024 -55.150  1.00  0.00     0.244 C 
HETATM   10  N   UNL     1     -43.626  56.810 -56.290  1.00  0.00    -0.351 N 
HETATM   11  H   UNL     1     -43.096  55.944 -56.263  1.00  0.00     0.163 HD
HETATM   12  O   UNL     1     -44.270  56.196 -54.234  1.00  0.00    -0.272 OA
BRANCH  10  13
HETATM   13  C   UNL     1     -43.633  57.501 -57.583  1.00  0.00     0.120 C 
HETATM   14  C   UNL     1     -42.308  58.197 -57.876  1.00  0.00     0.038 C 
BRANCH  13  15
HETATM   15  C   UNL     1     -44.190  56.595 -58.657  1.00  0.00     0.005 A 
HETATM   16  S   UNL     1     -45.608  56.965 -59.554  1.00  0.00    -0.104 SA
HETATM   17  C   UNL     1     -45.540  55.497 -60.419  1.00  0.00     0.050 A 
HETATM   18  C   UNL     1     -44.474  54.721 -60.033  1.00  0.00     0.008 A 
HETATM   19  C   UNL     1     -43.697  55.352 -59.020  1.00  0.00     0.017 A 
ENDBRANCH  13  15
ENDBRANCH  10  13
ENDBRANCH   8   9
ENDBRANCH   1   8
BRANCH   5  20
HETATM   20  N   UNL     1     -42.301  58.379 -51.027  1.00  0.00    -0.338 N 
HETATM   21  C   UNL     1     -41.010  58.047 -50.782  1.00  0.00     0.316 C 
HETATM   22  N   UNL     1     -40.765  56.801 -50.328  1.00  0.00    -0.339 N 
HETATM   23  O   UNL     1     -40.064  58.802 -50.979  1.00  0.00    -0.247 OA
HETATM   24  H   UNL     1     -39.783  56.660 -50.122  1.00  0.00     0.164 HD
HETATM   25  H   UNL     1     -42.995  57.716 -50.713  1.00  0.00     0.164 HD
BRANCH  22  26
HETATM   26  C   UNL     1     -41.664  55.677 -50.065  1.00  0.00     0.086 C 
HETATM   27  C   UNL     1     -41.883  54.859 -51.346  1.00  0.00     0.025 C 
HETATM   28  C   UNL     1     -40.656  54.037 -51.745  1.00  0.00     0.002 C 
HETATM   29  C   UNL     1     -40.166  53.163 -50.596  1.00  0.00     0.000 C 
HETATM   30  C   UNL     1     -39.909  53.981 -49.333  1.00  0.00     0.002 C 
HETATM   31  C   UNL     1     -41.138  54.793 -48.927  1.00  0.00     0.025 C 
ENDBRANCH  22  26
ENDBRANCH   5  20
TORSDOF 6
ENDMDL
MODEL 8
REMARK VINA RESULT:      -7.1      4.029      7.162
REMARK  6 active torsions:
REMARK  status: ('A' for Active; 'I' for Inactive)
REMARK    1  A    between atoms: C_2  and  N_3 
REMARK    2  A    between atoms: C_2  and  C_24 
REMARK       I    between atoms: N_3  and  C_4 
REMARK    3  A    between atoms: C_4  and  C_5 
REMARK    4  A    between atoms: C_5  and  N_6 
REMARK    5  A    between atoms: C_10  and  N_11 
REMARK       I    between atoms: N_11  and  C_12 
REMARK       I    between atoms: C_12  and  N_13 
REMARK    6  A    between atoms: N_13  and  C_14 
ROOT
HETATM    1  N   UNL     1     -41.775  56.731 -51.393  1.00  0.00    -0.063 N 
HETATM    2  H   UNL     1     -41.592  56.310 -52.318  1.00  0.00     0.280 HD
HETATM    3  C   UNL     1     -43.213  56.523 -51.020  1.00  0.00     0.237 C 
HETATM    4  C   UNL     1     -44.141  57.437 -51.794  1.00  0.00     0.053 C 
HETATM    5  C   UNL     1     -43.745  58.907 -51.725  1.00  0.00     0.089 C 
HETATM    6  C   UNL     1     -42.287  59.094 -52.137  1.00  0.00     0.053 C 
HETATM    7  C   UNL     1     -41.294  58.162 -51.463  1.00  0.00     0.237 C 
ENDROOT
BRANCH   1   8
HETATM    8  C   UNL     1     -40.885  55.929 -50.414  1.00  0.00     0.337 C 
BRANCH   8   9
HETATM    9  C   UNL     1     -41.435  54.526 -50.187  1.00  0.00     0.244 C 
HETATM   10  N   UNL     1     -41.103  53.489 -50.996  1.00  0.00    -0.351 N 
HETATM   11  H   UNL     1     -41.547  52.619 -50.717  1.00  0.00     0.163 HD
HETATM   12  O   UNL     1     -42.204  54.334 -49.239  1.00  0.00    -0.272 OA
BRANCH  10  13
HETATM   13  C   UNL     1     -40.376  53.441 -52.269  1.00  0.00     0.120 C 
HETATM   14  C   UNL     1     -39.753  52.074 -52.529  1.00  0.00     0.038 C 
BRANCH  13  15
HETATM   15  C   UNL     1     -41.215  54.039 -53.373  1.00  0.00     0.005 A 
HETATM   16  S   UNL     1     -40.573  55.075 -54.584  1.00  0.00    -0.104 SA
HETATM   17  C   UNL     1     -42.099  55.306 -55.310  1.00  0.00     0.050 A 
HETATM   18  C   UNL     1     -43.092  54.628 -54.645  1.00  0.00     0.008 A 
HETATM   19  C   UNL     1     -42.585  53.898 -53.533  1.00  0.00     0.017 A 
ENDBRANCH  13  15
ENDBRANCH  10  13
ENDBRANCH   8   9
ENDBRANCH   1   8
BRANCH   5  20
HETATM   20  N   UNL     1     -44.145  59.571 -50.484  1.00  0.00    -0.338 N 
HETATM   21  C   UNL     1     -45.389  59.652 -49.951  1.00  0.00     0.316 C 
HETATM   22  N   UNL     1     -45.541  60.408 -48.844  1.00  0.00    -0.339 N 
HETATM   23  O   UNL     1     -46.374  59.106 -50.434  1.00  0.00    -0.247 OA
HETATM   24  H   UNL     1     -46.488  60.366 -48.485  1.00  0.00     0.164 HD
HETATM   25  H   UNL     1     -43.400  59.966 -49.929  1.00  0.00     0.164 HD
BRANCH  22  26
HETATM   26  C   UNL     1     -44.583  61.217 -48.090  1.00  0.00     0.086 C 
HETATM   27  C   UNL     1     -44.665  62.686 -48.532  1.00  0.00     0.025 C 
HETATM   28  C   UNL     1     -45.935  63.386 -48.046  1.00  0.00     0.002 C 
HETATM   29  C   UNL     1     -46.117  63.240 -46.540  1.00  0.00     0.000 C 
HETATM   30  C   UNL     1     -46.077  61.778 -46.104  1.00  0.00     0.002 C 
HETATM   31  C   UNL     1     -44.802  61.082 -46.577  1.00  0.00     0.025 C 
ENDBRANCH  22  26
ENDBRANCH   5  20
TORSDOF 6
ENDMDL
MODEL 9
REMARK VINA RESULT:      -7.1      2.749      8.101
REMARK  6 active torsions:
REMARK  status: ('A' for Active; 'I' for Inactive)
REMARK    1  A    between atoms: C_2  and  N_3 
REMARK    2  A    between atoms: C_2  and  C_24 
REMARK       I    between atoms: N_3  and  C_4 
REMARK    3  A    between atoms: C_4  and  C_5 
REMARK    4  A    between atoms: C_5  and  N_6 
REMARK    5  A    between atoms: C_10  and  N_11 
REMARK       I    between atoms: N_11  and  C_12 
REMARK       I    between atoms: C_12  and  N_13 
REMARK    6  A    between atoms: N_13  and  C_14 
ROOT
HETATM    1  N   UNL     1     -43.390  57.595 -54.879  1.00  0.00    -0.063 N 
HETATM    2  H   UNL     1     -43.824  58.511 -54.682  1.00  0.00     0.280 HD
HETATM    3  C   UNL     1     -44.112  56.522 -54.119  1.00  0.00     0.237 C 
HETATM    4  C   UNL     1     -43.774  56.542 -52.643  1.00  0.00     0.053 C 
HETATM    5  C   UNL     1     -42.277  56.524 -52.362  1.00  0.00     0.089 C 
HETATM    6  C   UNL     1     -41.570  57.643 -53.122  1.00  0.00     0.053 C 
HETATM    7  C   UNL     1     -41.912  57.744 -54.599  1.00  0.00     0.237 C 
ENDROOT
BRANCH   1   8
HETATM    8  C   UNL     1     -43.614  57.371 -56.393  1.00  0.00     0.337 C 
BRANCH   8   9
HETATM    9  C   UNL     1     -44.954  57.941 -56.846  1.00  0.00     0.244 C 
HETATM   10  N   UNL     1     -45.468  57.668 -58.071  1.00  0.00    -0.351 N 
HETATM   11  H   UNL     1     -46.366  58.118 -58.225  1.00  0.00     0.163 HD
HETATM   12  O   UNL     1     -45.583  58.671 -56.072  1.00  0.00    -0.272 OA
BRANCH  10  13
HETATM   13  C   UNL     1     -44.892  57.000 -59.242  1.00  0.00     0.120 C 
HETATM   14  C   UNL     1     -45.953  56.325 -60.105  1.00  0.00     0.038 C 
BRANCH  13  15
HETATM   15  C   UNL     1     -43.916  57.918 -59.940  1.00  0.00     0.005 A 
HETATM   16  S   UNL     1     -42.241  57.566 -60.093  1.00  0.00    -0.104 SA
HETATM   17  C   UNL     1     -41.921  59.040 -60.888  1.00  0.00     0.050 A 
HETATM   18  C   UNL     1     -43.054  59.805 -61.028  1.00  0.00     0.008 A 
HETATM   19  C   UNL     1     -44.202  59.160 -60.484  1.00  0.00     0.017 A 
ENDBRANCH  13  15
ENDBRANCH  10  13
ENDBRANCH   8   9
ENDBRANCH   1   8
BRANCH   5  20
HETATM   20  N   UNL     1     -41.668  55.198 -52.470  1.00  0.00    -0.338 N 
HETATM   21  C   UNL     1     -42.136  54.027 -51.973  1.00  0.00     0.316 C 
HETATM   22  N   UNL     1     -41.352  52.938 -52.108  1.00  0.00    -0.339 N 
HETATM   23  O   UNL     1     -43.208  53.916 -51.389  1.00  0.00    -0.247 OA
HETATM   24  H   UNL     1     -41.804  52.101 -51.757  1.00  0.00     0.164 HD
HETATM   25  H   UNL     1     -40.832  55.135 -53.032  1.00  0.00     0.164 HD
BRANCH  22  26
HETATM   26  C   UNL     1     -40.019  52.776 -52.689  1.00  0.00     0.086 C 
HETATM   27  C   UNL     1     -39.197  51.777 -51.861  1.00  0.00     0.025 C 
HETATM   28  C   UNL     1     -39.663  50.330 -52.038  1.00  0.00     0.002 C 
HETATM   29  C   UNL     1     -39.719  49.932 -53.508  1.00  0.00     0.000 C 
HETATM   30  C   UNL     1     -40.569  50.901 -54.324  1.00  0.00     0.002 C 
HETATM   31  C   UNL     1     -40.096  52.345 -54.159  1.00  0.00     0.025 C 
ENDBRANCH  22  26
ENDBRANCH   5  20
TORSDOF 6
ENDMDL
MODEL 10
REMARK VINA RESULT:      -7.1      3.769      8.485
REMARK  6 active torsions:
REMARK  status: ('A' for Active; 'I' for Inactive)
REMARK    1  A    between atoms: C_2  and  N_3 
REMARK    2  A    between atoms: C_2  and  C_24 
REMARK       I    between atoms: N_3  and  C_4 
REMARK    3  A    between atoms: C_4  and  C_5 
REMARK    4  A    between atoms: C_5  and  N_6 
REMARK    5  A    between atoms: C_10  and  N_11 
REMARK       I    between atoms: N_11  and  C_12 
REMARK       I    between atoms: C_12  and  N_13 
REMARK    6  A    between atoms: N_13  and  C_14 
ROOT
HETATM    1  N   UNL     1     -42.737  59.042 -53.745  1.00  0.00    -0.063 N 
HETATM    2  H   UNL     1     -43.384  59.816 -53.524  1.00  0.00     0.280 HD
HETATM    3  C   UNL     1     -43.523  57.839 -54.178  1.00  0.00     0.237 C 
HETATM    4  C   UNL     1     -44.200  57.150 -53.012  1.00  0.00     0.053 C 
HETATM    5  C   UNL     1     -43.253  56.824 -51.864  1.00  0.00     0.089 C 
HETATM    6  C   UNL     1     -42.488  58.069 -51.423  1.00  0.00     0.053 C 
HETATM    7  C   UNL     1     -41.840  58.866 -52.542  1.00  0.00     0.237 C 
ENDROOT
BRANCH   1   8
HETATM    8  C   UNL     1     -41.907  59.554 -54.946  1.00  0.00     0.337 C 
BRANCH   8   9
HETATM    9  C   UNL     1     -42.595  60.727 -55.636  1.00  0.00     0.244 C 
HETATM   10  N   UNL     1     -42.462  60.949 -56.968  1.00  0.00    -0.351 N 
HETATM   11  H   UNL     1     -42.979  61.765 -57.279  1.00  0.00     0.163 HD
HETATM   12  O   UNL     1     -43.290  61.492 -54.959  1.00  0.00    -0.272 OA
BRANCH  10  13
HETATM   13  C   UNL     1     -41.588  60.338 -57.974  1.00  0.00     0.120 C 
HETATM   14  C   UNL     1     -42.177  59.055 -58.551  1.00  0.00     0.038 C 
BRANCH  13  15
HETATM   15  C   UNL     1     -41.112  61.382 -58.957  1.00  0.00     0.005 A 
HETATM   16  S   UNL     1     -41.664  61.461 -60.583  1.00  0.00    -0.104 SA
HETATM   17  C   UNL     1     -40.649  62.781 -60.948  1.00  0.00     0.050 A 
HETATM   18  C   UNL     1     -39.884  63.156 -59.869  1.00  0.00     0.008 A 
HETATM   19  C   UNL     1     -40.152  62.353 -58.724  1.00  0.00     0.017 A 
ENDBRANCH  13  15
ENDBRANCH  10  13
ENDBRANCH   8   9
ENDBRANCH   1   8
BRANCH   5  20
HETATM   20  N   UNL     1     -42.443  55.625 -52.086  1.00  0.00    -0.338 N 
HETATM   21  C   UNL     1     -42.756  54.344 -51.776  1.00  0.00     0.316 C 
HETATM   22  N   UNL     1     -41.807  53.407 -51.980  1.00  0.00    -0.339 N 
HETATM   23  O   UNL     1     -43.832  54.002 -51.299  1.00  0.00    -0.247 OA
HETATM   24  H   UNL     1     -42.146  52.474 -51.773  1.00  0.00     0.164 HD
HETATM   25  H   UNL     1     -41.573  55.760 -52.581  1.00  0.00     0.164 HD
BRANCH  22  26
HETATM   26  C   UNL     1     -40.432  53.517 -52.466  1.00  0.00     0.086 C 
HETATM   27  C   UNL     1     -39.503  52.609 -51.646  1.00  0.00     0.025 C 
HETATM   28  C   UNL     1     -39.699  51.123 -51.953  1.00  0.00     0.002 C 
HETATM   29  C   UNL     1     -39.590  50.838 -53.447  1.00  0.00     0.000 C 
HETATM   30  C   UNL     1     -40.542  51.711 -54.260  1.00  0.00     0.002 C 
HETATM   31  C   UNL     1     -40.338  53.196 -53.964  1.00  0.00     0.025 C 
ENDBRANCH  22  26
ENDBRANCH   5  20
TORSDOF 6
ENDMDL
