MODEL 1
REMARK VINA RESULT:      -8.8      0.000      0.000
REMARK  6 active torsions:
REMARK  status: ('A' for Active; 'I' for Inactive)
REMARK    1  A    between atoms: O_2  and  C_3 
REMARK    2  A    between atoms: C_5  and  N_6 
REMARK    3  A    between atoms: C_7  and  C_9 
REMARK    4  A    between atoms: C_7  and  O_8 
REMARK       I    between atoms: C_9  and  N_10 
REMARK    5  A    between atoms: N_10  and  C_11 
REMARK    6  A    between atoms: C_11  and  C_12 
ROOT
HETATM    1  N   UNL     1     -43.557  56.615 -53.748  1.00  0.00    -0.254 N 
HETATM    2  C   UNL     1     -43.308  55.836 -54.979  1.00  0.00     0.256 C 
HETATM    3  C   UNL     1     -43.564  56.594 -56.272  1.00  0.00     0.034 A 
HETATM    4  C   UNL     1     -44.275  57.782 -56.225  1.00  0.00     0.048 A 
HETATM    5  N   UNL     1     -44.695  58.259 -54.998  1.00  0.00    -0.308 N 
HETATM    6  C   UNL     1     -44.395  57.723 -53.783  1.00  0.00     0.330 C 
HETATM    7  O   UNL     1     -44.877  58.299 -52.807  1.00  0.00    -0.246 OA
HETATM    8  C   UNL     1     -43.170  56.106 -57.533  1.00  0.00     0.015 A 
HETATM    9  C   UNL     1     -43.466  56.817 -58.699  1.00  0.00     0.001 A 
HETATM   10  C   UNL     1     -44.177  58.011 -58.624  1.00  0.00     0.002 A 
HETATM   11  C   UNL     1     -44.589  58.493 -57.384  1.00  0.00     0.030 A 
HETATM   12  H   UNL     1     -45.276  59.085 -54.947  1.00  0.00     0.170 HD
ENDROOT
BRANCH   2  13
HETATM   13  C   UNL     1     -41.805  55.319 -55.014  1.00  0.00     0.279 C 
HETATM   14  N   UNL     1     -41.622  53.952 -54.991  1.00  0.00    -0.352 N 
HETATM   15  H   UNL     1     -42.425  53.359 -55.168  1.00  0.00     0.162 HD
HETATM   16  O   UNL     1     -40.866  56.121 -54.958  1.00  0.00    -0.268 OA
BRANCH  14  17
HETATM   17  C   UNL     1     -40.308  53.363 -55.087  1.00  0.00     0.161 C 
BRANCH  17  18
HETATM   18  C   UNL     1     -40.072  52.393 -53.960  1.00  0.00    -0.040 A 
HETATM   19  C   UNL     1     -39.852  51.032 -54.214  1.00  0.00     0.010 A 
HETATM   20  C   UNL     1     -39.620  50.146 -53.159  1.00  0.00     0.024 A 
HETATM   21  C   UNL     1     -39.612  50.614 -51.847  1.00  0.00     0.034 A 
HETATM   22 CL   UNL     1     -39.320  49.522 -50.550  1.00  0.00    -0.084 Cl
HETATM   23  C   UNL     1     -39.838  51.962 -51.579  1.00  0.00     0.024 A 
HETATM   24  C   UNL     1     -40.069  52.848 -52.632  1.00  0.00     0.010 A 
ENDBRANCH  17  18
ENDBRANCH  14  17
ENDBRANCH   2  13
BRANCH   2  25
HETATM   25  O   UNL     1     -44.223  54.739 -55.003  1.00  0.00    -0.359 OA
HETATM   26  H   UNL     1     -43.662  53.947 -55.103  1.00  0.00     0.213 HD
ENDBRANCH   2  25
BRANCH   1  27
HETATM   27  C   UNL     1     -43.122  56.095 -52.463  1.00  0.00     0.045 A 
HETATM   28  C   UNL     1     -42.217  56.821 -51.669  1.00  0.00     0.066 A 
HETATM   29  C   UNL     1     -41.784  56.344 -50.427  1.00  0.00     0.070 A 
HETATM   30  C   UNL     1     -42.196  55.097 -49.973  1.00  0.00     0.037 A 
HETATM   31  C   UNL     1     -43.076  54.350 -50.748  1.00  0.00     0.005 A 
HETATM   32  C   UNL     1     -43.539  54.847 -51.973  1.00  0.00     0.030 A 
BRANCH  29  33
HETATM   33  O   UNL     1     -40.904  57.137 -49.741  1.00  0.00    -0.356 OA
HETATM   34  C   UNL     1     -40.714  58.413 -50.352  1.00  0.00     0.210 C 
ENDBRANCH  29  33
ENDBRANCH   1  27
TORSDOF 6
ENDMDL
MODEL 2
REMARK VINA RESULT:      -8.8      2.200      3.077
REMARK  6 active torsions:
REMARK  status: ('A' for Active; 'I' for Inactive)
REMARK    1  A    between atoms: O_2  and  C_3 
REMARK    2  A    between atoms: C_5  and  N_6 
REMARK    3  A    between atoms: C_7  and  C_9 
REMARK    4  A    between atoms: C_7  and  O_8 
REMARK       I    between atoms: C_9  and  N_10 
REMARK    5  A    between atoms: N_10  and  C_11 
REMARK    6  A    between atoms: C_11  and  C_12 
ROOT
HETATM    1  N   UNL     1     -42.195  58.166 -55.148  1.00  0.00    -0.254 N 
HETATM    2  C   UNL     1     -42.762  56.895 -55.644  1.00  0.00     0.256 C 
HETATM    3  C   UNL     1     -42.788  56.758 -57.158  1.00  0.00     0.034 A 
HETATM    4  C   UNL     1     -42.589  57.886 -57.937  1.00  0.00     0.048 A 
HETATM    5  N   UNL     1     -42.337  59.092 -57.311  1.00  0.00    -0.308 N 
HETATM    6  C   UNL     1     -42.160  59.282 -55.975  1.00  0.00     0.330 C 
HETATM    7  O   UNL     1     -41.950  60.442 -55.619  1.00  0.00    -0.246 OA
HETATM    8  C   UNL     1     -43.076  55.544 -57.810  1.00  0.00     0.015 A 
HETATM    9  C   UNL     1     -43.130  55.476 -59.205  1.00  0.00     0.001 A 
HETATM   10  C   UNL     1     -42.922  56.623 -59.965  1.00  0.00     0.002 A 
HETATM   11  C   UNL     1     -42.657  57.834 -59.330  1.00  0.00     0.030 A 
HETATM   12  H   UNL     1     -42.260  59.940 -57.857  1.00  0.00     0.170 HD
ENDROOT
BRANCH   2  13
HETATM   13  C   UNL     1     -41.948  55.659 -55.062  1.00  0.00     0.279 C 
HETATM   14  N   UNL     1     -42.662  54.744 -54.318  1.00  0.00    -0.352 N 
HETATM   15  H   UNL     1     -43.674  54.782 -54.356  1.00  0.00     0.162 HD
HETATM   16  O   UNL     1     -40.721  55.600 -55.198  1.00  0.00    -0.268 OA
BRANCH  14  17
HETATM   17  C   UNL     1     -42.047  53.548 -53.796  1.00  0.00     0.161 C 
BRANCH  17  18
HETATM   18  C   UNL     1     -41.658  53.730 -52.353  1.00  0.00    -0.040 A 
HETATM   19  C   UNL     1     -42.486  54.434 -51.467  1.00  0.00     0.010 A 
HETATM   20  C   UNL     1     -42.119  54.583 -50.127  1.00  0.00     0.024 A 
HETATM   21  C   UNL     1     -40.923  54.035 -49.669  1.00  0.00     0.034 A 
HETATM   22 CL   UNL     1     -40.477  54.215 -48.017  1.00  0.00    -0.084 Cl
HETATM   23  C   UNL     1     -40.087  53.341 -50.539  1.00  0.00     0.024 A 
HETATM   24  C   UNL     1     -40.453  53.190 -51.878  1.00  0.00     0.010 A 
ENDBRANCH  17  18
ENDBRANCH  14  17
ENDBRANCH   2  13
BRANCH   2  25
HETATM   25  O   UNL     1     -44.132  56.834 -55.242  1.00  0.00    -0.359 OA
HETATM   26  H   UNL     1     -44.579  56.332 -55.949  1.00  0.00     0.213 HD
ENDBRANCH   2  25
BRANCH   1  27
HETATM   27  C   UNL     1     -41.890  58.320 -53.736  1.00  0.00     0.045 A 
HETATM   28  C   UNL     1     -40.617  58.750 -53.323  1.00  0.00     0.066 A 
HETATM   29  C   UNL     1     -40.298  58.908 -51.971  1.00  0.00     0.070 A 
HETATM   30  C   UNL     1     -41.226  58.580 -50.990  1.00  0.00     0.037 A 
HETATM   31  C   UNL     1     -42.486  58.134 -51.370  1.00  0.00     0.005 A 
HETATM   32  C   UNL     1     -42.815  58.013 -52.726  1.00  0.00     0.030 A 
BRANCH  29  33
HETATM   33  O   UNL     1     -39.028  59.335 -51.687  1.00  0.00    -0.356 OA
HETATM   34  C   UNL     1     -38.864  59.716 -50.322  1.00  0.00     0.210 C 
ENDBRANCH  29  33
ENDBRANCH   1  27
TORSDOF 6
ENDMDL
MODEL 3
REMARK VINA RESULT:      -8.6      2.239      3.299
REMARK  6 active torsions:
REMARK  status: ('A' for Active; 'I' for Inactive)
REMARK    1  A    between atoms: O_2  and  C_3 
REMARK    2  A    between atoms: C_5  and  N_6 
REMARK    3  A    between atoms: C_7  and  C_9 
REMARK    4  A    between atoms: C_7  and  O_8 
REMARK       I    between atoms: C_9  and  N_10 
REMARK    5  A    between atoms: N_10  and  C_11 
REMARK    6  A    between atoms: C_11  and  C_12 
ROOT
HETATM    1  N   UNL     1     -42.371  58.094 -55.283  1.00  0.00    -0.254 N 
HETATM    2  C   UNL     1     -43.009  56.929 -55.930  1.00  0.00     0.256 C 
HETATM    3  C   UNL     1     -42.833  56.867 -57.439  1.00  0.00     0.034 A 
HETATM    4  C   UNL     1     -42.393  57.995 -58.111  1.00  0.00     0.048 A 
HETATM    5  N   UNL     1     -42.090  59.129 -57.382  1.00  0.00    -0.308 N 
HETATM    6  C   UNL     1     -42.085  59.233 -56.025  1.00  0.00     0.330 C 
HETATM    7  O   UNL     1     -41.792  60.340 -55.571  1.00  0.00    -0.246 OA
HETATM    8  C   UNL     1     -43.167  55.729 -58.200  1.00  0.00     0.015 A 
HETATM    9  C   UNL     1     -43.029  55.734 -59.591  1.00  0.00     0.001 A 
HETATM   10  C   UNL     1     -42.579  56.878 -60.241  1.00  0.00     0.002 A 
HETATM   11  C   UNL     1     -42.266  58.016 -59.501  1.00  0.00     0.030 A 
HETATM   12  H   UNL     1     -41.836  59.985 -57.858  1.00  0.00     0.170 HD
ENDROOT
BRANCH   2  13
HETATM   13  C   UNL     1     -42.439  55.574 -55.323  1.00  0.00     0.279 C 
HETATM   14  N   UNL     1     -43.224  54.941 -54.383  1.00  0.00    -0.352 N 
HETATM   15  H   UNL     1     -44.188  55.238 -54.286  1.00  0.00     0.162 HD
HETATM   16  O   UNL     1     -41.303  55.187 -55.618  1.00  0.00    -0.268 OA
BRANCH  14  17
HETATM   17  C   UNL     1     -42.844  53.672 -53.812  1.00  0.00     0.161 C 
BRANCH  17  18
HETATM   18  C   UNL     1     -42.226  53.859 -52.452  1.00  0.00    -0.040 A 
HETATM   19  C   UNL     1     -42.957  54.427 -51.400  1.00  0.00     0.010 A 
HETATM   20  C   UNL     1     -42.375  54.583 -50.139  1.00  0.00     0.024 A 
HETATM   21  C   UNL     1     -41.060  54.176 -49.926  1.00  0.00     0.034 A 
HETATM   22 CL   UNL     1     -40.348  54.362 -48.371  1.00  0.00    -0.084 Cl
HETATM   23  C   UNL     1     -40.318  53.618 -50.964  1.00  0.00     0.024 A 
HETATM   24  C   UNL     1     -40.899  53.461 -52.224  1.00  0.00     0.010 A 
ENDBRANCH  17  18
ENDBRANCH  14  17
ENDBRANCH   2  13
BRANCH   2  25
HETATM   25  O   UNL     1     -44.419  57.024 -55.724  1.00  0.00    -0.359 OA
HETATM   26  H   UNL     1     -44.619  57.976 -55.792  1.00  0.00     0.213 HD
ENDBRANCH   2  25
BRANCH   1  27
HETATM   27  C   UNL     1     -42.255  58.143 -53.836  1.00  0.00     0.045 A 
HETATM   28  C   UNL     1     -43.288  58.690 -53.054  1.00  0.00     0.066 A 
HETATM   29  C   UNL     1     -43.202  58.748 -51.660  1.00  0.00     0.070 A 
HETATM   30  C   UNL     1     -42.052  58.317 -51.010  1.00  0.00     0.037 A 
HETATM   31  C   UNL     1     -41.007  57.789 -51.760  1.00  0.00     0.005 A 
HETATM   32  C   UNL     1     -41.111  57.697 -53.154  1.00  0.00     0.030 A 
BRANCH  29  33
HETATM   33  O   UNL     1     -44.270  59.300 -51.003  1.00  0.00    -0.356 OA
HETATM   34  C   UNL     1     -45.418  58.452 -51.003  1.00  0.00     0.210 C 
ENDBRANCH  29  33
ENDBRANCH   1  27
TORSDOF 6
ENDMDL
MODEL 4
REMARK VINA RESULT:      -8.6      3.245      6.638
REMARK  6 active torsions:
REMARK  status: ('A' for Active; 'I' for Inactive)
REMARK    1  A    between atoms: O_2  and  C_3 
REMARK    2  A    between atoms: C_5  and  N_6 
REMARK    3  A    between atoms: C_7  and  C_9 
REMARK    4  A    between atoms: C_7  and  O_8 
REMARK       I    between atoms: C_9  and  N_10 
REMARK    5  A    between atoms: N_10  and  C_11 
REMARK    6  A    between atoms: C_11  and  C_12 
ROOT
HETATM    1  N   UNL     1     -41.799  55.684 -52.294  1.00  0.00    -0.254 N 
HETATM    2  C   UNL     1     -41.274  55.029 -53.509  1.00  0.00     0.256 C 
HETATM    3  C   UNL     1     -40.702  53.638 -53.284  1.00  0.00     0.034 A 
HETATM    4  C   UNL     1     -40.432  53.225 -51.990  1.00  0.00     0.048 A 
HETATM    5  N   UNL     1     -40.726  54.077 -50.943  1.00  0.00    -0.308 N 
HETATM    6  C   UNL     1     -41.362  55.276 -51.039  1.00  0.00     0.330 C 
HETATM    7  O   UNL     1     -41.523  55.887 -49.981  1.00  0.00    -0.246 OA
HETATM    8  C   UNL     1     -40.367  52.771 -54.342  1.00  0.00     0.015 A 
HETATM    9  C   UNL     1     -39.803  51.517 -54.087  1.00  0.00     0.001 A 
HETATM   10  C   UNL     1     -39.546  51.124 -52.777  1.00  0.00     0.002 A 
HETATM   11  C   UNL     1     -39.854  51.982 -51.725  1.00  0.00     0.030 A 
HETATM   12  H   UNL     1     -40.471  53.825 -49.997  1.00  0.00     0.170 HD
ENDROOT
BRANCH   2  13
HETATM   13  C   UNL     1     -42.413  54.908 -54.612  1.00  0.00     0.279 C 
HETATM   14  N   UNL     1     -42.191  55.566 -55.803  1.00  0.00    -0.352 N 
HETATM   15  H   UNL     1     -41.254  55.900 -55.998  1.00  0.00     0.162 HD
HETATM   16  O   UNL     1     -43.478  54.337 -54.350  1.00  0.00    -0.268 OA
BRANCH  14  17
HETATM   17  C   UNL     1     -43.121  55.474 -56.903  1.00  0.00     0.161 C 
BRANCH  17  18
HETATM   18  C   UNL     1     -42.781  56.471 -57.978  1.00  0.00    -0.040 A 
HETATM   19  C   UNL     1     -42.846  56.120 -59.334  1.00  0.00     0.010 A 
HETATM   20  C   UNL     1     -42.540  57.060 -60.321  1.00  0.00     0.024 A 
HETATM   21  C   UNL     1     -42.164  58.351 -59.959  1.00  0.00     0.034 A 
HETATM   22 CL   UNL     1     -41.795  59.509 -61.177  1.00  0.00    -0.084 Cl
HETATM   23  C   UNL     1     -42.086  58.712 -58.616  1.00  0.00     0.024 A 
HETATM   24  C   UNL     1     -42.392  57.774 -57.628  1.00  0.00     0.010 A 
ENDBRANCH  17  18
ENDBRANCH  14  17
ENDBRANCH   2  13
BRANCH   2  25
HETATM   25  O   UNL     1     -40.178  55.807 -53.995  1.00  0.00    -0.359 OA
HETATM   26  H   UNL     1     -40.565  56.385 -54.679  1.00  0.00     0.213 HD
ENDBRANCH   2  25
BRANCH   1  27
HETATM   27  C   UNL     1     -42.586  56.900 -52.410  1.00  0.00     0.045 A 
HETATM   28  C   UNL     1     -41.976  58.113 -52.775  1.00  0.00     0.066 A 
HETATM   29  C   UNL     1     -42.711  59.297 -52.896  1.00  0.00     0.070 A 
HETATM   30  C   UNL     1     -44.067  59.314 -52.593  1.00  0.00     0.037 A 
HETATM   31  C   UNL     1     -44.691  58.132 -52.210  1.00  0.00     0.005 A 
HETATM   32  C   UNL     1     -43.961  56.939 -52.127  1.00  0.00     0.030 A 
BRANCH  29  33
HETATM   33  O   UNL     1     -42.012  60.417 -53.260  1.00  0.00    -0.356 OA
HETATM   34  C   UNL     1     -42.858  61.484 -53.687  1.00  0.00     0.210 C 
ENDBRANCH  29  33
ENDBRANCH   1  27
TORSDOF 6
ENDMDL
MODEL 5
REMARK VINA RESULT:      -8.3      2.101      3.138
REMARK  6 active torsions:
REMARK  status: ('A' for Active; 'I' for Inactive)
REMARK    1  A    between atoms: O_2  and  C_3 
REMARK    2  A    between atoms: C_5  and  N_6 
REMARK    3  A    between atoms: C_7  and  C_9 
REMARK    4  A    between atoms: C_7  and  O_8 
REMARK       I    between atoms: C_9  and  N_10 
REMARK    5  A    between atoms: N_10  and  C_11 
REMARK    6  A    between atoms: C_11  and  C_12 
ROOT
HETATM    1  N   UNL     1     -42.697  58.640 -53.786  1.00  0.00    -0.254 N 
HETATM    2  C   UNL     1     -43.379  57.332 -53.870  1.00  0.00     0.256 C 
HETATM    3  C   UNL     1     -43.208  56.611 -55.197  1.00  0.00     0.034 A 
HETATM    4  C   UNL     1     -42.725  57.316 -56.287  1.00  0.00     0.048 A 
HETATM    5  N   UNL     1     -42.380  58.643 -56.122  1.00  0.00    -0.308 N 
HETATM    6  C   UNL     1     -42.370  59.330 -54.947  1.00  0.00     0.330 C 
HETATM    7  O   UNL     1     -42.034  60.513 -55.018  1.00  0.00    -0.246 OA
HETATM    8  C   UNL     1     -43.585  55.267 -55.389  1.00  0.00     0.015 A 
HETATM    9  C   UNL     1     -43.448  54.658 -56.640  1.00  0.00     0.001 A 
HETATM   10  C   UNL     1     -42.956  55.387 -57.718  1.00  0.00     0.002 A 
HETATM   11  C   UNL     1     -42.599  56.722 -57.544  1.00  0.00     0.030 A 
HETATM   12  H   UNL     1     -42.094  59.195 -56.920  1.00  0.00     0.170 HD
ENDROOT
BRANCH   2  13
HETATM   13  C   UNL     1     -42.860  56.361 -52.723  1.00  0.00     0.279 C 
HETATM   14  N   UNL     1     -41.582  55.864 -52.866  1.00  0.00    -0.352 N 
HETATM   15  H   UNL     1     -40.976  56.295 -53.555  1.00  0.00     0.162 HD
HETATM   16  O   UNL     1     -43.620  56.004 -51.815  1.00  0.00    -0.268 OA
BRANCH  14  17
HETATM   17  C   UNL     1     -40.977  55.029 -51.857  1.00  0.00     0.161 C 
BRANCH  17  18
HETATM   18  C   UNL     1     -40.569  53.699 -52.435  1.00  0.00    -0.040 A 
HETATM   19  C   UNL     1     -40.900  53.355 -53.753  1.00  0.00     0.010 A 
HETATM   20  C   UNL     1     -40.503  52.123 -54.281  1.00  0.00     0.024 A 
HETATM   21  C   UNL     1     -39.779  51.231 -53.494  1.00  0.00     0.034 A 
HETATM   22 CL   UNL     1     -39.285  49.718 -54.148  1.00  0.00    -0.084 Cl
HETATM   23  C   UNL     1     -39.451  51.556 -52.179  1.00  0.00     0.024 A 
HETATM   24  C   UNL     1     -39.847  52.786 -51.652  1.00  0.00     0.010 A 
ENDBRANCH  17  18
ENDBRANCH  14  17
ENDBRANCH   2  13
BRANCH   2  25
HETATM   25  O   UNL     1     -44.785  57.556 -53.747  1.00  0.00    -0.359 OA
HETATM   26  H   UNL     1     -45.078  56.936 -53.054  1.00  0.00     0.213 HD
ENDBRANCH   2  25
BRANCH   1  27
HETATM   27  C   UNL     1     -42.578  59.314 -52.504  1.00  0.00     0.045 A 
HETATM   28  C   UNL     1     -41.356  59.315 -51.809  1.00  0.00     0.066 A 
HETATM   29  C   UNL     1     -41.215  59.957 -50.574  1.00  0.00     0.070 A 
HETATM   30  C   UNL     1     -42.310  60.563 -49.971  1.00  0.00     0.037 A 
HETATM   31  C   UNL     1     -43.535  60.559 -50.627  1.00  0.00     0.005 A 
HETATM   32  C   UNL     1     -43.665  59.949 -51.881  1.00  0.00     0.030 A 
BRANCH  29  33
HETATM   33  O   UNL     1     -39.978  59.895 -49.991  1.00  0.00    -0.356 OA
HETATM   34  C   UNL     1     -38.989  59.323 -50.847  1.00  0.00     0.210 C 
ENDBRANCH  29  33
ENDBRANCH   1  27
TORSDOF 6
ENDMDL
MODEL 6
REMARK VINA RESULT:      -8.2      2.158      2.994
REMARK  6 active torsions:
REMARK  status: ('A' for Active; 'I' for Inactive)
REMARK    1  A    between atoms: O_2  and  C_3 
REMARK    2  A    between atoms: C_5  and  N_6 
REMARK    3  A    between atoms: C_7  and  C_9 
REMARK    4  A    between atoms: C_7  and  O_8 
REMARK       I    between atoms: C_9  and  N_10 
REMARK    5  A    between atoms: N_10  and  C_11 
REMARK    6  A    between atoms: C_11  and  C_12 
ROOT
HETATM    1  N   UNL     1     -43.172  58.503 -55.402  1.00  0.00    -0.254 N 
HETATM    2  C   UNL     1     -43.338  57.352 -56.313  1.00  0.00     0.256 C 
HETATM    3  C   UNL     1     -42.842  57.588 -57.731  1.00  0.00     0.034 A 
HETATM    4  C   UNL     1     -42.578  58.884 -58.143  1.00  0.00     0.048 A 
HETATM    5  N   UNL     1     -42.737  59.916 -57.238  1.00  0.00    -0.308 N 
HETATM    6  C   UNL     1     -43.042  59.786 -55.918  1.00  0.00     0.330 C 
HETATM    7  O   UNL     1     -43.145  60.837 -55.283  1.00  0.00    -0.246 OA
HETATM    8  C   UNL     1     -42.705  56.551 -58.674  1.00  0.00     0.015 A 
HETATM    9  C   UNL     1     -42.286  56.823 -59.980  1.00  0.00     0.001 A 
HETATM   10  C   UNL     1     -42.022  58.133 -60.367  1.00  0.00     0.002 A 
HETATM   11  C   UNL     1     -42.174  59.169 -59.448  1.00  0.00     0.030 A 
HETATM   12  H   UNL     1     -42.619  60.875 -57.537  1.00  0.00     0.170 HD
ENDROOT
BRANCH   2  13
HETATM   13  C   UNL     1     -42.577  56.077 -55.743  1.00  0.00     0.279 C 
HETATM   14  N   UNL     1     -43.364  55.028 -55.317  1.00  0.00    -0.352 N 
HETATM   15  H   UNL     1     -44.343  55.028 -55.579  1.00  0.00     0.162 HD
HETATM   16  O   UNL     1     -41.349  56.094 -55.603  1.00  0.00    -0.268 OA
BRANCH  14  17
HETATM   17  C   UNL     1     -42.787  53.793 -54.844  1.00  0.00     0.161 C 
BRANCH  17  18
HETATM   18  C   UNL     1     -42.372  53.913 -53.401  1.00  0.00    -0.040 A 
HETATM   19  C   UNL     1     -41.056  53.639 -53.005  1.00  0.00     0.010 A 
HETATM   20  C   UNL     1     -40.682  53.767 -51.665  1.00  0.00     0.024 A 
HETATM   21  C   UNL     1     -41.621  54.164 -50.716  1.00  0.00     0.034 A 
HETATM   22 CL   UNL     1     -41.157  54.328 -49.067  1.00  0.00    -0.084 Cl
HETATM   23  C   UNL     1     -42.935  54.431 -51.094  1.00  0.00     0.024 A 
HETATM   24  C   UNL     1     -43.310  54.304 -52.433  1.00  0.00     0.010 A 
ENDBRANCH  17  18
ENDBRANCH  14  17
ENDBRANCH   2  13
BRANCH   2  25
HETATM   25  O   UNL     1     -44.736  57.090 -56.447  1.00  0.00    -0.359 OA
HETATM   26  H   UNL     1     -45.114  57.291 -55.570  1.00  0.00     0.213 HD
ENDBRANCH   2  25
BRANCH   1  27
HETATM   27  C   UNL     1     -43.377  58.330 -53.974  1.00  0.00     0.045 A 
HETATM   28  C   UNL     1     -42.285  58.345 -53.089  1.00  0.00     0.066 A 
HETATM   29  C   UNL     1     -42.455  58.183 -51.710  1.00  0.00     0.070 A 
HETATM   30  C   UNL     1     -43.718  57.939 -51.184  1.00  0.00     0.037 A 
HETATM   31  C   UNL     1     -44.813  57.899 -52.040  1.00  0.00     0.005 A 
HETATM   32  C   UNL     1     -44.644  58.100 -53.416  1.00  0.00     0.030 A 
BRANCH  29  33
HETATM   33  O   UNL     1     -41.320  58.218 -50.945  1.00  0.00    -0.356 OA
HETATM   34  C   UNL     1     -40.241  58.900 -51.585  1.00  0.00     0.210 C 
ENDBRANCH  29  33
ENDBRANCH   1  27
TORSDOF 6
ENDMDL
MODEL 7
REMARK VINA RESULT:      -8.1      2.418      3.590
REMARK  6 active torsions:
REMARK  status: ('A' for Active; 'I' for Inactive)
REMARK    1  A    between atoms: O_2  and  C_3 
REMARK    2  A    between atoms: C_5  and  N_6 
REMARK    3  A    between atoms: C_7  and  C_9 
REMARK    4  A    between atoms: C_7  and  O_8 
REMARK       I    between atoms: C_9  and  N_10 
REMARK    5  A    between atoms: N_10  and  C_11 
REMARK    6  A    between atoms: C_11  and  C_12 
ROOT
HETATM    1  N   UNL     1     -43.279  58.668 -53.473  1.00  0.00    -0.254 N 
HETATM    2  C   UNL     1     -43.691  57.252 -53.554  1.00  0.00     0.256 C 
HETATM    3  C   UNL     1     -43.365  56.570 -54.873  1.00  0.00     0.034 A 
HETATM    4  C   UNL     1     -43.016  57.350 -55.963  1.00  0.00     0.048 A 
HETATM    5  N   UNL     1     -42.939  58.721 -55.805  1.00  0.00    -0.308 N 
HETATM    6  C   UNL     1     -43.078  59.402 -54.636  1.00  0.00     0.330 C 
HETATM    7  O   UNL     1     -42.980  60.628 -54.712  1.00  0.00    -0.246 OA
HETATM    8  C   UNL     1     -43.469  55.178 -55.059  1.00  0.00     0.015 A 
HETATM    9  C   UNL     1     -43.200  54.601 -56.303  1.00  0.00     0.001 A 
HETATM   10  C   UNL     1     -42.846  55.406 -57.381  1.00  0.00     0.002 A 
HETATM   11  C   UNL     1     -42.760  56.786 -57.214  1.00  0.00     0.030 A 
HETATM   12  H   UNL     1     -42.756  59.314 -56.604  1.00  0.00     0.170 HD
ENDROOT
BRANCH   2  13
HETATM   13  C   UNL     1     -43.007  56.408 -52.393  1.00  0.00     0.279 C 
HETATM   14  N   UNL     1     -41.703  56.010 -52.605  1.00  0.00    -0.352 N 
HETATM   15  H   UNL     1     -41.189  56.443 -53.364  1.00  0.00     0.162 HD
HETATM   16  O   UNL     1     -43.664  56.051 -51.409  1.00  0.00    -0.268 OA
BRANCH  14  17
HETATM   17  C   UNL     1     -40.956  55.299 -51.596  1.00  0.00     0.161 C 
BRANCH  17  18
HETATM   18  C   UNL     1     -40.538  53.942 -52.096  1.00  0.00    -0.040 A 
HETATM   19  C   UNL     1     -40.074  52.959 -51.211  1.00  0.00     0.010 A 
HETATM   20  C   UNL     1     -39.702  51.699 -51.687  1.00  0.00     0.024 A 
HETATM   21  C   UNL     1     -39.787  51.418 -53.049  1.00  0.00     0.034 A 
HETATM   22 CL   UNL     1     -39.335  49.864 -53.632  1.00  0.00    -0.084 Cl
HETATM   23  C   UNL     1     -40.238  52.387 -53.942  1.00  0.00     0.024 A 
HETATM   24  C   UNL     1     -40.610  53.646 -53.466  1.00  0.00     0.010 A 
ENDBRANCH  17  18
ENDBRANCH  14  17
ENDBRANCH   2  13
BRANCH   2  25
HETATM   25  O   UNL     1     -45.115  57.197 -53.449  1.00  0.00    -0.359 OA
HETATM   26  H   UNL     1     -45.298  57.254 -52.493  1.00  0.00     0.213 HD
ENDBRANCH   2  25
BRANCH   1  27
HETATM   27  C   UNL     1     -43.311  59.359 -52.195  1.00  0.00     0.045 A 
HETATM   28  C   UNL     1     -44.537  59.678 -51.585  1.00  0.00     0.066 A 
HETATM   29  C   UNL     1     -44.595  60.340 -50.355  1.00  0.00     0.070 A 
HETATM   30  C   UNL     1     -43.428  60.760 -49.730  1.00  0.00     0.037 A 
HETATM   31  C   UNL     1     -42.202  60.475 -50.321  1.00  0.00     0.005 A 
HETATM   32  C   UNL     1     -42.145  59.778 -51.534  1.00  0.00     0.030 A 
BRANCH  29  33
HETATM   33  O   UNL     1     -45.845  60.595 -49.856  1.00  0.00    -0.356 OA
HETATM   34  C   UNL     1     -45.887  61.765 -49.040  1.00  0.00     0.210 C 
ENDBRANCH  29  33
ENDBRANCH   1  27
TORSDOF 6
ENDMDL
MODEL 8
REMARK VINA RESULT:      -7.7      3.598      7.383
REMARK  6 active torsions:
REMARK  status: ('A' for Active; 'I' for Inactive)
REMARK    1  A    between atoms: O_2  and  C_3 
REMARK    2  A    between atoms: C_5  and  N_6 
REMARK    3  A    between atoms: C_7  and  C_9 
REMARK    4  A    between atoms: C_7  and  O_8 
REMARK       I    between atoms: C_9  and  N_10 
REMARK    5  A    between atoms: N_10  and  C_11 
REMARK    6  A    between atoms: C_11  and  C_12 
ROOT
HETATM    1  N   UNL     1     -42.686  55.727 -54.530  1.00  0.00    -0.254 N 
HETATM    2  C   UNL     1     -42.295  55.536 -53.118  1.00  0.00     0.256 C 
HETATM    3  C   UNL     1     -41.400  54.333 -52.865  1.00  0.00     0.034 A 
HETATM    4  C   UNL     1     -41.276  53.369 -53.852  1.00  0.00     0.048 A 
HETATM    5  N   UNL     1     -41.940  53.552 -55.050  1.00  0.00    -0.308 N 
HETATM    6  C   UNL     1     -42.647  54.656 -55.415  1.00  0.00     0.330 C 
HETATM    7  O   UNL     1     -43.170  54.616 -56.529  1.00  0.00    -0.246 OA
HETATM    8  C   UNL     1     -40.743  54.116 -51.639  1.00  0.00     0.015 A 
HETATM    9  C   UNL     1     -39.964  52.973 -51.437  1.00  0.00     0.001 A 
HETATM   10  C   UNL     1     -39.851  52.022 -52.447  1.00  0.00     0.002 A 
HETATM   11  C   UNL     1     -40.514  52.215 -53.656  1.00  0.00     0.030 A 
HETATM   12  H   UNL     1     -41.921  52.828 -55.756  1.00  0.00     0.170 HD
ENDROOT
BRANCH   2  13
HETATM   13  C   UNL     1     -41.537  56.823 -52.573  1.00  0.00     0.279 C 
HETATM   14  N   UNL     1     -42.144  57.505 -51.540  1.00  0.00    -0.352 N 
HETATM   15  H   UNL     1     -42.904  57.049 -51.047  1.00  0.00     0.162 HD
HETATM   16  O   UNL     1     -40.513  57.229 -53.133  1.00  0.00    -0.268 OA
BRANCH  14  17
HETATM   17  C   UNL     1     -41.520  58.646 -50.917  1.00  0.00     0.161 C 
BRANCH  17  18
HETATM   18  C   UNL     1     -42.184  59.926 -51.353  1.00  0.00    -0.040 A 
HETATM   19  C   UNL     1     -42.346  60.225 -52.713  1.00  0.00     0.010 A 
HETATM   20  C   UNL     1     -42.976  61.410 -53.104  1.00  0.00     0.024 A 
HETATM   21  C   UNL     1     -43.442  62.300 -52.139  1.00  0.00     0.034 A 
HETATM   22 CL   UNL     1     -44.224  63.754 -52.623  1.00  0.00    -0.084 Cl
HETATM   23  C   UNL     1     -43.280  62.020 -50.784  1.00  0.00     0.024 A 
HETATM   24  C   UNL     1     -42.651  60.836 -50.393  1.00  0.00     0.010 A 
ENDBRANCH  17  18
ENDBRANCH  14  17
ENDBRANCH   2  13
BRANCH   2  25
HETATM   25  O   UNL     1     -43.479  55.285 -52.360  1.00  0.00    -0.359 OA
HETATM   26  H   UNL     1     -44.169  55.829 -52.784  1.00  0.00     0.213 HD
ENDBRANCH   2  25
BRANCH   1  27
HETATM   27  C   UNL     1     -43.330  56.962 -54.941  1.00  0.00     0.045 A 
HETATM   28  C   UNL     1     -42.658  57.877 -55.771  1.00  0.00     0.066 A 
HETATM   29  C   UNL     1     -43.255  59.072 -56.183  1.00  0.00     0.070 A 
HETATM   30  C   UNL     1     -44.521  59.416 -55.724  1.00  0.00     0.037 A 
HETATM   31  C   UNL     1     -45.201  58.539 -54.887  1.00  0.00     0.005 A 
HETATM   32  C   UNL     1     -44.615  57.325 -54.507  1.00  0.00     0.030 A 
BRANCH  29  33
HETATM   33  O   UNL     1     -42.506  59.884 -56.992  1.00  0.00    -0.356 OA
HETATM   34  C   UNL     1     -41.909  59.181 -58.081  1.00  0.00     0.210 C 
ENDBRANCH  29  33
ENDBRANCH   1  27
TORSDOF 6
ENDMDL
MODEL 9
REMARK VINA RESULT:      -7.6     15.218     17.660
REMARK  6 active torsions:
REMARK  status: ('A' for Active; 'I' for Inactive)
REMARK    1  A    between atoms: O_2  and  C_3 
REMARK    2  A    between atoms: C_5  and  N_6 
REMARK    3  A    between atoms: C_7  and  C_9 
REMARK    4  A    between atoms: C_7  and  O_8 
REMARK       I    between atoms: C_9  and  N_10 
REMARK    5  A    between atoms: N_10  and  C_11 
REMARK    6  A    between atoms: C_11  and  C_12 
ROOT
HETATM    1  N   UNL     1     -33.710  40.212 -53.283  1.00  0.00    -0.254 N 
HETATM    2  C   UNL     1     -35.040  40.852 -53.338  1.00  0.00     0.256 C 
HETATM    3  C   UNL     1     -35.469  41.304 -54.725  1.00  0.00     0.034 A 
HETATM    4  C   UNL     1     -34.521  41.375 -55.732  1.00  0.00     0.048 A 
HETATM    5  N   UNL     1     -33.221  40.996 -55.451  1.00  0.00    -0.308 N 
HETATM    6  C   UNL     1     -32.778  40.453 -54.285  1.00  0.00     0.330 C 
HETATM    7  O   UNL     1     -31.575  40.191 -54.236  1.00  0.00    -0.246 OA
HETATM    8  C   UNL     1     -36.781  41.723 -55.019  1.00  0.00     0.015 A 
HETATM    9  C   UNL     1     -37.119  42.170 -56.299  1.00  0.00     0.001 A 
HETATM   10  C   UNL     1     -36.149  42.227 -57.295  1.00  0.00     0.002 A 
HETATM   11  C   UNL     1     -34.843  41.835 -57.010  1.00  0.00     0.030 A 
HETATM   12  H   UNL     1     -32.499  41.108 -56.150  1.00  0.00     0.170 HD
ENDROOT
BRANCH   2  13
HETATM   13  C   UNL     1     -36.156  39.864 -52.786  1.00  0.00     0.279 C 
HETATM   14  N   UNL     1     -36.701  40.173 -51.558  1.00  0.00    -0.352 N 
HETATM   15  H   UNL     1     -36.532  41.097 -51.178  1.00  0.00     0.162 HD
HETATM   16  O   UNL     1     -36.427  38.824 -53.397  1.00  0.00    -0.268 OA
BRANCH  14  17
HETATM   17  C   UNL     1     -37.769  39.389 -50.986  1.00  0.00     0.161 C 
BRANCH  17  18
HETATM   18  C   UNL     1     -37.373  38.845 -49.639  1.00  0.00    -0.040 A 
HETATM   19  C   UNL     1     -36.040  38.890 -49.208  1.00  0.00     0.010 A 
HETATM   20  C   UNL     1     -35.689  38.394 -47.949  1.00  0.00     0.024 A 
HETATM   21  C   UNL     1     -36.666  37.848 -47.120  1.00  0.00     0.034 A 
HETATM   22 CL   UNL     1     -36.232  37.244 -45.568  1.00  0.00    -0.084 Cl
HETATM   23  C   UNL     1     -37.993  37.789 -47.539  1.00  0.00     0.024 A 
HETATM   24  C   UNL     1     -38.345  38.284 -48.796  1.00  0.00     0.010 A 
ENDBRANCH  17  18
ENDBRANCH  14  17
ENDBRANCH   2  13
BRANCH   2  25
HETATM   25  O   UNL     1     -34.990  42.048 -52.557  1.00  0.00    -0.359 OA
HETATM   26  H   UNL     1     -34.595  41.776 -51.708  1.00  0.00     0.213 HD
ENDBRANCH   2  25
BRANCH   1  27
HETATM   27  C   UNL     1     -33.289  39.523 -52.075  1.00  0.00     0.045 A 
HETATM   28  C   UNL     1     -32.794  40.246 -50.975  1.00  0.00     0.066 A 
HETATM   29  C   UNL     1     -32.384  39.607 -49.801  1.00  0.00     0.070 A 
HETATM   30  C   UNL     1     -32.398  38.220 -49.716  1.00  0.00     0.037 A 
HETATM   31  C   UNL     1     -32.865  37.480 -50.796  1.00  0.00     0.005 A 
HETATM   32  C   UNL     1     -33.311  38.124 -51.957  1.00  0.00     0.030 A 
BRANCH  29  33
HETATM   33  O   UNL     1     -31.922  40.414 -48.795  1.00  0.00    -0.356 OA
HETATM   34  C   UNL     1     -31.217  39.692 -47.785  1.00  0.00     0.210 C 
ENDBRANCH  29  33
ENDBRANCH   1  27
TORSDOF 6
ENDMDL
MODEL 10
REMARK VINA RESULT:      -7.6      3.062      6.580
REMARK  6 active torsions:
REMARK  status: ('A' for Active; 'I' for Inactive)
REMARK    1  A    between atoms: O_2  and  C_3 
REMARK    2  A    between atoms: C_5  and  N_6 
REMARK    3  A    between atoms: C_7  and  C_9 
REMARK    4  A    between atoms: C_7  and  O_8 
REMARK       I    between atoms: C_9  and  N_10 
REMARK    5  A    between atoms: N_10  and  C_11 
REMARK    6  A    between atoms: C_11  and  C_12 
ROOT
HETATM    1  N   UNL     1     -41.459  54.510 -51.857  1.00  0.00    -0.254 N 
HETATM    2  C   UNL     1     -41.033  54.039 -53.191  1.00  0.00     0.256 C 
HETATM    3  C   UNL     1     -40.547  52.599 -53.230  1.00  0.00     0.034 A 
HETATM    4  C   UNL     1     -40.249  51.959 -52.039  1.00  0.00     0.048 A 
HETATM    5  N   UNL     1     -40.439  52.638 -50.851  1.00  0.00    -0.308 N 
HETATM    6  C   UNL     1     -40.996  53.872 -50.713  1.00  0.00     0.330 C 
HETATM    7  O   UNL     1     -41.069  54.305 -49.562  1.00  0.00    -0.246 OA
HETATM    8  C   UNL     1     -40.318  51.903 -54.433  1.00  0.00     0.015 A 
HETATM    9  C   UNL     1     -39.830  50.593 -54.420  1.00  0.00     0.001 A 
HETATM   10  C   UNL     1     -39.543  49.971 -53.209  1.00  0.00     0.002 A 
HETATM   11  C   UNL     1     -39.746  50.656 -52.014  1.00  0.00     0.030 A 
HETATM   12  H   UNL     1     -40.160  52.217 -49.975  1.00  0.00     0.170 HD
ENDROOT
BRANCH   2  13
HETATM   13  C   UNL     1     -42.226  54.173 -54.234  1.00  0.00     0.279 C 
HETATM   14  N   UNL     1     -42.032  55.046 -55.284  1.00  0.00    -0.352 N 
HETATM   15  H   UNL     1     -41.092  55.383 -55.459  1.00  0.00     0.162 HD
HETATM   16  O   UNL     1     -43.299  53.594 -54.034  1.00  0.00    -0.268 OA
BRANCH  14  17
HETATM   17  C   UNL     1     -43.014  55.201 -56.330  1.00  0.00     0.161 C 
BRANCH  17  18
HETATM   18  C   UNL     1     -43.677  56.550 -56.247  1.00  0.00    -0.040 A 
HETATM   19  C   UNL     1     -43.838  57.345 -57.390  1.00  0.00     0.010 A 
HETATM   20  C   UNL     1     -44.468  58.590 -57.300  1.00  0.00     0.024 A 
HETATM   21  C   UNL     1     -44.935  59.045 -56.069  1.00  0.00     0.034 A 
HETATM   22 CL   UNL     1     -45.716  60.575 -55.963  1.00  0.00    -0.084 Cl
HETATM   23  C   UNL     1     -44.773  58.270 -54.923  1.00  0.00     0.024 A 
HETATM   24  C   UNL     1     -44.144  57.027 -55.012  1.00  0.00     0.010 A 
ENDBRANCH  17  18
ENDBRANCH  14  17
ENDBRANCH   2  13
BRANCH   2  25
HETATM   25  O   UNL     1     -39.910  54.821 -53.601  1.00  0.00    -0.359 OA
HETATM   26  H   UNL     1     -39.131  54.275 -53.383  1.00  0.00     0.213 HD
ENDBRANCH   2  25
BRANCH   1  27
HETATM   27  C   UNL     1     -42.166  55.773 -51.728  1.00  0.00     0.045 A 
HETATM   28  C   UNL     1     -41.504  56.990 -51.966  1.00  0.00     0.066 A 
HETATM   29  C   UNL     1     -42.162  58.219 -51.850  1.00  0.00     0.070 A 
HETATM   30  C   UNL     1     -43.486  58.267 -51.432  1.00  0.00     0.037 A 
HETATM   31  C   UNL     1     -44.159  57.079 -51.171  1.00  0.00     0.005 A 
HETATM   32  C   UNL     1     -43.509  55.848 -51.325  1.00  0.00     0.030 A 
BRANCH  29  33
HETATM   33  O   UNL     1     -41.417  59.338 -52.108  1.00  0.00    -0.356 OA
HETATM   34  C   UNL     1     -40.309  59.080 -52.970  1.00  0.00     0.210 C 
ENDBRANCH  29  33
ENDBRANCH   1  27
TORSDOF 6
ENDMDL
