MODEL 1
REMARK VINA RESULT:      -9.0      0.000      0.000
REMARK  5 active torsions:
REMARK  status: ('A' for Active; 'I' for Inactive)
REMARK    1  A    between atoms: N_7  and  N_8 
REMARK       I    between atoms: N_8  and  C_9 
REMARK    2  A    between atoms: C_9  and  C_10 
REMARK    3  A    between atoms: C_13  and  O_14 
REMARK    4  A    between atoms: O_14  and  C_15 
REMARK    5  A    between atoms: C_15  and  C_16 
ROOT
HETATM    1  N   UNL     1     -45.043  59.381 -49.791  1.00  0.00    -0.242 N 
HETATM    2  C   UNL     1     -45.661  58.586 -50.746  1.00  0.00     0.271 C 
HETATM    3  O   UNL     1     -46.870  58.495 -50.935  1.00  0.00    -0.266 OA
HETATM    4  H   UNL     1     -44.080  59.203 -49.550  1.00  0.00     0.192 HD
ENDROOT
BRANCH   2   5
HETATM    5  C   UNL     1     -44.747  57.765 -51.584  1.00  0.00     0.033 A 
HETATM    6  C   UNL     1     -43.928  56.824 -50.952  1.00  0.00     0.020 A 
HETATM    7  C   UNL     1     -43.098  55.987 -51.704  1.00  0.00     0.038 A 
HETATM    8  C   UNL     1     -43.101  56.070 -53.098  1.00  0.00     0.069 A 
HETATM    9  C   UNL     1     -43.905  57.026 -53.728  1.00  0.00     0.038 A 
HETATM   10  C   UNL     1     -44.733  57.868 -52.979  1.00  0.00     0.020 A 
BRANCH   8  11
HETATM   11  O   UNL     1     -42.374  55.280 -53.945  1.00  0.00    -0.347 OA
BRANCH  11  12
HETATM   12  C   UNL     1     -40.969  55.217 -53.708  1.00  0.00     0.214 C 
BRANCH  12  13
HETATM   13  C   UNL     1     -40.595  53.782 -53.422  1.00  0.00    -0.034 A 
HETATM   14  C   UNL     1     -40.565  52.836 -54.457  1.00  0.00     0.011 A 
HETATM   15  C   UNL     1     -40.221  51.507 -54.192  1.00  0.00     0.024 A 
HETATM   16  C   UNL     1     -39.912  51.118 -52.891  1.00  0.00     0.034 A 
HETATM   17 CL   UNL     1     -39.489  49.482 -52.565  1.00  0.00    -0.084 Cl
HETATM   18  C   UNL     1     -39.945  52.044 -51.851  1.00  0.00     0.024 A 
HETATM   19  C   UNL     1     -40.288  53.371 -52.115  1.00  0.00     0.011 A 
ENDBRANCH  12  13
ENDBRANCH  11  12
ENDBRANCH   8  11
ENDBRANCH   2   5
BRANCH   1  20
HETATM   20  N   UNL     1     -45.816  60.116 -48.951  1.00  0.00    -0.166 NA
HETATM   21  C   UNL     1     -45.528  61.347 -48.672  1.00  0.00     0.157 A 
HETATM   22  C   UNL     1     -44.492  62.290 -49.123  1.00  0.00     0.027 A 
HETATM   23  C   UNL     1     -46.374  62.123 -47.635  1.00  0.00     0.277 A 
HETATM   24  C   UNL     1     -43.492  62.222 -50.077  1.00  0.00     0.016 A 
HETATM   25  C   UNL     1     -44.691  63.463 -48.386  1.00  0.00     0.048 A 
HETATM   26  C   UNL     1     -42.669  63.343 -50.245  1.00  0.00     0.001 A 
HETATM   27  C   UNL     1     -42.864  64.508 -49.480  1.00  0.00     0.002 A 
HETATM   28  C   UNL     1     -43.893  64.578 -48.540  1.00  0.00     0.030 A 
HETATM   29  N   UNL     1     -45.777  63.357 -47.527  1.00  0.00    -0.321 N 
HETATM   30  H   UNL     1     -46.129  64.076 -46.914  1.00  0.00     0.169 HD
HETATM   31  O   UNL     1     -47.351  61.723 -47.043  1.00  0.00    -0.266 OA
ENDBRANCH   1  20
TORSDOF 5
ENDMDL
MODEL 2
REMARK VINA RESULT:      -8.9      6.623     10.137
REMARK  5 active torsions:
REMARK  status: ('A' for Active; 'I' for Inactive)
REMARK    1  A    between atoms: N_7  and  N_8 
REMARK       I    between atoms: N_8  and  C_9 
REMARK    2  A    between atoms: C_9  and  C_10 
REMARK    3  A    between atoms: C_13  and  O_14 
REMARK    4  A    between atoms: O_14  and  C_15 
REMARK    5  A    between atoms: C_15  and  C_16 
ROOT
HETATM    1  N   UNL     1     -41.359  54.985 -52.899  1.00  0.00    -0.242 N 
HETATM    2  C   UNL     1     -42.677  54.884 -53.322  1.00  0.00     0.271 C 
HETATM    3  O   UNL     1     -43.598  54.370 -52.695  1.00  0.00    -0.266 OA
HETATM    4  H   UNL     1     -40.640  55.195 -53.573  1.00  0.00     0.192 HD
ENDROOT
BRANCH   2   5
HETATM    5  C   UNL     1     -42.960  55.441 -54.672  1.00  0.00     0.033 A 
HETATM    6  C   UNL     1     -43.531  56.715 -54.762  1.00  0.00     0.020 A 
HETATM    7  C   UNL     1     -43.758  57.305 -56.009  1.00  0.00     0.038 A 
HETATM    8  C   UNL     1     -43.392  56.632 -57.176  1.00  0.00     0.069 A 
HETATM    9  C   UNL     1     -42.840  55.350 -57.086  1.00  0.00     0.038 A 
HETATM   10  C   UNL     1     -42.616  54.754 -55.841  1.00  0.00     0.020 A 
BRANCH   8  11
HETATM   11  O   UNL     1     -43.517  57.117 -58.448  1.00  0.00    -0.347 OA
BRANCH  11  12
HETATM   12  C   UNL     1     -44.373  58.246 -58.617  1.00  0.00     0.214 C 
BRANCH  12  13
HETATM   13  C   UNL     1     -45.506  57.854 -59.536  1.00  0.00    -0.034 A 
HETATM   14  C   UNL     1     -45.700  56.512 -59.894  1.00  0.00     0.011 A 
HETATM   15  C   UNL     1     -46.747  56.150 -60.745  1.00  0.00     0.024 A 
HETATM   16  C   UNL     1     -47.602  57.129 -61.246  1.00  0.00     0.034 A 
HETATM   17 CL   UNL     1     -48.893  56.684 -62.294  1.00  0.00    -0.084 Cl
HETATM   18  C   UNL     1     -47.419  58.467 -60.906  1.00  0.00     0.024 A 
HETATM   19  C   UNL     1     -46.373  58.830 -60.055  1.00  0.00     0.011 A 
ENDBRANCH  12  13
ENDBRANCH  11  12
ENDBRANCH   8  11
ENDBRANCH   2   5
BRANCH   1  20
HETATM   20  N   UNL     1     -41.015  54.449 -51.700  1.00  0.00    -0.166 NA
HETATM   21  C   UNL     1     -40.590  53.230 -51.603  1.00  0.00     0.157 A 
HETATM   22  C   UNL     1     -40.292  52.163 -52.572  1.00  0.00     0.027 A 
HETATM   23  C   UNL     1     -40.300  52.620 -50.212  1.00  0.00     0.277 A 
HETATM   24  C   UNL     1     -40.284  52.106 -53.955  1.00  0.00     0.016 A 
HETATM   25  C   UNL     1     -39.922  51.046 -51.814  1.00  0.00     0.048 A 
HETATM   26  C   UNL     1     -39.938  50.891 -54.559  1.00  0.00     0.001 A 
HETATM   27  C   UNL     1     -39.591  49.769 -53.786  1.00  0.00     0.002 A 
HETATM   28  C   UNL     1     -39.574  49.842 -52.393  1.00  0.00     0.030 A 
HETATM   29  N   UNL     1     -39.932  51.317 -50.453  1.00  0.00    -0.321 N 
HETATM   30  H   UNL     1     -39.681  50.681 -49.712  1.00  0.00     0.169 HD
HETATM   31  O   UNL     1     -40.385  53.175 -49.139  1.00  0.00    -0.266 OA
ENDBRANCH   1  20
TORSDOF 5
ENDMDL
MODEL 3
REMARK VINA RESULT:      -8.8      4.631      8.258
REMARK  5 active torsions:
REMARK  status: ('A' for Active; 'I' for Inactive)
REMARK    1  A    between atoms: N_7  and  N_8 
REMARK       I    between atoms: N_8  and  C_9 
REMARK    2  A    between atoms: C_9  and  C_10 
REMARK    3  A    between atoms: C_13  and  O_14 
REMARK    4  A    between atoms: O_14  and  C_15 
REMARK    5  A    between atoms: C_15  and  C_16 
ROOT
HETATM    1  N   UNL     1     -42.481  56.762 -51.355  1.00  0.00    -0.242 N 
HETATM    2  C   UNL     1     -43.862  56.857 -51.463  1.00  0.00     0.271 C 
HETATM    3  O   UNL     1     -44.677  56.479 -50.628  1.00  0.00    -0.266 OA
HETATM    4  H   UNL     1     -41.914  56.868 -52.182  1.00  0.00     0.192 HD
ENDROOT
BRANCH   2   5
HETATM    5  C   UNL     1     -44.365  57.456 -52.728  1.00  0.00     0.033 A 
HETATM    6  C   UNL     1     -44.769  58.796 -52.716  1.00  0.00     0.020 A 
HETATM    7  C   UNL     1     -45.191  59.420 -53.894  1.00  0.00     0.038 A 
HETATM    8  C   UNL     1     -45.188  58.713 -55.098  1.00  0.00     0.069 A 
HETATM    9  C   UNL     1     -44.804  57.368 -55.104  1.00  0.00     0.038 A 
HETATM   10  C   UNL     1     -44.385  56.739 -53.928  1.00  0.00     0.020 A 
BRANCH   8  11
HETATM   11  O   UNL     1     -45.531  59.220 -56.321  1.00  0.00    -0.347 OA
BRANCH  11  12
HETATM   12  C   UNL     1     -44.478  59.345 -57.275  1.00  0.00     0.214 C 
BRANCH  12  13
HETATM   13  C   UNL     1     -44.617  58.236 -58.291  1.00  0.00    -0.034 A 
HETATM   14  C   UNL     1     -43.479  57.592 -58.799  1.00  0.00     0.011 A 
HETATM   15  C   UNL     1     -43.608  56.566 -59.740  1.00  0.00     0.024 A 
HETATM   16  C   UNL     1     -44.873  56.185 -60.181  1.00  0.00     0.034 A 
HETATM   17 CL   UNL     1     -45.031  54.922 -61.339  1.00  0.00    -0.084 Cl
HETATM   18  C   UNL     1     -46.012  56.820 -59.691  1.00  0.00     0.024 A 
HETATM   19  C   UNL     1     -45.884  57.844 -58.751  1.00  0.00     0.011 A 
ENDBRANCH  12  13
ENDBRANCH  11  12
ENDBRANCH   8  11
ENDBRANCH   2   5
BRANCH   1  20
HETATM   20  N   UNL     1     -41.950  56.175 -50.253  1.00  0.00    -0.166 NA
HETATM   21  C   UNL     1     -41.319  55.047 -50.326  1.00  0.00     0.157 A 
HETATM   22  C   UNL     1     -40.929  54.156 -51.430  1.00  0.00     0.027 A 
HETATM   23  C   UNL     1     -40.813  54.358 -49.037  1.00  0.00     0.277 A 
HETATM   24  C   UNL     1     -41.031  54.244 -52.808  1.00  0.00     0.016 A 
HETATM   25  C   UNL     1     -40.313  53.050 -50.833  1.00  0.00     0.048 A 
HETATM   26  C   UNL     1     -40.537  53.178 -53.571  1.00  0.00     0.001 A 
HETATM   27  C   UNL     1     -39.941  52.061 -52.958  1.00  0.00     0.002 A 
HETATM   28  C   UNL     1     -39.818  51.992 -51.570  1.00  0.00     0.030 A 
HETATM   29  N   UNL     1     -40.253  53.173 -49.452  1.00  0.00    -0.321 N 
HETATM   30  H   UNL     1     -39.836  52.517 -48.809  1.00  0.00     0.169 HD
HETATM   31  O   UNL     1     -40.899  54.775 -47.905  1.00  0.00    -0.266 OA
ENDBRANCH   1  20
TORSDOF 5
ENDMDL
MODEL 4
REMARK VINA RESULT:      -8.7      6.565     10.174
REMARK  5 active torsions:
REMARK  status: ('A' for Active; 'I' for Inactive)
REMARK    1  A    between atoms: N_7  and  N_8 
REMARK       I    between atoms: N_8  and  C_9 
REMARK    2  A    between atoms: C_9  and  C_10 
REMARK    3  A    between atoms: C_13  and  O_14 
REMARK    4  A    between atoms: O_14  and  C_15 
REMARK    5  A    between atoms: C_15  and  C_16 
ROOT
HETATM    1  N   UNL     1     -41.121  55.056 -53.237  1.00  0.00    -0.242 N 
HETATM    2  C   UNL     1     -42.309  55.733 -53.480  1.00  0.00     0.271 C 
HETATM    3  O   UNL     1     -43.171  55.997 -52.647  1.00  0.00    -0.266 OA
HETATM    4  H   UNL     1     -40.604  54.675 -54.014  1.00  0.00     0.192 HD
ENDROOT
BRANCH   2   5
HETATM    5  C   UNL     1     -42.535  56.142 -54.892  1.00  0.00     0.033 A 
HETATM    6  C   UNL     1     -42.624  55.144 -55.868  1.00  0.00     0.020 A 
HETATM    7  C   UNL     1     -42.898  55.475 -57.199  1.00  0.00     0.038 A 
HETATM    8  C   UNL     1     -43.110  56.808 -57.556  1.00  0.00     0.069 A 
HETATM    9  C   UNL     1     -43.001  57.807 -56.582  1.00  0.00     0.038 A 
HETATM   10  C   UNL     1     -42.723  57.480 -55.252  1.00  0.00     0.020 A 
BRANCH   8  11
HETATM   11  O   UNL     1     -43.430  57.257 -58.808  1.00  0.00    -0.347 OA
BRANCH  11  12
HETATM   12  C   UNL     1     -44.331  58.361 -58.876  1.00  0.00     0.214 C 
BRANCH  12  13
HETATM   13  C   UNL     1     -45.505  57.970 -59.742  1.00  0.00    -0.034 A 
HETATM   14  C   UNL     1     -46.378  58.948 -60.240  1.00  0.00     0.011 A 
HETATM   15  C   UNL     1     -47.466  58.585 -61.039  1.00  0.00     0.024 A 
HETATM   16  C   UNL     1     -47.688  57.243 -61.339  1.00  0.00     0.034 A 
HETATM   17 CL   UNL     1     -49.027  56.796 -62.323  1.00  0.00    -0.084 Cl
HETATM   18  C   UNL     1     -46.834  56.259 -60.846  1.00  0.00     0.024 A 
HETATM   19  C   UNL     1     -45.747  56.621 -60.047  1.00  0.00     0.011 A 
ENDBRANCH  12  13
ENDBRANCH  11  12
ENDBRANCH   8  11
ENDBRANCH   2   5
BRANCH   1  20
HETATM   20  N   UNL     1     -40.872  54.603 -51.982  1.00  0.00    -0.166 NA
HETATM   21  C   UNL     1     -40.508  53.380 -51.766  1.00  0.00     0.157 A 
HETATM   22  C   UNL     1     -40.201  52.229 -52.631  1.00  0.00     0.027 A 
HETATM   23  C   UNL     1     -40.327  52.870 -50.317  1.00  0.00     0.277 A 
HETATM   24  C   UNL     1     -40.115  52.063 -54.002  1.00  0.00     0.016 A 
HETATM   25  C   UNL     1     -39.926  51.162 -51.768  1.00  0.00     0.048 A 
HETATM   26  C   UNL     1     -39.787  50.792 -54.489  1.00  0.00     0.001 A 
HETATM   27  C   UNL     1     -39.536  49.721 -53.613  1.00  0.00     0.002 A 
HETATM   28  C   UNL     1     -39.598  49.903 -52.231  1.00  0.00     0.030 A 
HETATM   29  N   UNL     1     -40.004  51.539 -50.435  1.00  0.00    -0.321 N 
HETATM   30  H   UNL     1     -39.826  50.953 -49.634  1.00  0.00     0.169 HD
HETATM   31  O   UNL     1     -40.451  53.510 -49.297  1.00  0.00    -0.266 OA
ENDBRANCH   1  20
TORSDOF 5
ENDMDL
MODEL 5
REMARK VINA RESULT:      -8.7      6.573     10.007
REMARK  5 active torsions:
REMARK  status: ('A' for Active; 'I' for Inactive)
REMARK    1  A    between atoms: N_7  and  N_8 
REMARK       I    between atoms: N_8  and  C_9 
REMARK    2  A    between atoms: C_9  and  C_10 
REMARK    3  A    between atoms: C_13  and  O_14 
REMARK    4  A    between atoms: O_14  and  C_15 
REMARK    5  A    between atoms: C_15  and  C_16 
ROOT
HETATM    1  N   UNL     1     -41.353  54.937 -52.938  1.00  0.00    -0.242 N 
HETATM    2  C   UNL     1     -42.701  55.060 -53.245  1.00  0.00     0.271 C 
HETATM    3  O   UNL     1     -43.638  54.752 -52.515  1.00  0.00    -0.266 OA
HETATM    4  H   UNL     1     -40.673  54.981 -53.681  1.00  0.00     0.192 HD
ENDROOT
BRANCH   2   5
HETATM    5  C   UNL     1     -43.003  55.595 -54.600  1.00  0.00     0.033 A 
HETATM    6  C   UNL     1     -43.698  56.805 -54.698  1.00  0.00     0.020 A 
HETATM    7  C   UNL     1     -43.950  57.379 -55.948  1.00  0.00     0.038 A 
HETATM    8  C   UNL     1     -43.486  56.757 -57.108  1.00  0.00     0.069 A 
HETATM    9  C   UNL     1     -42.809  55.537 -57.010  1.00  0.00     0.038 A 
HETATM   10  C   UNL     1     -42.558  54.957 -55.762  1.00  0.00     0.020 A 
BRANCH   8  11
HETATM   11  O   UNL     1     -43.625  57.237 -58.381  1.00  0.00    -0.347 OA
BRANCH  11  12
HETATM   12  C   UNL     1     -42.439  57.297 -59.171  1.00  0.00     0.214 C 
BRANCH  12  13
HETATM   13  C   UNL     1     -42.113  58.748 -59.435  1.00  0.00    -0.034 A 
HETATM   14  C   UNL     1     -42.095  59.246 -60.747  1.00  0.00     0.011 A 
HETATM   15  C   UNL     1     -41.791  60.588 -60.991  1.00  0.00     0.024 A 
HETATM   16  C   UNL     1     -41.498  61.436 -59.926  1.00  0.00     0.034 A 
HETATM   17 CL   UNL     1     -41.123  63.089 -60.226  1.00  0.00    -0.084 Cl
HETATM   18  C   UNL     1     -41.503  60.956 -58.618  1.00  0.00     0.024 A 
HETATM   19  C   UNL     1     -41.807  59.615 -58.374  1.00  0.00     0.011 A 
ENDBRANCH  12  13
ENDBRANCH  11  12
ENDBRANCH   8  11
ENDBRANCH   2   5
BRANCH   1  20
HETATM   20  N   UNL     1     -41.001  54.404 -51.741  1.00  0.00    -0.166 NA
HETATM   21  C   UNL     1     -40.577  53.185 -51.644  1.00  0.00     0.157 A 
HETATM   22  C   UNL     1     -40.286  52.116 -52.613  1.00  0.00     0.027 A 
HETATM   23  C   UNL     1     -40.278  52.577 -50.253  1.00  0.00     0.277 A 
HETATM   24  C   UNL     1     -40.287  52.056 -53.995  1.00  0.00     0.016 A 
HETATM   25  C   UNL     1     -39.911  51.000 -51.855  1.00  0.00     0.048 A 
HETATM   26  C   UNL     1     -39.945  50.840 -54.600  1.00  0.00     0.001 A 
HETATM   27  C   UNL     1     -39.594  49.718 -53.826  1.00  0.00     0.002 A 
HETATM   28  C   UNL     1     -39.568  49.794 -52.433  1.00  0.00     0.030 A 
HETATM   29  N   UNL     1     -39.913  51.274 -50.494  1.00  0.00    -0.321 N 
HETATM   30  H   UNL     1     -39.658  50.638 -49.754  1.00  0.00     0.169 HD
HETATM   31  O   UNL     1     -40.356  53.134 -49.181  1.00  0.00    -0.266 OA
ENDBRANCH   1  20
TORSDOF 5
ENDMDL
MODEL 6
REMARK VINA RESULT:      -8.7     19.173     22.044
REMARK  5 active torsions:
REMARK  status: ('A' for Active; 'I' for Inactive)
REMARK    1  A    between atoms: N_7  and  N_8 
REMARK       I    between atoms: N_8  and  C_9 
REMARK    2  A    between atoms: C_9  and  C_10 
REMARK    3  A    between atoms: C_13  and  O_14 
REMARK    4  A    between atoms: O_14  and  C_15 
REMARK    5  A    between atoms: C_15  and  C_16 
ROOT
HETATM    1  N   UNL     1     -36.754  39.656 -59.948  1.00  0.00    -0.242 N 
HETATM    2  C   UNL     1     -37.106  40.938 -59.552  1.00  0.00     0.271 C 
HETATM    3  O   UNL     1     -37.458  41.850 -60.294  1.00  0.00    -0.266 OA
HETATM    4  H   UNL     1     -36.249  39.063 -59.307  1.00  0.00     0.192 HD
ENDROOT
BRANCH   2   5
HETATM    5  C   UNL     1     -37.018  41.204 -58.091  1.00  0.00     0.033 A 
HETATM    6  C   UNL     1     -35.906  41.901 -57.607  1.00  0.00     0.020 A 
HETATM    7  C   UNL     1     -35.809  42.229 -56.251  1.00  0.00     0.038 A 
HETATM    8  C   UNL     1     -36.838  41.882 -55.374  1.00  0.00     0.069 A 
HETATM    9  C   UNL     1     -37.940  41.168 -55.856  1.00  0.00     0.038 A 
HETATM   10  C   UNL     1     -38.039  40.834 -57.210  1.00  0.00     0.020 A 
BRANCH   8  11
HETATM   11  O   UNL     1     -36.886  42.184 -54.041  1.00  0.00    -0.347 OA
BRANCH  11  12
HETATM   12  C   UNL     1     -37.264  41.125 -53.163  1.00  0.00     0.214 C 
BRANCH  12  13
HETATM   13  C   UNL     1     -36.120  40.859 -52.213  1.00  0.00    -0.034 A 
HETATM   14  C   UNL     1     -36.068  39.665 -51.480  1.00  0.00     0.011 A 
HETATM   15  C   UNL     1     -35.011  39.420 -50.600  1.00  0.00     0.024 A 
HETATM   16  C   UNL     1     -34.005  40.370 -50.444  1.00  0.00     0.034 A 
HETATM   17 CL   UNL     1     -32.702  40.069 -49.360  1.00  0.00    -0.084 Cl
HETATM   18  C   UNL     1     -34.046  41.565 -51.158  1.00  0.00     0.024 A 
HETATM   19  C   UNL     1     -35.102  41.810 -52.039  1.00  0.00     0.011 A 
ENDBRANCH  12  13
ENDBRANCH  11  12
ENDBRANCH   8  11
ENDBRANCH   2   5
BRANCH   1  20
HETATM   20  N   UNL     1     -36.756  39.356 -61.272  1.00  0.00    -0.166 NA
HETATM   21  C   UNL     1     -37.741  38.716 -61.817  1.00  0.00     0.157 A 
HETATM   22  C   UNL     1     -39.039  38.219 -61.334  1.00  0.00     0.027 A 
HETATM   23  C   UNL     1     -37.666  38.304 -63.306  1.00  0.00     0.277 A 
HETATM   24  C   UNL     1     -39.713  38.328 -60.130  1.00  0.00     0.016 A 
HETATM   25  C   UNL     1     -39.622  37.549 -62.416  1.00  0.00     0.048 A 
HETATM   26  C   UNL     1     -40.968  37.714 -60.024  1.00  0.00     0.001 A 
HETATM   27  C   UNL     1     -41.533  37.022 -61.111  1.00  0.00     0.002 A 
HETATM   28  C   UNL     1     -40.858  36.941 -62.330  1.00  0.00     0.030 A 
HETATM   29  N   UNL     1     -38.822  37.600 -63.549  1.00  0.00    -0.321 N 
HETATM   30  H   UNL     1     -39.038  37.211 -64.454  1.00  0.00     0.169 HD
HETATM   31  O   UNL     1     -36.775  38.548 -64.087  1.00  0.00    -0.266 OA
ENDBRANCH   1  20
TORSDOF 5
ENDMDL
MODEL 7
REMARK VINA RESULT:      -8.4      5.633      9.033
REMARK  5 active torsions:
REMARK  status: ('A' for Active; 'I' for Inactive)
REMARK    1  A    between atoms: N_7  and  N_8 
REMARK       I    between atoms: N_8  and  C_9 
REMARK    2  A    between atoms: C_9  and  C_10 
REMARK    3  A    between atoms: C_13  and  O_14 
REMARK    4  A    between atoms: O_14  and  C_15 
REMARK    5  A    between atoms: C_15  and  C_16 
ROOT
HETATM    1  N   UNL     1     -41.764  56.350 -51.769  1.00  0.00    -0.242 N 
HETATM    2  C   UNL     1     -43.105  56.455 -52.109  1.00  0.00     0.271 C 
HETATM    3  O   UNL     1     -44.055  56.155 -51.392  1.00  0.00    -0.266 OA
HETATM    4  H   UNL     1     -41.068  56.382 -52.498  1.00  0.00     0.192 HD
ENDROOT
BRANCH   2   5
HETATM    5  C   UNL     1     -43.381  56.959 -53.481  1.00  0.00     0.033 A 
HETATM    6  C   UNL     1     -42.486  56.631 -54.504  1.00  0.00     0.020 A 
HETATM    7  C   UNL     1     -42.736  57.029 -55.821  1.00  0.00     0.038 A 
HETATM    8  C   UNL     1     -43.898  57.740 -56.126  1.00  0.00     0.069 A 
HETATM    9  C   UNL     1     -44.783  58.086 -55.098  1.00  0.00     0.038 A 
HETATM   10  C   UNL     1     -44.534  57.693 -53.779  1.00  0.00     0.020 A 
BRANCH   8  11
HETATM   11  O   UNL     1     -44.281  58.146 -57.375  1.00  0.00    -0.347 OA
BRANCH  11  12
HETATM   12  C   UNL     1     -43.918  57.292 -58.459  1.00  0.00     0.214 C 
BRANCH  12  13
HETATM   13  C   UNL     1     -45.114  57.139 -59.369  1.00  0.00    -0.034 A 
HETATM   14  C   UNL     1     -45.247  56.006 -60.184  1.00  0.00     0.011 A 
HETATM   15  C   UNL     1     -46.353  55.865 -61.027  1.00  0.00     0.024 A 
HETATM   16  C   UNL     1     -47.327  56.860 -61.063  1.00  0.00     0.034 A 
HETATM   17 CL   UNL     1     -48.689  56.687 -62.101  1.00  0.00    -0.084 Cl
HETATM   18  C   UNL     1     -47.206  57.996 -60.265  1.00  0.00     0.024 A 
HETATM   19  C   UNL     1     -46.102  58.136 -59.422  1.00  0.00     0.011 A 
ENDBRANCH  12  13
ENDBRANCH  11  12
ENDBRANCH   8  11
ENDBRANCH   2   5
BRANCH   1  20
HETATM   20  N   UNL     1     -41.434  55.844 -50.554  1.00  0.00    -0.166 NA
HETATM   21  C   UNL     1     -40.964  54.645 -50.426  1.00  0.00     0.157 A 
HETATM   22  C   UNL     1     -40.593  53.579 -51.371  1.00  0.00     0.027 A 
HETATM   23  C   UNL     1     -40.692  54.066 -49.018  1.00  0.00     0.277 A 
HETATM   24  C   UNL     1     -40.542  53.504 -52.752  1.00  0.00     0.016 A 
HETATM   25  C   UNL     1     -40.202  52.488 -50.586  1.00  0.00     0.048 A 
HETATM   26  C   UNL     1     -40.128  52.296 -53.328  1.00  0.00     0.001 A 
HETATM   27  C   UNL     1     -39.759  51.199 -52.528  1.00  0.00     0.002 A 
HETATM   28  C   UNL     1     -39.788  51.291 -51.136  1.00  0.00     0.030 A 
HETATM   29  N   UNL     1     -40.265  52.776 -49.230  1.00  0.00    -0.321 N 
HETATM   30  H   UNL     1     -40.011  52.160 -48.473  1.00  0.00     0.169 HD
HETATM   31  O   UNL     1     -40.832  54.630 -47.957  1.00  0.00    -0.266 OA
ENDBRANCH   1  20
TORSDOF 5
ENDMDL
MODEL 8
REMARK VINA RESULT:      -8.4      2.298      3.208
REMARK  5 active torsions:
REMARK  status: ('A' for Active; 'I' for Inactive)
REMARK    1  A    between atoms: N_7  and  N_8 
REMARK       I    between atoms: N_8  and  C_9 
REMARK    2  A    between atoms: C_9  and  C_10 
REMARK    3  A    between atoms: C_13  and  O_14 
REMARK    4  A    between atoms: O_14  and  C_15 
REMARK    5  A    between atoms: C_15  and  C_16 
ROOT
HETATM    1  N   UNL     1     -43.057  60.527 -50.266  1.00  0.00    -0.242 N 
HETATM    2  C   UNL     1     -42.481  59.782 -51.286  1.00  0.00     0.271 C 
HETATM    3  O   UNL     1     -42.108  60.216 -52.372  1.00  0.00    -0.266 OA
HETATM    4  H   UNL     1     -43.549  60.051 -49.526  1.00  0.00     0.192 HD
ENDROOT
BRANCH   2   5
HETATM    5  C   UNL     1     -42.339  58.327 -51.015  1.00  0.00     0.033 A 
HETATM    6  C   UNL     1     -43.446  57.498 -51.226  1.00  0.00     0.020 A 
HETATM    7  C   UNL     1     -43.342  56.116 -51.044  1.00  0.00     0.038 A 
HETATM    8  C   UNL     1     -42.121  55.550 -50.673  1.00  0.00     0.069 A 
HETATM    9  C   UNL     1     -41.020  56.382 -50.442  1.00  0.00     0.038 A 
HETATM   10  C   UNL     1     -41.120  57.765 -50.619  1.00  0.00     0.020 A 
BRANCH   8  11
HETATM   11  O   UNL     1     -41.878  54.215 -50.509  1.00  0.00    -0.347 OA
BRANCH  11  12
HETATM   12  C   UNL     1     -40.508  53.818 -50.467  1.00  0.00     0.214 C 
BRANCH  12  13
HETATM   13  C   UNL     1     -40.269  52.804 -51.561  1.00  0.00    -0.034 A 
HETATM   14  C   UNL     1     -39.762  51.533 -51.253  1.00  0.00     0.011 A 
HETATM   15  C   UNL     1     -39.539  50.596 -52.266  1.00  0.00     0.024 A 
HETATM   16  C   UNL     1     -39.816  50.927 -53.590  1.00  0.00     0.034 A 
HETATM   17 CL   UNL     1     -39.542  49.773 -54.837  1.00  0.00    -0.084 Cl
HETATM   18  C   UNL     1     -40.312  52.188 -53.913  1.00  0.00     0.024 A 
HETATM   19  C   UNL     1     -40.536  53.125 -52.902  1.00  0.00     0.011 A 
ENDBRANCH  12  13
ENDBRANCH  11  12
ENDBRANCH   8  11
ENDBRANCH   2   5
BRANCH   1  20
HETATM   20  N   UNL     1     -43.270  61.853 -50.464  1.00  0.00    -0.166 NA
HETATM   21  C   UNL     1     -43.963  62.557 -49.629  1.00  0.00     0.157 A 
HETATM   22  C   UNL     1     -44.611  62.278 -48.337  1.00  0.00     0.027 A 
HETATM   23  C   UNL     1     -44.270  64.042 -49.935  1.00  0.00     0.277 A 
HETATM   24  C   UNL     1     -44.644  61.172 -47.506  1.00  0.00     0.016 A 
HETATM   25  C   UNL     1     -45.262  63.462 -47.969  1.00  0.00     0.048 A 
HETATM   26  C   UNL     1     -45.380  61.266 -46.318  1.00  0.00     0.001 A 
HETATM   27  C   UNL     1     -46.050  62.454 -45.971  1.00  0.00     0.002 A 
HETATM   28  C   UNL     1     -45.989  63.574 -46.801  1.00  0.00     0.030 A 
HETATM   29  N   UNL     1     -45.063  64.473 -48.899  1.00  0.00    -0.321 N 
HETATM   30  H   UNL     1     -45.411  65.418 -48.841  1.00  0.00     0.169 HD
HETATM   31  O   UNL     1     -43.893  64.683 -50.890  1.00  0.00    -0.266 OA
ENDBRANCH   1  20
TORSDOF 5
ENDMDL
MODEL 9
REMARK VINA RESULT:      -8.2      2.040      2.641
REMARK  5 active torsions:
REMARK  status: ('A' for Active; 'I' for Inactive)
REMARK    1  A    between atoms: N_7  and  N_8 
REMARK       I    between atoms: N_8  and  C_9 
REMARK    2  A    between atoms: C_9  and  C_10 
REMARK    3  A    between atoms: C_13  and  O_14 
REMARK    4  A    between atoms: O_14  and  C_15 
REMARK    5  A    between atoms: C_15  and  C_16 
ROOT
HETATM    1  N   UNL     1     -44.924  60.625 -50.834  1.00  0.00    -0.242 N 
HETATM    2  C   UNL     1     -44.836  59.874 -51.997  1.00  0.00     0.271 C 
HETATM    3  O   UNL     1     -45.509  60.034 -53.011  1.00  0.00    -0.266 OA
HETATM    4  H   UNL     1     -44.514  60.268 -49.985  1.00  0.00     0.192 HD
ENDROOT
BRANCH   2   5
HETATM    5  C   UNL     1     -43.840  58.770 -51.973  1.00  0.00     0.033 A 
HETATM    6  C   UNL     1     -44.231  57.509 -52.435  1.00  0.00     0.020 A 
HETATM    7  C   UNL     1     -43.313  56.456 -52.490  1.00  0.00     0.038 A 
HETATM    8  C   UNL     1     -41.988  56.666 -52.104  1.00  0.00     0.069 A 
HETATM    9  C   UNL     1     -41.602  57.922 -51.623  1.00  0.00     0.038 A 
HETATM   10  C   UNL     1     -42.518  58.976 -51.563  1.00  0.00     0.020 A 
BRANCH   8  11
HETATM   11  O   UNL     1     -40.986  55.736 -52.154  1.00  0.00    -0.347 OA
BRANCH  11  12
HETATM   12  C   UNL     1     -41.160  54.570 -51.350  1.00  0.00     0.214 C 
BRANCH  12  13
HETATM   13  C   UNL     1     -40.708  53.368 -52.145  1.00  0.00    -0.034 A 
HETATM   14  C   UNL     1     -39.898  52.388 -51.552  1.00  0.00     0.011 A 
HETATM   15  C   UNL     1     -39.478  51.277 -52.289  1.00  0.00     0.024 A 
HETATM   16  C   UNL     1     -39.861  51.144 -53.621  1.00  0.00     0.034 A 
HETATM   17 CL   UNL     1     -39.344  49.776 -54.528  1.00  0.00    -0.084 Cl
HETATM   18  C   UNL     1     -40.658  52.113 -54.226  1.00  0.00     0.024 A 
HETATM   19  C   UNL     1     -41.079  53.223 -53.491  1.00  0.00     0.011 A 
ENDBRANCH  12  13
ENDBRANCH  11  12
ENDBRANCH   8  11
ENDBRANCH   2   5
BRANCH   1  20
HETATM   20  N   UNL     1     -45.850  61.615 -50.762  1.00  0.00    -0.166 NA
HETATM   21  C   UNL     1     -46.217  62.115 -49.626  1.00  0.00     0.157 A 
HETATM   22  C   UNL     1     -45.805  61.908 -48.229  1.00  0.00     0.027 A 
HETATM   23  C   UNL     1     -47.346  63.171 -49.574  1.00  0.00     0.277 A 
HETATM   24  C   UNL     1     -44.811  61.154 -47.630  1.00  0.00     0.016 A 
HETATM   25  C   UNL     1     -46.643  62.720 -47.456  1.00  0.00     0.048 A 
HETATM   26  C   UNL     1     -44.703  61.201 -46.234  1.00  0.00     0.001 A 
HETATM   27  C   UNL     1     -45.567  62.003 -45.466  1.00  0.00     0.002 A 
HETATM   28  C   UNL     1     -46.549  62.781 -46.079  1.00  0.00     0.030 A 
HETATM   29  N   UNL     1     -47.531  63.443 -48.239  1.00  0.00    -0.321 N 
HETATM   30  H   UNL     1     -48.214  64.109 -47.913  1.00  0.00     0.169 HD
HETATM   31  O   UNL     1     -47.941  63.651 -50.513  1.00  0.00    -0.266 OA
ENDBRANCH   1  20
TORSDOF 5
ENDMDL
MODEL 10
REMARK VINA RESULT:      -7.8      5.776      9.353
REMARK  5 active torsions:
REMARK  status: ('A' for Active; 'I' for Inactive)
REMARK    1  A    between atoms: N_7  and  N_8 
REMARK       I    between atoms: N_8  and  C_9 
REMARK    2  A    between atoms: C_9  and  C_10 
REMARK    3  A    between atoms: C_13  and  O_14 
REMARK    4  A    between atoms: O_14  and  C_15 
REMARK    5  A    between atoms: C_15  and  C_16 
ROOT
HETATM    1  N   UNL     1     -42.334  56.357 -51.723  1.00  0.00    -0.242 N 
HETATM    2  C   UNL     1     -41.629  57.459 -52.186  1.00  0.00     0.271 C 
HETATM    3  O   UNL     1     -40.629  57.946 -51.667  1.00  0.00    -0.266 OA
HETATM    4  H   UNL     1     -43.266  56.188 -52.068  1.00  0.00     0.192 HD
ENDROOT
BRANCH   2   5
HETATM    5  C   UNL     1     -42.175  58.099 -53.413  1.00  0.00     0.033 A 
HETATM    6  C   UNL     1     -43.504  57.840 -53.765  1.00  0.00     0.020 A 
HETATM    7  C   UNL     1     -44.079  58.467 -54.875  1.00  0.00     0.038 A 
HETATM    8  C   UNL     1     -43.334  59.377 -55.626  1.00  0.00     0.069 A 
HETATM    9  C   UNL     1     -41.999  59.620 -55.285  1.00  0.00     0.038 A 
HETATM   10  C   UNL     1     -41.418  58.992 -54.179  1.00  0.00     0.020 A 
BRANCH   8  11
HETATM   11  O   UNL     1     -43.792  60.088 -56.700  1.00  0.00    -0.347 OA
BRANCH  11  12
HETATM   12  C   UNL     1     -43.676  59.460 -57.976  1.00  0.00     0.214 C 
BRANCH  12  13
HETATM   13  C   UNL     1     -42.773  60.302 -58.845  1.00  0.00    -0.034 A 
HETATM   14  C   UNL     1     -42.090  61.402 -58.304  1.00  0.00     0.011 A 
HETATM   15  C   UNL     1     -41.256  62.182 -59.109  1.00  0.00     0.024 A 
HETATM   16  C   UNL     1     -41.106  61.871 -60.458  1.00  0.00     0.034 A 
HETATM   17 CL   UNL     1     -40.079  62.832 -61.450  1.00  0.00    -0.084 Cl
HETATM   18  C   UNL     1     -41.783  60.787 -61.012  1.00  0.00     0.024 A 
HETATM   19  C   UNL     1     -42.617  60.006 -60.208  1.00  0.00     0.011 A 
ENDBRANCH  12  13
ENDBRANCH  11  12
ENDBRANCH   8  11
ENDBRANCH   2   5
BRANCH   1  20
HETATM   20  N   UNL     1     -41.927  55.755 -50.576  1.00  0.00    -0.166 NA
HETATM   21  C   UNL     1     -41.300  54.623 -50.594  1.00  0.00     0.157 A 
HETATM   22  C   UNL     1     -40.801  53.739 -51.660  1.00  0.00     0.027 A 
HETATM   23  C   UNL     1     -40.939  53.918 -49.266  1.00  0.00     0.277 A 
HETATM   24  C   UNL     1     -40.754  53.841 -53.039  1.00  0.00     0.016 A 
HETATM   25  C   UNL     1     -40.260  52.623 -51.012  1.00  0.00     0.048 A 
HETATM   26  C   UNL     1     -40.190  52.779 -53.756  1.00  0.00     0.001 A 
HETATM   27  C   UNL     1     -39.671  51.651 -53.095  1.00  0.00     0.002 A 
HETATM   28  C   UNL     1     -39.696  51.568 -51.702  1.00  0.00     0.030 A 
HETATM   29  N   UNL     1     -40.346  52.732 -49.631  1.00  0.00    -0.321 N 
HETATM   30  H   UNL     1     -40.005  52.067 -48.954  1.00  0.00     0.169 HD
HETATM   31  O   UNL     1     -41.141  54.325 -48.144  1.00  0.00    -0.266 OA
ENDBRANCH   1  20
TORSDOF 5
ENDMDL
