MODEL 1
REMARK VINA RESULT:      -8.3      0.000      0.000
REMARK  5 active torsions:
REMARK  status: ('A' for Active; 'I' for Inactive)
REMARK    1  A    between atoms: O_2  and  C_3 
REMARK    2  A    between atoms: C_10  and  C_11 
REMARK    3  A    between atoms: C_11  and  C_12 
REMARK       I    between atoms: C_12  and  N_13 
REMARK    4  A    between atoms: N_13  and  C_14 
REMARK    5  A    between atoms: C_21  and  O_22 
ROOT
HETATM    1  C   UNL     1     -42.371  55.264 -55.801  1.00  0.00     0.226 C 
HETATM    2  N   UNL     1     -42.288  56.272 -56.759  1.00  0.00    -0.326 N 
HETATM    3  O   UNL     1     -43.407  54.751 -55.392  1.00  0.00    -0.273 OA
HETATM    4  H   UNL     1     -41.390  56.336 -57.220  1.00  0.00     0.169 HD
ENDROOT
BRANCH   1   5
HETATM    5  C   UNL     1     -40.987  54.855 -55.298  1.00  0.00     0.144 C 
BRANCH   5   6
HETATM    6  C   UNL     1     -40.899  54.607 -53.824  1.00  0.00    -0.021 A 
HETATM    7  C   UNL     1     -40.483  53.406 -53.157  1.00  0.00     0.001 A 
HETATM    8  C   UNL     1     -40.080  52.124 -53.589  1.00  0.00     0.051 A 
HETATM    9  C   UNL     1     -40.520  53.655 -51.785  1.00  0.00     0.043 A 
HETATM   10  C   UNL     1     -39.748  51.136 -52.651  1.00  0.00     0.069 A 
HETATM   11  C   UNL     1     -39.787  51.426 -51.289  1.00  0.00     0.039 A 
HETATM   12  C   UNL     1     -40.174  52.692 -50.831  1.00  0.00     0.033 A 
HETATM   13  N   UNL     1     -40.942  54.952 -51.619  1.00  0.00    -0.365 N 
HETATM   14  H   UNL     1     -41.067  55.403 -50.723  1.00  0.00     0.165 HD
HETATM   15  C   UNL     1     -41.163  55.538 -52.835  1.00  0.00     0.097 A 
BRANCH  10  16
HETATM   16  O   UNL     1     -39.389  49.933 -53.201  1.00  0.00    -0.356 OA
HETATM   17  C   UNL     1     -39.694  49.748 -54.578  1.00  0.00     0.210 C 
ENDBRANCH  10  16
ENDBRANCH   5   6
ENDBRANCH   1   5
BRANCH   2  18
HETATM   18  C   UNL     1     -43.361  56.891 -57.454  1.00  0.00     0.047 A 
HETATM   19  C   UNL     1     -44.041  56.380 -58.601  1.00  0.00     0.022 A 
HETATM   20  C   UNL     1     -45.039  57.173 -59.230  1.00  0.00     0.102 A 
HETATM   21  C   UNL     1     -43.857  55.087 -59.145  1.00  0.00     0.017 A 
HETATM   22  N   UNL     1     -45.698  56.757 -60.338  1.00  0.00    -0.257 NA
HETATM   23  C   UNL     1     -45.368  58.420 -58.672  1.00  0.00     0.097 A 
HETATM   24  C   UNL     1     -45.433  55.541 -60.846  1.00  0.00     0.117 A 
HETATM   25  C   UNL     1     -44.540  54.666 -60.281  1.00  0.00     0.020 A 
HETATM   26  C   UNL     1     -44.766  58.868 -57.496  1.00  0.00     0.041 A 
HETATM   27  C   UNL     1     -43.773  58.108 -56.895  1.00  0.00     0.033 A 
BRANCH  23  28
HETATM   28  O   UNL     1     -46.369  59.134 -59.296  1.00  0.00    -0.354 OA
HETATM   29  C   UNL     1     -47.503  59.450 -58.497  1.00  0.00     0.210 C 
ENDBRANCH  23  28
ENDBRANCH   2  18
TORSDOF 5
ENDMDL
MODEL 2
REMARK VINA RESULT:      -8.3      2.297      8.391
REMARK  5 active torsions:
REMARK  status: ('A' for Active; 'I' for Inactive)
REMARK    1  A    between atoms: O_2  and  C_3 
REMARK    2  A    between atoms: C_10  and  C_11 
REMARK    3  A    between atoms: C_11  and  C_12 
REMARK       I    between atoms: C_12  and  N_13 
REMARK    4  A    between atoms: N_13  and  C_14 
REMARK    5  A    between atoms: C_21  and  O_22 
ROOT
HETATM    1  C   UNL     1     -43.253  56.092 -54.371  1.00  0.00     0.226 C 
HETATM    2  N   UNL     1     -41.913  55.872 -54.059  1.00  0.00    -0.326 N 
HETATM    3  O   UNL     1     -44.133  55.238 -54.384  1.00  0.00    -0.273 OA
HETATM    4  H   UNL     1     -41.411  56.700 -53.765  1.00  0.00     0.169 HD
ENDROOT
BRANCH   1   5
HETATM    5  C   UNL     1     -43.515  57.559 -54.707  1.00  0.00     0.144 C 
BRANCH   5   6
HETATM    6  C   UNL     1     -42.867  58.044 -55.966  1.00  0.00    -0.021 A 
HETATM    7  C   UNL     1     -42.883  57.423 -57.260  1.00  0.00     0.001 A 
HETATM    8  C   UNL     1     -43.424  56.226 -57.775  1.00  0.00     0.051 A 
HETATM    9  C   UNL     1     -42.183  58.255 -58.133  1.00  0.00     0.043 A 
HETATM   10  C   UNL     1     -43.238  55.890 -59.124  1.00  0.00     0.069 A 
HETATM   11  C   UNL     1     -42.542  56.753 -59.967  1.00  0.00     0.039 A 
HETATM   12  C   UNL     1     -42.001  57.952 -59.487  1.00  0.00     0.033 A 
HETATM   13  N   UNL     1     -41.756  59.339 -57.405  1.00  0.00    -0.365 N 
HETATM   14  H   UNL     1     -41.215  60.106 -57.783  1.00  0.00     0.165 HD
HETATM   15  C   UNL     1     -42.168  59.230 -56.106  1.00  0.00     0.097 A 
BRANCH  10  16
HETATM   16  O   UNL     1     -43.800  54.696 -59.492  1.00  0.00    -0.356 OA
HETATM   17  C   UNL     1     -44.931  54.765 -60.353  1.00  0.00     0.210 C 
ENDBRANCH  10  16
ENDBRANCH   5   6
ENDBRANCH   1   5
BRANCH   2  18
HETATM   18  C   UNL     1     -41.305  54.643 -53.688  1.00  0.00     0.047 A 
HETATM   19  C   UNL     1     -41.061  54.181 -52.359  1.00  0.00     0.022 A 
HETATM   20  C   UNL     1     -40.358  52.960 -52.164  1.00  0.00     0.102 A 
HETATM   21  C   UNL     1     -41.528  54.810 -51.181  1.00  0.00     0.017 A 
HETATM   22  N   UNL     1     -40.068  52.485 -50.929  1.00  0.00    -0.257 NA
HETATM   23  C   UNL     1     -39.971  52.212 -53.289  1.00  0.00     0.097 A 
HETATM   24  C   UNL     1     -40.486  53.162 -49.846  1.00  0.00     0.117 A 
HETATM   25  C   UNL     1     -41.229  54.314 -49.917  1.00  0.00     0.020 A 
HETATM   26  C   UNL     1     -40.299  52.624 -54.580  1.00  0.00     0.041 A 
HETATM   27  C   UNL     1     -40.961  53.828 -54.774  1.00  0.00     0.033 A 
BRANCH  23  28
HETATM   28  O   UNL     1     -39.327  51.017 -53.047  1.00  0.00    -0.354 OA
HETATM   29  C   UNL     1     -39.587  49.968 -53.970  1.00  0.00     0.210 C 
ENDBRANCH  23  28
ENDBRANCH   2  18
TORSDOF 5
ENDMDL
MODEL 3
REMARK VINA RESULT:      -8.3      2.764      8.543
REMARK  5 active torsions:
REMARK  status: ('A' for Active; 'I' for Inactive)
REMARK    1  A    between atoms: O_2  and  C_3 
REMARK    2  A    between atoms: C_10  and  C_11 
REMARK    3  A    between atoms: C_11  and  C_12 
REMARK       I    between atoms: C_12  and  N_13 
REMARK    4  A    between atoms: N_13  and  C_14 
REMARK    5  A    between atoms: C_21  and  O_22 
ROOT
HETATM    1  C   UNL     1     -42.518  54.787 -55.222  1.00  0.00     0.226 C 
HETATM    2  N   UNL     1     -41.194  54.504 -54.895  1.00  0.00    -0.326 N 
HETATM    3  O   UNL     1     -43.506  54.313 -54.673  1.00  0.00    -0.273 OA
HETATM    4  H   UNL     1     -40.531  55.209 -55.192  1.00  0.00     0.169 HD
ENDROOT
BRANCH   1   5
HETATM    5  C   UNL     1     -42.609  55.782 -56.378  1.00  0.00     0.144 C 
BRANCH   5   6
HETATM    6  C   UNL     1     -43.193  57.113 -56.020  1.00  0.00    -0.021 A 
HETATM    7  C   UNL     1     -42.648  58.106 -55.139  1.00  0.00     0.001 A 
HETATM    8  C   UNL     1     -41.496  58.181 -54.326  1.00  0.00     0.051 A 
HETATM    9  C   UNL     1     -43.516  59.197 -55.147  1.00  0.00     0.043 A 
HETATM   10  C   UNL     1     -41.257  59.319 -53.543  1.00  0.00     0.069 A 
HETATM   11  C   UNL     1     -42.143  60.394 -53.588  1.00  0.00     0.039 A 
HETATM   12  C   UNL     1     -43.290  60.352 -54.391  1.00  0.00     0.033 A 
HETATM   13  N   UNL     1     -44.550  58.886 -55.998  1.00  0.00    -0.365 N 
HETATM   14  H   UNL     1     -45.332  59.495 -56.194  1.00  0.00     0.165 HD
HETATM   15  C   UNL     1     -44.363  57.643 -56.537  1.00  0.00     0.097 A 
BRANCH  10  16
HETATM   16  O   UNL     1     -40.114  59.258 -52.790  1.00  0.00    -0.356 OA
HETATM   17  C   UNL     1     -40.283  59.010 -51.399  1.00  0.00     0.210 C 
ENDBRANCH  10  16
ENDBRANCH   5   6
ENDBRANCH   1   5
BRANCH   2  18
HETATM   18  C   UNL     1     -40.724  53.638 -53.872  1.00  0.00     0.047 A 
HETATM   19  C   UNL     1     -40.642  53.932 -52.477  1.00  0.00     0.022 A 
HETATM   20  C   UNL     1     -40.062  52.978 -51.597  1.00  0.00     0.102 A 
HETATM   21  C   UNL     1     -41.164  55.094 -51.860  1.00  0.00     0.017 A 
HETATM   22  N   UNL     1     -39.927  53.211 -50.269  1.00  0.00    -0.257 NA
HETATM   23  C   UNL     1     -39.634  51.746 -52.118  1.00  0.00     0.097 A 
HETATM   24  C   UNL     1     -40.387  54.364 -49.751  1.00  0.00     0.117 A 
HETATM   25  C   UNL     1     -41.025  55.324 -50.496  1.00  0.00     0.020 A 
HETATM   26  C   UNL     1     -39.807  51.429 -53.465  1.00  0.00     0.041 A 
HETATM   27  C   UNL     1     -40.349  52.368 -54.331  1.00  0.00     0.033 A 
BRANCH  23  28
HETATM   28  O   UNL     1     -39.115  50.839 -51.217  1.00  0.00    -0.354 OA
HETATM   29  C   UNL     1     -39.851  49.634 -51.048  1.00  0.00     0.210 C 
ENDBRANCH  23  28
ENDBRANCH   2  18
TORSDOF 5
ENDMDL
MODEL 4
REMARK VINA RESULT:      -8.1      1.867      2.986
REMARK  5 active torsions:
REMARK  status: ('A' for Active; 'I' for Inactive)
REMARK    1  A    between atoms: O_2  and  C_3 
REMARK    2  A    between atoms: C_10  and  C_11 
REMARK    3  A    between atoms: C_11  and  C_12 
REMARK       I    between atoms: C_12  and  N_13 
REMARK    4  A    between atoms: N_13  and  C_14 
REMARK    5  A    between atoms: C_21  and  O_22 
ROOT
HETATM    1  C   UNL     1     -41.734  54.467 -55.446  1.00  0.00     0.226 C 
HETATM    2  N   UNL     1     -41.711  55.754 -55.979  1.00  0.00    -0.326 N 
HETATM    3  O   UNL     1     -42.742  53.812 -55.205  1.00  0.00    -0.273 OA
HETATM    4  H   UNL     1     -40.838  56.007 -56.423  1.00  0.00     0.169 HD
ENDROOT
BRANCH   1   5
HETATM    5  C   UNL     1     -40.322  53.944 -55.184  1.00  0.00     0.144 C 
BRANCH   5   6
HETATM    6  C   UNL     1     -40.166  53.152 -53.925  1.00  0.00    -0.021 A 
HETATM    7  C   UNL     1     -40.442  53.571 -52.580  1.00  0.00     0.001 A 
HETATM    8  C   UNL     1     -40.880  54.777 -51.991  1.00  0.00     0.051 A 
HETATM    9  C   UNL     1     -40.190  52.486 -51.741  1.00  0.00     0.043 A 
HETATM   10  C   UNL     1     -41.033  54.868 -50.600  1.00  0.00     0.069 A 
HETATM   11  C   UNL     1     -40.782  53.758 -49.797  1.00  0.00     0.039 A 
HETATM   12  C   UNL     1     -40.356  52.546 -50.354  1.00  0.00     0.033 A 
HETATM   13  N   UNL     1     -39.777  51.445 -52.539  1.00  0.00    -0.365 N 
HETATM   14  H   UNL     1     -39.520  50.529 -52.196  1.00  0.00     0.165 HD
HETATM   15  C   UNL     1     -39.769  51.828 -53.851  1.00  0.00     0.097 A 
BRANCH  10  16
HETATM   16  O   UNL     1     -41.448  56.096 -50.157  1.00  0.00    -0.356 OA
HETATM   17  C   UNL     1     -41.450  57.150 -51.113  1.00  0.00     0.210 C 
ENDBRANCH  10  16
ENDBRANCH   5   6
ENDBRANCH   1   5
BRANCH   2  18
HETATM   18  C   UNL     1     -42.824  56.552 -56.356  1.00  0.00     0.047 A 
HETATM   19  C   UNL     1     -43.397  56.650 -57.660  1.00  0.00     0.022 A 
HETATM   20  C   UNL     1     -44.460  57.568 -57.886  1.00  0.00     0.102 A 
HETATM   21  C   UNL     1     -43.042  55.845 -58.768  1.00  0.00     0.017 A 
HETATM   22  N   UNL     1     -45.024  57.731 -59.107  1.00  0.00    -0.257 NA
HETATM   23  C   UNL     1     -44.954  58.315 -56.804  1.00  0.00     0.097 A 
HETATM   24  C   UNL     1     -44.599  56.978 -60.137  1.00  0.00     0.117 A 
HETATM   25  C   UNL     1     -43.629  56.015 -60.017  1.00  0.00     0.020 A 
HETATM   26  C   UNL     1     -44.452  58.141 -55.515  1.00  0.00     0.041 A 
HETATM   27  C   UNL     1     -43.398  57.266 -55.296  1.00  0.00     0.033 A 
BRANCH  23  28
HETATM   28  O   UNL     1     -46.010  59.162 -57.066  1.00  0.00    -0.354 OA
HETATM   29  C   UNL     1     -45.859  60.506 -56.627  1.00  0.00     0.210 C 
ENDBRANCH  23  28
ENDBRANCH   2  18
TORSDOF 5
ENDMDL
MODEL 5
REMARK VINA RESULT:      -8.1      1.044      2.370
REMARK  5 active torsions:
REMARK  status: ('A' for Active; 'I' for Inactive)
REMARK    1  A    between atoms: O_2  and  C_3 
REMARK    2  A    between atoms: C_10  and  C_11 
REMARK    3  A    between atoms: C_11  and  C_12 
REMARK       I    between atoms: C_12  and  N_13 
REMARK    4  A    between atoms: N_13  and  C_14 
REMARK    5  A    between atoms: C_21  and  O_22 
ROOT
HETATM    1  C   UNL     1     -42.220  55.293 -55.643  1.00  0.00     0.226 C 
HETATM    2  N   UNL     1     -42.118  56.010 -56.833  1.00  0.00    -0.326 N 
HETATM    3  O   UNL     1     -43.265  54.944 -55.106  1.00  0.00    -0.273 OA
HETATM    4  H   UNL     1     -41.226  55.919 -57.301  1.00  0.00     0.169 HD
ENDROOT
BRANCH   1   5
HETATM    5  C   UNL     1     -40.842  54.981 -55.059  1.00  0.00     0.144 C 
BRANCH   5   6
HETATM    6  C   UNL     1     -40.835  54.651 -53.599  1.00  0.00    -0.021 A 
HETATM    7  C   UNL     1     -40.460  53.412 -52.978  1.00  0.00     0.001 A 
HETATM    8  C   UNL     1     -40.038  52.154 -53.459  1.00  0.00     0.051 A 
HETATM    9  C   UNL     1     -40.571  53.584 -51.599  1.00  0.00     0.043 A 
HETATM   10  C   UNL     1     -39.761  51.113 -52.562  1.00  0.00     0.069 A 
HETATM   11  C   UNL     1     -39.873  51.327 -51.190  1.00  0.00     0.039 A 
HETATM   12  C   UNL     1     -40.281  52.567 -50.683  1.00  0.00     0.033 A 
HETATM   13  N   UNL     1     -40.997  54.873 -51.384  1.00  0.00    -0.365 N 
HETATM   14  H   UNL     1     -41.169  55.273 -50.471  1.00  0.00     0.165 HD
HETATM   15  C   UNL     1     -41.150  55.527 -52.575  1.00  0.00     0.097 A 
BRANCH  10  16
HETATM   16  O   UNL     1     -39.376  49.940 -53.157  1.00  0.00    -0.356 OA
HETATM   17  C   UNL     1     -39.698  49.793 -54.535  1.00  0.00     0.210 C 
ENDBRANCH  10  16
ENDBRANCH   5   6
ENDBRANCH   1   5
BRANCH   2  18
HETATM   18  C   UNL     1     -43.181  56.464 -57.659  1.00  0.00     0.047 A 
HETATM   19  C   UNL     1     -44.080  57.537 -57.378  1.00  0.00     0.022 A 
HETATM   20  C   UNL     1     -45.149  57.804 -58.277  1.00  0.00     0.102 A 
HETATM   21  C   UNL     1     -43.963  58.431 -56.288  1.00  0.00     0.017 A 
HETATM   22  N   UNL     1     -46.053  58.786 -58.050  1.00  0.00    -0.257 NA
HETATM   23  C   UNL     1     -45.258  57.037 -59.449  1.00  0.00     0.097 A 
HETATM   24  C   UNL     1     -45.924  59.564 -56.961  1.00  0.00     0.117 A 
HETATM   25  C   UNL     1     -44.893  59.440 -56.063  1.00  0.00     0.020 A 
HETATM   26  C   UNL     1     -44.318  56.056 -59.763  1.00  0.00     0.041 A 
HETATM   27  C   UNL     1     -43.289  55.775 -58.875  1.00  0.00     0.033 A 
BRANCH  23  28
HETATM   28  O   UNL     1     -46.287  57.361 -60.308  1.00  0.00    -0.354 OA
HETATM   29  C   UNL     1     -47.028  56.268 -60.836  1.00  0.00     0.210 C 
ENDBRANCH  23  28
ENDBRANCH   2  18
TORSDOF 5
ENDMDL
MODEL 6
REMARK VINA RESULT:      -8.1      2.424      9.307
REMARK  5 active torsions:
REMARK  status: ('A' for Active; 'I' for Inactive)
REMARK    1  A    between atoms: O_2  and  C_3 
REMARK    2  A    between atoms: C_10  and  C_11 
REMARK    3  A    between atoms: C_11  and  C_12 
REMARK       I    between atoms: C_12  and  N_13 
REMARK    4  A    between atoms: N_13  and  C_14 
REMARK    5  A    between atoms: C_21  and  O_22 
ROOT
HETATM    1  C   UNL     1     -42.625  55.680 -54.609  1.00  0.00     0.226 C 
HETATM    2  N   UNL     1     -41.312  55.359 -54.271  1.00  0.00    -0.326 N 
HETATM    3  O   UNL     1     -43.615  55.007 -54.344  1.00  0.00    -0.273 OA
HETATM    4  H   UNL     1     -40.680  56.150 -54.254  1.00  0.00     0.169 HD
ENDROOT
BRANCH   1   5
HETATM    5  C   UNL     1     -42.699  57.002 -55.371  1.00  0.00     0.144 C 
BRANCH   5   6
HETATM    6  C   UNL     1     -42.676  56.874 -56.862  1.00  0.00    -0.021 A 
HETATM    7  C   UNL     1     -42.422  57.902 -57.831  1.00  0.00     0.001 A 
HETATM    8  C   UNL     1     -42.165  59.288 -57.757  1.00  0.00     0.051 A 
HETATM    9  C   UNL     1     -42.461  57.309 -59.092  1.00  0.00     0.043 A 
HETATM   10  C   UNL     1     -41.976  60.034 -58.929  1.00  0.00     0.069 A 
HETATM   11  C   UNL     1     -42.011  59.403 -60.170  1.00  0.00     0.039 A 
HETATM   12  C   UNL     1     -42.255  58.027 -60.274  1.00  0.00     0.033 A 
HETATM   13  N   UNL     1     -42.728  55.974 -58.904  1.00  0.00    -0.365 N 
HETATM   14  H   UNL     1     -42.818  55.298 -59.651  1.00  0.00     0.165 HD
HETATM   15  C   UNL     1     -42.849  55.697 -57.571  1.00  0.00     0.097 A 
BRANCH  10  16
HETATM   16  O   UNL     1     -41.751  61.369 -58.719  1.00  0.00    -0.356 OA
HETATM   17  C   UNL     1     -40.905  62.026 -59.656  1.00  0.00     0.210 C 
ENDBRANCH  10  16
ENDBRANCH   5   6
ENDBRANCH   1   5
BRANCH   2  18
HETATM   18  C   UNL     1     -40.859  54.219 -53.556  1.00  0.00     0.047 A 
HETATM   19  C   UNL     1     -40.821  54.064 -52.137  1.00  0.00     0.022 A 
HETATM   20  C   UNL     1     -40.253  52.885 -51.580  1.00  0.00     0.102 A 
HETATM   21  C   UNL     1     -41.377  54.972 -51.205  1.00  0.00     0.017 A 
HETATM   22  N   UNL     1     -40.159  52.693 -50.242  1.00  0.00    -0.257 NA
HETATM   23  C   UNL     1     -39.793  51.879 -52.445  1.00  0.00     0.097 A 
HETATM   24  C   UNL     1     -40.650  53.624 -49.405  1.00  0.00     0.117 A 
HETATM   25  C   UNL     1     -41.280  54.766 -49.833  1.00  0.00     0.020 A 
HETATM   26  C   UNL     1     -39.923  51.998 -53.829  1.00  0.00     0.041 A 
HETATM   27  C   UNL     1     -40.453  53.158 -54.375  1.00  0.00     0.033 A 
BRANCH  23  28
HETATM   28  O   UNL     1     -39.287  50.738 -51.856  1.00  0.00    -0.354 OA
HETATM   29  C   UNL     1     -39.665  49.505 -52.454  1.00  0.00     0.210 C 
ENDBRANCH  23  28
ENDBRANCH   2  18
TORSDOF 5
ENDMDL
MODEL 7
REMARK VINA RESULT:      -8.1      2.626      8.360
REMARK  5 active torsions:
REMARK  status: ('A' for Active; 'I' for Inactive)
REMARK    1  A    between atoms: O_2  and  C_3 
REMARK    2  A    between atoms: C_10  and  C_11 
REMARK    3  A    between atoms: C_11  and  C_12 
REMARK       I    between atoms: C_12  and  N_13 
REMARK    4  A    between atoms: N_13  and  C_14 
REMARK    5  A    between atoms: C_21  and  O_22 
ROOT
HETATM    1  C   UNL     1     -42.634  54.974 -55.196  1.00  0.00     0.226 C 
HETATM    2  N   UNL     1     -41.371  54.926 -54.611  1.00  0.00    -0.326 N 
HETATM    3  O   UNL     1     -43.669  54.546 -54.698  1.00  0.00    -0.273 OA
HETATM    4  H   UNL     1     -40.714  55.602 -54.978  1.00  0.00     0.169 HD
ENDROOT
BRANCH   1   5
HETATM    5  C   UNL     1     -42.588  55.638 -56.572  1.00  0.00     0.144 C 
BRANCH   5   6
HETATM    6  C   UNL     1     -43.214  56.996 -56.638  1.00  0.00    -0.021 A 
HETATM    7  C   UNL     1     -42.893  58.153 -55.851  1.00  0.00     0.001 A 
HETATM    8  C   UNL     1     -41.990  58.413 -54.799  1.00  0.00     0.051 A 
HETATM    9  C   UNL     1     -43.705  59.198 -56.293  1.00  0.00     0.043 A 
HETATM   10  C   UNL     1     -41.936  59.686 -54.213  1.00  0.00     0.069 A 
HETATM   11  C   UNL     1     -42.756  60.707 -54.688  1.00  0.00     0.039 A 
HETATM   12  C   UNL     1     -43.656  60.481 -55.738  1.00  0.00     0.033 A 
HETATM   13  N   UNL     1     -44.489  58.702 -57.306  1.00  0.00    -0.365 N 
HETATM   14  H   UNL     1     -45.180  59.241 -57.811  1.00  0.00     0.165 HD
HETATM   15  C   UNL     1     -44.198  57.385 -57.531  1.00  0.00     0.097 A 
BRANCH  10  16
HETATM   16  O   UNL     1     -41.030  59.801 -53.192  1.00  0.00    -0.356 OA
HETATM   17  C   UNL     1     -40.155  58.696 -52.992  1.00  0.00     0.210 C 
ENDBRANCH  10  16
ENDBRANCH   5   6
ENDBRANCH   1   5
BRANCH   2  18
HETATM   18  C   UNL     1     -41.030  54.393 -53.339  1.00  0.00     0.047 A 
HETATM   19  C   UNL     1     -40.498  53.095 -53.074  1.00  0.00     0.022 A 
HETATM   20  C   UNL     1     -40.295  52.687 -51.727  1.00  0.00     0.102 A 
HETATM   21  C   UNL     1     -40.075  52.173 -54.060  1.00  0.00     0.017 A 
HETATM   22  N   UNL     1     -39.823  51.458 -51.409  1.00  0.00    -0.257 NA
HETATM   23  C   UNL     1     -40.573  53.596 -50.692  1.00  0.00     0.097 A 
HETATM   24  C   UNL     1     -39.497  50.601 -52.393  1.00  0.00     0.117 A 
HETATM   25  C   UNL     1     -39.588  50.914 -53.726  1.00  0.00     0.020 A 
HETATM   26  C   UNL     1     -41.002  54.895 -50.966  1.00  0.00     0.041 A 
HETATM   27  C   UNL     1     -41.225  55.287 -52.278  1.00  0.00     0.033 A 
BRANCH  23  28
HETATM   28  O   UNL     1     -40.323  53.167 -49.406  1.00  0.00    -0.354 OA
HETATM   29  C   UNL     1     -40.457  54.146 -48.383  1.00  0.00     0.210 C 
ENDBRANCH  23  28
ENDBRANCH   2  18
TORSDOF 5
ENDMDL
MODEL 8
REMARK VINA RESULT:      -8.0      2.694      8.383
REMARK  5 active torsions:
REMARK  status: ('A' for Active; 'I' for Inactive)
REMARK    1  A    between atoms: O_2  and  C_3 
REMARK    2  A    between atoms: C_10  and  C_11 
REMARK    3  A    between atoms: C_11  and  C_12 
REMARK       I    between atoms: C_12  and  N_13 
REMARK    4  A    between atoms: N_13  and  C_14 
REMARK    5  A    between atoms: C_21  and  O_22 
ROOT
HETATM    1  C   UNL     1     -42.225  57.288 -54.038  1.00  0.00     0.226 C 
HETATM    2  N   UNL     1     -42.737  56.190 -53.351  1.00  0.00    -0.326 N 
HETATM    3  O   UNL     1     -41.096  57.748 -53.909  1.00  0.00    -0.273 OA
HETATM    4  H   UNL     1     -43.524  55.743 -53.805  1.00  0.00     0.169 HD
ENDROOT
BRANCH   1   5
HETATM    5  C   UNL     1     -43.256  57.875 -55.002  1.00  0.00     0.144 C 
BRANCH   5   6
HETATM    6  C   UNL     1     -42.712  58.287 -56.334  1.00  0.00    -0.021 A 
HETATM    7  C   UNL     1     -42.799  57.576 -57.578  1.00  0.00     0.001 A 
HETATM    8  C   UNL     1     -43.338  56.331 -57.969  1.00  0.00     0.051 A 
HETATM    9  C   UNL     1     -42.188  58.363 -58.554  1.00  0.00     0.043 A 
HETATM   10  C   UNL     1     -43.236  55.906 -59.302  1.00  0.00     0.069 A 
HETATM   11  C   UNL     1     -42.627  56.726 -60.250  1.00  0.00     0.039 A 
HETATM   12  C   UNL     1     -42.092  57.970 -59.893  1.00  0.00     0.033 A 
HETATM   13  N   UNL     1     -41.745  59.506 -57.934  1.00  0.00    -0.365 N 
HETATM   14  H   UNL     1     -41.257  60.258 -58.402  1.00  0.00     0.165 HD
HETATM   15  C   UNL     1     -42.062  59.478 -56.604  1.00  0.00     0.097 A 
BRANCH  10  16
HETATM   16  O   UNL     1     -43.784  54.675 -59.546  1.00  0.00    -0.356 OA
HETATM   17  C   UNL     1     -45.021  54.658 -60.249  1.00  0.00     0.210 C 
ENDBRANCH  10  16
ENDBRANCH   5   6
ENDBRANCH   1   5
BRANCH   2  18
HETATM   18  C   UNL     1     -42.070  55.387 -52.388  1.00  0.00     0.047 A 
HETATM   19  C   UNL     1     -41.307  54.207 -52.644  1.00  0.00     0.022 A 
HETATM   20  C   UNL     1     -40.776  53.470 -51.550  1.00  0.00     0.102 A 
HETATM   21  C   UNL     1     -40.962  53.726 -53.929  1.00  0.00     0.017 A 
HETATM   22  N   UNL     1     -40.072  52.326 -51.726  1.00  0.00    -0.257 NA
HETATM   23  C   UNL     1     -40.971  53.954 -50.246  1.00  0.00     0.097 A 
HETATM   24  C   UNL     1     -39.830  51.885 -52.973  1.00  0.00     0.117 A 
HETATM   25  C   UNL     1     -40.235  52.553 -54.101  1.00  0.00     0.020 A 
HETATM   26  C   UNL     1     -41.634  55.159 -50.013  1.00  0.00     0.041 A 
HETATM   27  C   UNL     1     -42.176  55.867 -51.076  1.00  0.00     0.033 A 
BRANCH  23  28
HETATM   28  O   UNL     1     -40.403  53.225 -49.222  1.00  0.00    -0.354 OA
HETATM   29  C   UNL     1     -40.234  53.907 -47.987  1.00  0.00     0.210 C 
ENDBRANCH  23  28
ENDBRANCH   2  18
TORSDOF 5
ENDMDL
MODEL 9
REMARK VINA RESULT:      -8.0      2.719      4.624
REMARK  5 active torsions:
REMARK  status: ('A' for Active; 'I' for Inactive)
REMARK    1  A    between atoms: O_2  and  C_3 
REMARK    2  A    between atoms: C_10  and  C_11 
REMARK    3  A    between atoms: C_11  and  C_12 
REMARK       I    between atoms: C_12  and  N_13 
REMARK    4  A    between atoms: N_13  and  C_14 
REMARK    5  A    between atoms: C_21  and  O_22 
ROOT
HETATM    1  C   UNL     1     -40.920  53.929 -54.959  1.00  0.00     0.226 C 
HETATM    2  N   UNL     1     -42.143  54.554 -55.195  1.00  0.00    -0.326 N 
HETATM    3  O   UNL     1     -39.822  54.361 -55.291  1.00  0.00    -0.273 OA
HETATM    4  H   UNL     1     -42.890  54.257 -54.580  1.00  0.00     0.169 HD
ENDROOT
BRANCH   1   5
HETATM    5  C   UNL     1     -41.103  52.604 -54.220  1.00  0.00     0.144 C 
BRANCH   5   6
HETATM    6  C   UNL     1     -40.569  52.582 -52.822  1.00  0.00    -0.021 A 
HETATM    7  C   UNL     1     -40.874  53.485 -51.749  1.00  0.00     0.001 A 
HETATM    8  C   UNL     1     -41.677  54.639 -51.626  1.00  0.00     0.051 A 
HETATM    9  C   UNL     1     -40.176  53.048 -50.623  1.00  0.00     0.043 A 
HETATM   10  C   UNL     1     -41.745  55.324 -50.404  1.00  0.00     0.069 A 
HETATM   11  C   UNL     1     -41.041  54.851 -49.299  1.00  0.00     0.039 A 
HETATM   12  C   UNL     1     -40.243  53.703 -49.389  1.00  0.00     0.033 A 
HETATM   13  N   UNL     1     -39.472  51.927 -50.992  1.00  0.00    -0.365 N 
HETATM   14  H   UNL     1     -38.870  51.400 -50.373  1.00  0.00     0.165 HD
HETATM   15  C   UNL     1     -39.708  51.630 -52.306  1.00  0.00     0.097 A 
BRANCH  10  16
HETATM   16  O   UNL     1     -42.546  56.435 -50.423  1.00  0.00    -0.356 OA
HETATM   17  C   UNL     1     -43.858  56.264 -50.948  1.00  0.00     0.210 C 
ENDBRANCH  10  16
ENDBRANCH   5   6
ENDBRANCH   1   5
BRANCH   2  18
HETATM   18  C   UNL     1     -42.364  55.799 -55.843  1.00  0.00     0.047 A 
HETATM   19  C   UNL     1     -42.138  57.097 -55.293  1.00  0.00     0.022 A 
HETATM   20  C   UNL     1     -42.497  58.246 -56.050  1.00  0.00     0.102 A 
HETATM   21  C   UNL     1     -41.505  57.356 -54.055  1.00  0.00     0.017 A 
HETATM   22  N   UNL     1     -42.337  59.504 -55.571  1.00  0.00    -0.257 NA
HETATM   23  C   UNL     1     -43.017  58.073 -57.344  1.00  0.00     0.097 A 
HETATM   24  C   UNL     1     -41.786  59.683 -54.358  1.00  0.00     0.117 A 
HETATM   25  C   UNL     1     -41.340  58.650 -53.572  1.00  0.00     0.020 A 
HETATM   26  C   UNL     1     -43.144  56.804 -57.909  1.00  0.00     0.041 A 
HETATM   27  C   UNL     1     -42.818  55.680 -57.163  1.00  0.00     0.033 A 
BRANCH  23  28
HETATM   28  O   UNL     1     -43.313  59.219 -58.052  1.00  0.00    -0.354 OA
HETATM   29  C   UNL     1     -42.542  59.447 -59.224  1.00  0.00     0.210 C 
ENDBRANCH  23  28
ENDBRANCH   2  18
TORSDOF 5
ENDMDL
MODEL 10
REMARK VINA RESULT:      -7.9      2.534      8.874
REMARK  5 active torsions:
REMARK  status: ('A' for Active; 'I' for Inactive)
REMARK    1  A    between atoms: O_2  and  C_3 
REMARK    2  A    between atoms: C_10  and  C_11 
REMARK    3  A    between atoms: C_11  and  C_12 
REMARK       I    between atoms: C_12  and  N_13 
REMARK    4  A    between atoms: N_13  and  C_14 
REMARK    5  A    between atoms: C_21  and  O_22 
ROOT
HETATM    1  C   UNL     1     -43.226  56.175 -54.467  1.00  0.00     0.226 C 
HETATM    2  N   UNL     1     -42.038  56.360 -53.763  1.00  0.00    -0.326 N 
HETATM    3  O   UNL     1     -44.003  55.238 -54.324  1.00  0.00    -0.273 OA
HETATM    4  H   UNL     1     -41.705  57.315 -53.749  1.00  0.00     0.169 HD
ENDROOT
BRANCH   1   5
HETATM    5  C   UNL     1     -43.461  57.302 -55.472  1.00  0.00     0.144 C 
BRANCH   5   6
HETATM    6  C   UNL     1     -43.093  56.976 -56.885  1.00  0.00    -0.021 A 
HETATM    7  C   UNL     1     -42.744  57.888 -57.937  1.00  0.00     0.001 A 
HETATM    8  C   UNL     1     -42.665  59.293 -58.041  1.00  0.00     0.051 A 
HETATM    9  C   UNL     1     -42.436  57.128 -59.066  1.00  0.00     0.043 A 
HETATM   10  C   UNL     1     -42.303  59.892 -59.257  1.00  0.00     0.069 A 
HETATM   11  C   UNL     1     -41.992  59.098 -60.359  1.00  0.00     0.039 A 
HETATM   12  C   UNL     1     -42.053  57.701 -60.283  1.00  0.00     0.033 A 
HETATM   13  N   UNL     1     -42.590  55.807 -58.719  1.00  0.00    -0.365 N 
HETATM   14  H   UNL     1     -42.437  55.030 -59.348  1.00  0.00     0.165 HD
HETATM   15  C   UNL     1     -42.973  55.701 -57.411  1.00  0.00     0.097 A 
BRANCH  10  16
HETATM   16  O   UNL     1     -42.279  61.261 -59.228  1.00  0.00    -0.356 OA
HETATM   17  C   UNL     1     -41.000  61.871 -59.100  1.00  0.00     0.210 C 
ENDBRANCH  10  16
ENDBRANCH   5   6
ENDBRANCH   1   5
BRANCH   2  18
HETATM   18  C   UNL     1     -41.500  55.526 -52.747  1.00  0.00     0.047 A 
HETATM   19  C   UNL     1     -40.913  54.236 -52.925  1.00  0.00     0.022 A 
HETATM   20  C   UNL     1     -40.501  53.494 -51.784  1.00  0.00     0.102 A 
HETATM   21  C   UNL     1     -40.630  53.638 -54.176  1.00  0.00     0.017 A 
HETATM   22  N   UNL     1     -39.967  52.253 -51.885  1.00  0.00    -0.257 NA
HETATM   23  C   UNL     1     -40.634  54.075 -50.512  1.00  0.00     0.097 A 
HETATM   24  C   UNL     1     -39.782  51.712 -53.102  1.00  0.00     0.117 A 
HETATM   25  C   UNL     1     -40.078  52.366 -54.272  1.00  0.00     0.020 A 
HETATM   26  C   UNL     1     -41.119  55.374 -50.356  1.00  0.00     0.041 A 
HETATM   27  C   UNL     1     -41.545  56.090 -51.465  1.00  0.00     0.033 A 
BRANCH  23  28
HETATM   28  O   UNL     1     -40.184  53.332 -49.441  1.00  0.00    -0.354 OA
HETATM   29  C   UNL     1     -40.244  53.966 -48.170  1.00  0.00     0.210 C 
ENDBRANCH  23  28
ENDBRANCH   2  18
TORSDOF 5
ENDMDL
