MODEL 1
REMARK VINA RESULT:      -7.5      0.000      0.000
REMARK  3 active torsions:
REMARK  status: ('A' for Active; 'I' for Inactive)
REMARK       I    between atoms: C_2  and  N_3 
REMARK    1  A    between atoms: N_3  and  C_4 
REMARK    2  A    between atoms: C_7  and  N_8 
REMARK       I    between atoms: N_8  and  C_9 
REMARK    3  A    between atoms: C_9  and  C_10 
ROOT
HETATM    1  C   UNL     1     -44.296  57.975 -52.362  1.00  0.00     0.052 A 
HETATM    2  C   UNL     1     -43.478  57.416 -51.389  1.00  0.00     0.148 A 
HETATM    3  N   UNL     1     -42.833  56.226 -51.526  1.00  0.00    -0.241 NA
HETATM    4  C   UNL     1     -43.006  55.545 -52.677  1.00  0.00     0.130 A 
HETATM    5  C   UNL     1     -43.805  56.023 -53.704  1.00  0.00     0.053 A 
HETATM    6  C   UNL     1     -44.453  57.251 -53.541  1.00  0.00     0.035 A 
ENDROOT
BRANCH   4   7
HETATM    7  N   UNL     1     -42.299  54.343 -52.717  1.00  0.00    -0.307 N 
HETATM    8  C   UNL     1     -41.105  54.069 -53.334  1.00  0.00     0.259 C 
HETATM    9  O   UNL     1     -40.453  54.887 -53.979  1.00  0.00    -0.267 OA
HETATM   10  H   UNL     1     -42.795  53.608 -52.229  1.00  0.00     0.170 HD
BRANCH   8  11
HETATM   11  C   UNL     1     -40.545  52.679 -53.188  1.00  0.00     0.054 A 
HETATM   12  C   UNL     1     -40.001  52.110 -52.026  1.00  0.00     0.049 A 
HETATM   13 CL   UNL     1     -39.905  52.908 -50.494  1.00  0.00    -0.083 Cl
HETATM   14  C   UNL     1     -39.506  50.794 -52.046  1.00  0.00     0.025 A 
HETATM   15  C   UNL     1     -39.554  50.031 -53.212  1.00  0.00     0.002 A 
HETATM   16  C   UNL     1     -40.098  50.575 -54.367  1.00  0.00     0.001 A 
HETATM   17  C   UNL     1     -40.587  51.884 -54.354  1.00  0.00     0.019 A 
ENDBRANCH   8  11
ENDBRANCH   4   7
BRANCH   1  18
HETATM   18  N   UNL     1     -44.969  59.209 -52.253  1.00  0.00    -0.326 N 
HETATM   19  C   UNL     1     -45.942  59.540 -51.329  1.00  0.00     0.218 C 
HETATM   20  C   UNL     1     -46.432  60.955 -51.501  1.00  0.00     0.117 C 
HETATM   21  O   UNL     1     -46.400  58.809 -50.460  1.00  0.00    -0.274 OA
HETATM   22  H   UNL     1     -44.710  59.923 -52.923  1.00  0.00     0.169 HD
ENDBRANCH   1  18
TORSDOF 3
ENDMDL
MODEL 2
REMARK VINA RESULT:      -7.0      1.175      1.431
REMARK  3 active torsions:
REMARK  status: ('A' for Active; 'I' for Inactive)
REMARK       I    between atoms: C_2  and  N_3 
REMARK    1  A    between atoms: N_3  and  C_4 
REMARK    2  A    between atoms: C_7  and  N_8 
REMARK       I    between atoms: N_8  and  C_9 
REMARK    3  A    between atoms: C_9  and  C_10 
ROOT
HETATM    1  C   UNL     1     -43.867  57.915 -53.610  1.00  0.00     0.052 A 
HETATM    2  C   UNL     1     -44.249  56.702 -54.171  1.00  0.00     0.148 A 
HETATM    3  N   UNL     1     -43.589  55.530 -53.975  1.00  0.00    -0.241 NA
HETATM    4  C   UNL     1     -42.491  55.548 -53.192  1.00  0.00     0.130 A 
HETATM    5  C   UNL     1     -42.034  56.710 -52.591  1.00  0.00     0.053 A 
HETATM    6  C   UNL     1     -42.732  57.902 -52.804  1.00  0.00     0.035 A 
ENDROOT
BRANCH   4   7
HETATM    7  N   UNL     1     -41.893  54.295 -53.053  1.00  0.00    -0.307 N 
HETATM    8  C   UNL     1     -40.813  53.781 -53.723  1.00  0.00     0.259 C 
HETATM    9  O   UNL     1     -40.185  54.381 -54.593  1.00  0.00    -0.267 OA
HETATM   10  H   UNL     1     -42.380  53.728 -52.371  1.00  0.00     0.170 HD
BRANCH   8  11
HETATM   11  C   UNL     1     -40.352  52.397 -53.350  1.00  0.00     0.054 A 
HETATM   12  C   UNL     1     -39.909  51.972 -52.087  1.00  0.00     0.049 A 
HETATM   13 CL   UNL     1     -39.846  52.974 -50.679  1.00  0.00    -0.083 Cl
HETATM   14  C   UNL     1     -39.499  50.641 -51.892  1.00  0.00     0.025 A 
HETATM   15  C   UNL     1     -39.532  49.723 -52.940  1.00  0.00     0.002 A 
HETATM   16  C   UNL     1     -39.976  50.124 -54.192  1.00  0.00     0.001 A 
HETATM   17  C   UNL     1     -40.381  51.447 -54.393  1.00  0.00     0.019 A 
ENDBRANCH   8  11
ENDBRANCH   4   7
BRANCH   1  18
HETATM   18  N   UNL     1     -44.537  59.143 -53.787  1.00  0.00    -0.326 N 
HETATM   19  C   UNL     1     -45.367  59.769 -52.877  1.00  0.00     0.218 C 
HETATM   20  C   UNL     1     -45.901  61.077 -53.401  1.00  0.00     0.117 C 
HETATM   21  O   UNL     1     -45.680  59.351 -51.769  1.00  0.00    -0.274 OA
HETATM   22  H   UNL     1     -44.392  59.609 -54.674  1.00  0.00     0.169 HD
ENDBRANCH   1  18
TORSDOF 3
ENDMDL
MODEL 3
REMARK VINA RESULT:      -7.0      2.358      2.663
REMARK  3 active torsions:
REMARK  status: ('A' for Active; 'I' for Inactive)
REMARK       I    between atoms: C_2  and  N_3 
REMARK    1  A    between atoms: N_3  and  C_4 
REMARK    2  A    between atoms: C_7  and  N_8 
REMARK       I    between atoms: N_8  and  C_9 
REMARK    3  A    between atoms: C_9  and  C_10 
ROOT
HETATM    1  C   UNL     1     -42.826  58.052 -51.710  1.00  0.00     0.052 A 
HETATM    2  C   UNL     1     -41.714  57.679 -52.456  1.00  0.00     0.148 A 
HETATM    3  N   UNL     1     -41.286  56.396 -52.598  1.00  0.00    -0.241 NA
HETATM    4  C   UNL     1     -41.983  55.427 -51.971  1.00  0.00     0.130 A 
HETATM    5  C   UNL     1     -43.103  55.703 -51.204  1.00  0.00     0.053 A 
HETATM    6  C   UNL     1     -43.526  57.029 -51.076  1.00  0.00     0.035 A 
ENDROOT
BRANCH   4   7
HETATM    7  N   UNL     1     -41.463  54.150 -52.186  1.00  0.00    -0.307 N 
HETATM    8  C   UNL     1     -40.468  53.501 -51.500  1.00  0.00     0.259 C 
HETATM    9  O   UNL     1     -39.855  53.980 -50.548  1.00  0.00    -0.267 OA
HETATM   10  H   UNL     1     -41.902  53.702 -52.981  1.00  0.00     0.170 HD
BRANCH   8  11
HETATM   11  C   UNL     1     -40.123  52.099 -51.927  1.00  0.00     0.054 A 
HETATM   12  C   UNL     1     -39.959  51.640 -53.244  1.00  0.00     0.049 A 
HETATM   13 CL   UNL     1     -40.087  52.632 -54.654  1.00  0.00    -0.083 Cl
HETATM   14  C   UNL     1     -39.643  50.291 -53.488  1.00  0.00     0.025 A 
HETATM   15  C   UNL     1     -39.480  49.393 -52.435  1.00  0.00     0.002 A 
HETATM   16  C   UNL     1     -39.629  49.834 -51.128  1.00  0.00     0.001 A 
HETATM   17  C   UNL     1     -39.947  51.172 -50.878  1.00  0.00     0.019 A 
ENDBRANCH   8  11
ENDBRANCH   4   7
BRANCH   1  18
HETATM   18  N   UNL     1     -43.298  59.370 -51.552  1.00  0.00    -0.326 N 
HETATM   19  C   UNL     1     -42.701  60.379 -50.820  1.00  0.00     0.218 C 
HETATM   20  C   UNL     1     -43.482  61.667 -50.884  1.00  0.00     0.117 C 
HETATM   21  O   UNL     1     -41.669  60.292 -50.168  1.00  0.00    -0.274 OA
HETATM   22  H   UNL     1     -44.165  59.596 -52.024  1.00  0.00     0.169 HD
ENDBRANCH   1  18
TORSDOF 3
ENDMDL
MODEL 4
REMARK VINA RESULT:      -6.9      4.773      7.200
REMARK  3 active torsions:
REMARK  status: ('A' for Active; 'I' for Inactive)
REMARK       I    between atoms: C_2  and  N_3 
REMARK    1  A    between atoms: N_3  and  C_4 
REMARK    2  A    between atoms: C_7  and  N_8 
REMARK       I    between atoms: N_8  and  C_9 
REMARK    3  A    between atoms: C_9  and  C_10 
ROOT
HETATM    1  C   UNL     1     -41.392  54.154 -52.867  1.00  0.00     0.052 A 
HETATM    2  C   UNL     1     -42.751  54.386 -53.034  1.00  0.00     0.148 A 
HETATM    3  N   UNL     1     -43.341  54.631 -54.235  1.00  0.00    -0.241 NA
HETATM    4  C   UNL     1     -42.554  54.655 -55.330  1.00  0.00     0.130 A 
HETATM    5  C   UNL     1     -41.187  54.437 -55.260  1.00  0.00     0.053 A 
HETATM    6  C   UNL     1     -40.605  54.182 -54.016  1.00  0.00     0.035 A 
ENDROOT
BRANCH   4   7
HETATM    7  N   UNL     1     -43.258  54.910 -56.507  1.00  0.00    -0.307 N 
HETATM    8  C   UNL     1     -43.154  55.983 -57.355  1.00  0.00     0.259 C 
HETATM    9  O   UNL     1     -42.387  56.929 -57.187  1.00  0.00    -0.267 OA
HETATM   10  H   UNL     1     -43.937  54.183 -56.695  1.00  0.00     0.170 HD
BRANCH   8  11
HETATM   11  C   UNL     1     -44.021  55.990 -58.585  1.00  0.00     0.054 A 
HETATM   12  C   UNL     1     -44.842  57.039 -59.028  1.00  0.00     0.049 A 
HETATM   13 CL   UNL     1     -44.984  58.574 -58.244  1.00  0.00    -0.083 Cl
HETATM   14  C   UNL     1     -45.606  56.894 -60.200  1.00  0.00     0.025 A 
HETATM   15  C   UNL     1     -45.557  55.716 -60.944  1.00  0.00     0.002 A 
HETATM   16  C   UNL     1     -44.742  54.673 -60.525  1.00  0.00     0.001 A 
HETATM   17  C   UNL     1     -43.984  54.810 -59.359  1.00  0.00     0.019 A 
ENDBRANCH   8  11
ENDBRANCH   4   7
BRANCH   1  18
HETATM   18  N   UNL     1     -40.754  53.888 -51.638  1.00  0.00    -0.326 N 
HETATM   19  C   UNL     1     -40.552  54.781 -50.603  1.00  0.00     0.218 C 
HETATM   20  C   UNL     1     -39.844  54.146 -49.433  1.00  0.00     0.117 C 
HETATM   21  O   UNL     1     -40.876  55.962 -50.585  1.00  0.00    -0.274 OA
HETATM   22  H   UNL     1     -40.408  52.946 -51.506  1.00  0.00     0.169 HD
ENDBRANCH   1  18
TORSDOF 3
ENDMDL
MODEL 5
REMARK VINA RESULT:      -6.8      2.967      3.166
REMARK  3 active torsions:
REMARK  status: ('A' for Active; 'I' for Inactive)
REMARK       I    between atoms: C_2  and  N_3 
REMARK    1  A    between atoms: N_3  and  C_4 
REMARK    2  A    between atoms: C_7  and  N_8 
REMARK       I    between atoms: N_8  and  C_9 
REMARK    3  A    between atoms: C_9  and  C_10 
ROOT
HETATM    1  C   UNL     1     -43.136  57.860 -54.936  1.00  0.00     0.052 A 
HETATM    2  C   UNL     1     -43.601  56.595 -55.273  1.00  0.00     0.148 A 
HETATM    3  N   UNL     1     -43.050  55.435 -54.825  1.00  0.00    -0.241 NA
HETATM    4  C   UNL     1     -41.981  55.520 -54.008  1.00  0.00     0.130 A 
HETATM    5  C   UNL     1     -41.446  56.738 -53.618  1.00  0.00     0.053 A 
HETATM    6  C   UNL     1     -42.033  57.916 -54.088  1.00  0.00     0.035 A 
ENDROOT
BRANCH   4   7
HETATM    7  N   UNL     1     -41.497  54.276 -53.604  1.00  0.00    -0.307 N 
HETATM    8  C   UNL     1     -40.520  53.506 -54.181  1.00  0.00     0.259 C 
HETATM    9  O   UNL     1     -39.899  53.818 -55.194  1.00  0.00    -0.267 OA
HETATM   10  H   UNL     1     -41.988  53.937 -52.786  1.00  0.00     0.170 HD
BRANCH   8  11
HETATM   11  C   UNL     1     -40.168  52.204 -53.512  1.00  0.00     0.054 A 
HETATM   12  C   UNL     1     -39.790  52.024 -52.171  1.00  0.00     0.049 A 
HETATM   13 CL   UNL     1     -39.694  53.291 -50.999  1.00  0.00    -0.083 Cl
HETATM   14  C   UNL     1     -39.481  50.739 -51.690  1.00  0.00     0.025 A 
HETATM   15  C   UNL     1     -39.552  49.627 -52.526  1.00  0.00     0.002 A 
HETATM   16  C   UNL     1     -39.933  49.787 -53.851  1.00  0.00     0.001 A 
HETATM   17  C   UNL     1     -40.237  51.061 -54.337  1.00  0.00     0.019 A 
ENDBRANCH   8  11
ENDBRANCH   4   7
BRANCH   1  18
HETATM   18  N   UNL     1     -43.691  59.079 -55.376  1.00  0.00    -0.326 N 
HETATM   19  C   UNL     1     -43.458  59.702 -56.588  1.00  0.00     0.218 C 
HETATM   20  C   UNL     1     -44.232  60.988 -56.724  1.00  0.00     0.117 C 
HETATM   21  O   UNL     1     -42.713  59.311 -57.477  1.00  0.00    -0.274 OA
HETATM   22  H   UNL     1     -44.323  59.542 -54.735  1.00  0.00     0.169 HD
ENDBRANCH   1  18
TORSDOF 3
ENDMDL
MODEL 6
REMARK VINA RESULT:      -6.8      1.994      2.427
REMARK  3 active torsions:
REMARK  status: ('A' for Active; 'I' for Inactive)
REMARK       I    between atoms: C_2  and  N_3 
REMARK    1  A    between atoms: N_3  and  C_4 
REMARK    2  A    between atoms: C_7  and  N_8 
REMARK       I    between atoms: N_8  and  C_9 
REMARK    3  A    between atoms: C_9  and  C_10 
ROOT
HETATM    1  C   UNL     1     -44.137  59.379 -51.354  1.00  0.00     0.052 A 
HETATM    2  C   UNL     1     -42.836  59.041 -51.004  1.00  0.00     0.148 A 
HETATM    3  N   UNL     1     -42.218  57.890 -51.383  1.00  0.00    -0.241 NA
HETATM    4  C   UNL     1     -42.917  57.021 -52.141  1.00  0.00     0.130 A 
HETATM    5  C   UNL     1     -44.221  57.271 -52.538  1.00  0.00     0.053 A 
HETATM    6  C   UNL     1     -44.832  58.464 -52.140  1.00  0.00     0.035 A 
ENDROOT
BRANCH   4   7
HETATM    7  N   UNL     1     -42.192  55.877 -52.477  1.00  0.00    -0.307 N 
HETATM    8  C   UNL     1     -42.276  54.618 -51.940  1.00  0.00     0.259 C 
HETATM    9  O   UNL     1     -43.042  54.301 -51.032  1.00  0.00    -0.267 OA
HETATM   10  H   UNL     1     -41.513  56.071 -53.203  1.00  0.00     0.170 HD
BRANCH   8  11
HETATM   11  C   UNL     1     -41.388  53.550 -52.518  1.00  0.00     0.054 A 
HETATM   12  C   UNL     1     -41.402  53.070 -53.838  1.00  0.00     0.049 A 
HETATM   13 CL   UNL     1     -42.443  53.660 -55.087  1.00  0.00    -0.083 Cl
HETATM   14  C   UNL     1     -40.511  52.055 -54.232  1.00  0.00     0.025 A 
HETATM   15  C   UNL     1     -39.598  51.516 -53.328  1.00  0.00     0.002 A 
HETATM   16  C   UNL     1     -39.565  51.986 -52.022  1.00  0.00     0.001 A 
HETATM   17  C   UNL     1     -40.450  52.991 -51.624  1.00  0.00     0.019 A 
ENDBRANCH   8  11
ENDBRANCH   4   7
BRANCH   1  18
HETATM   18  N   UNL     1     -44.799  60.568 -50.985  1.00  0.00    -0.326 N 
HETATM   19  C   UNL     1     -45.595  60.758 -49.872  1.00  0.00     0.218 C 
HETATM   20  C   UNL     1     -46.132  62.164 -49.789  1.00  0.00     0.117 C 
HETATM   21  O   UNL     1     -45.877  59.918 -49.026  1.00  0.00    -0.274 OA
HETATM   22  H   UNL     1     -44.677  61.360 -51.603  1.00  0.00     0.169 HD
ENDBRANCH   1  18
TORSDOF 3
ENDMDL
MODEL 7
REMARK VINA RESULT:      -6.7     15.362     16.718
REMARK  3 active torsions:
REMARK  status: ('A' for Active; 'I' for Inactive)
REMARK       I    between atoms: C_2  and  N_3 
REMARK    1  A    between atoms: N_3  and  C_4 
REMARK    2  A    between atoms: C_7  and  N_8 
REMARK       I    between atoms: N_8  and  C_9 
REMARK    3  A    between atoms: C_9  and  C_10 
ROOT
HETATM    1  C   UNL     1     -36.167  42.151 -57.278  1.00  0.00     0.052 A 
HETATM    2  C   UNL     1     -34.852  41.820 -56.976  1.00  0.00     0.148 A 
HETATM    3  N   UNL     1     -34.441  41.354 -55.766  1.00  0.00    -0.241 NA
HETATM    4  C   UNL     1     -35.369  41.212 -54.798  1.00  0.00     0.130 A 
HETATM    5  C   UNL     1     -36.705  41.519 -55.006  1.00  0.00     0.053 A 
HETATM    6  C   UNL     1     -37.103  41.991 -56.260  1.00  0.00     0.035 A 
ENDROOT
BRANCH   4   7
HETATM    7  N   UNL     1     -34.845  40.725 -53.600  1.00  0.00    -0.307 N 
HETATM    8  C   UNL     1     -34.759  41.352 -52.383  1.00  0.00     0.259 C 
HETATM    9  O   UNL     1     -35.149  42.496 -52.163  1.00  0.00    -0.267 OA
HETATM   10  H   UNL     1     -34.472  39.791 -53.714  1.00  0.00     0.170 HD
BRANCH   8  11
HETATM   11  C   UNL     1     -34.169  40.575 -51.237  1.00  0.00     0.054 A 
HETATM   12  C   UNL     1     -34.875  39.862 -50.254  1.00  0.00     0.049 A 
HETATM   13 CL   UNL     1     -36.596  39.707 -50.199  1.00  0.00    -0.083 Cl
HETATM   14  C   UNL     1     -34.181  39.188 -49.233  1.00  0.00     0.025 A 
HETATM   15  C   UNL     1     -32.788  39.207 -49.183  1.00  0.00     0.002 A 
HETATM   16  C   UNL     1     -32.075  39.899 -50.152  1.00  0.00     0.001 A 
HETATM   17  C   UNL     1     -32.759  40.574 -51.167  1.00  0.00     0.019 A 
ENDBRANCH   8  11
ENDBRANCH   4   7
BRANCH   1  18
HETATM   18  N   UNL     1     -36.624  42.626 -58.525  1.00  0.00    -0.326 N 
HETATM   19  C   UNL     1     -37.143  41.867 -59.557  1.00  0.00     0.218 C 
HETATM   20  C   UNL     1     -37.541  42.713 -60.739  1.00  0.00     0.117 C 
HETATM   21  O   UNL     1     -37.276  40.650 -59.571  1.00  0.00    -0.274 OA
HETATM   22  H   UNL     1     -36.561  43.625 -58.675  1.00  0.00     0.169 HD
ENDBRANCH   1  18
TORSDOF 3
ENDMDL
MODEL 8
REMARK VINA RESULT:      -6.6      2.801      7.936
REMARK  3 active torsions:
REMARK  status: ('A' for Active; 'I' for Inactive)
REMARK       I    between atoms: C_2  and  N_3 
REMARK    1  A    between atoms: N_3  and  C_4 
REMARK    2  A    between atoms: C_7  and  N_8 
REMARK       I    between atoms: N_8  and  C_9 
REMARK    3  A    between atoms: C_9  and  C_10 
ROOT
HETATM    1  C   UNL     1     -40.919  53.239 -53.998  1.00  0.00     0.052 A 
HETATM    2  C   UNL     1     -41.843  53.481 -52.990  1.00  0.00     0.148 A 
HETATM    3  N   UNL     1     -42.202  54.722 -52.564  1.00  0.00    -0.241 NA
HETATM    4  C   UNL     1     -41.617  55.783 -53.155  1.00  0.00     0.130 A 
HETATM    5  C   UNL     1     -40.681  55.641 -54.168  1.00  0.00     0.053 A 
HETATM    6  C   UNL     1     -40.334  54.355 -54.592  1.00  0.00     0.035 A 
ENDROOT
BRANCH   4   7
HETATM    7  N   UNL     1     -42.057  57.007 -52.648  1.00  0.00    -0.307 N 
HETATM    8  C   UNL     1     -41.858  57.540 -51.401  1.00  0.00     0.259 C 
HETATM    9  O   UNL     1     -41.234  56.985 -50.499  1.00  0.00    -0.267 OA
HETATM   10  H   UNL     1     -42.610  57.510 -53.330  1.00  0.00     0.170 HD
BRANCH   8  11
HETATM   11  C   UNL     1     -42.423  58.909 -51.127  1.00  0.00     0.054 A 
HETATM   12  C   UNL     1     -41.728  60.018 -50.620  1.00  0.00     0.049 A 
HETATM   13 CL   UNL     1     -40.040  60.032 -50.243  1.00  0.00    -0.083 Cl
HETATM   14  C   UNL     1     -42.397  61.237 -50.409  1.00  0.00     0.025 A 
HETATM   15  C   UNL     1     -43.753  61.368 -50.703  1.00  0.00     0.002 A 
HETATM   16  C   UNL     1     -44.453  60.283 -51.214  1.00  0.00     0.001 A 
HETATM   17  C   UNL     1     -43.794  59.069 -51.423  1.00  0.00     0.019 A 
ENDBRANCH   8  11
ENDBRANCH   4   7
BRANCH   1  18
HETATM   18  N   UNL     1     -40.535  51.966 -54.467  1.00  0.00    -0.326 N 
HETATM   19  C   UNL     1     -39.807  51.017 -53.775  1.00  0.00     0.218 C 
HETATM   20  C   UNL     1     -39.591  49.764 -54.585  1.00  0.00     0.117 C 
HETATM   21  O   UNL     1     -39.353  51.129 -52.643  1.00  0.00    -0.274 OA
HETATM   22  H   UNL     1     -40.824  51.729 -55.408  1.00  0.00     0.169 HD
ENDBRANCH   1  18
TORSDOF 3
ENDMDL
MODEL 9
REMARK VINA RESULT:      -6.5      1.941      2.571
REMARK  3 active torsions:
REMARK  status: ('A' for Active; 'I' for Inactive)
REMARK       I    between atoms: C_2  and  N_3 
REMARK    1  A    between atoms: N_3  and  C_4 
REMARK    2  A    between atoms: C_7  and  N_8 
REMARK       I    between atoms: N_8  and  C_9 
REMARK    3  A    between atoms: C_9  and  C_10 
ROOT
HETATM    1  C   UNL     1     -44.684  59.824 -50.833  1.00  0.00     0.052 A 
HETATM    2  C   UNL     1     -43.312  59.708 -51.012  1.00  0.00     0.148 A 
HETATM    3  N   UNL     1     -42.689  58.572 -51.425  1.00  0.00    -0.241 NA
HETATM    4  C   UNL     1     -43.454  57.488 -51.668  1.00  0.00     0.130 A 
HETATM    5  C   UNL     1     -44.831  57.508 -51.515  1.00  0.00     0.053 A 
HETATM    6  C   UNL     1     -45.448  58.690 -51.095  1.00  0.00     0.035 A 
ENDROOT
BRANCH   4   7
HETATM    7  N   UNL     1     -42.719  56.379 -52.089  1.00  0.00    -0.307 N 
HETATM    8  C   UNL     1     -42.453  55.218 -51.410  1.00  0.00     0.259 C 
HETATM    9  O   UNL     1     -42.843  54.975 -50.270  1.00  0.00    -0.267 OA
HETATM   10  H   UNL     1     -42.336  56.521 -53.015  1.00  0.00     0.170 HD
BRANCH   8  11
HETATM   11  C   UNL     1     -41.651  54.160 -52.120  1.00  0.00     0.054 A 
HETATM   12  C   UNL     1     -40.539  53.468 -51.614  1.00  0.00     0.049 A 
HETATM   13 CL   UNL     1     -39.889  53.680 -50.026  1.00  0.00    -0.083 Cl
HETATM   14  C   UNL     1     -39.884  52.507 -52.405  1.00  0.00     0.025 A 
HETATM   15  C   UNL     1     -40.328  52.219 -53.694  1.00  0.00     0.002 A 
HETATM   16  C   UNL     1     -41.432  52.887 -54.205  1.00  0.00     0.001 A 
HETATM   17  C   UNL     1     -42.085  53.846 -53.426  1.00  0.00     0.019 A 
ENDBRANCH   8  11
ENDBRANCH   4   7
BRANCH   1  18
HETATM   18  N   UNL     1     -45.358  60.990 -50.416  1.00  0.00    -0.326 N 
HETATM   19  C   UNL     1     -45.843  61.256 -49.150  1.00  0.00     0.218 C 
HETATM   20  C   UNL     1     -46.500  62.610 -49.064  1.00  0.00     0.117 C 
HETATM   21  O   UNL     1     -45.788  60.513 -48.178  1.00  0.00    -0.274 OA
HETATM   22  H   UNL     1     -45.501  61.703 -51.122  1.00  0.00     0.169 HD
ENDBRANCH   1  18
TORSDOF 3
ENDMDL
MODEL 10
REMARK VINA RESULT:      -6.4      2.112      2.459
REMARK  3 active torsions:
REMARK  status: ('A' for Active; 'I' for Inactive)
REMARK       I    between atoms: C_2  and  N_3 
REMARK    1  A    between atoms: N_3  and  C_4 
REMARK    2  A    between atoms: C_7  and  N_8 
REMARK       I    between atoms: N_8  and  C_9 
REMARK    3  A    between atoms: C_9  and  C_10 
ROOT
HETATM    1  C   UNL     1     -42.402  59.906 -52.118  1.00  0.00     0.052 A 
HETATM    2  C   UNL     1     -42.360  59.156 -53.287  1.00  0.00     0.148 A 
HETATM    3  N   UNL     1     -41.892  57.881 -53.358  1.00  0.00    -0.241 NA
HETATM    4  C   UNL     1     -41.436  57.313 -52.223  1.00  0.00     0.130 A 
HETATM    5  C   UNL     1     -41.437  57.984 -51.011  1.00  0.00     0.053 A 
HETATM    6  C   UNL     1     -41.927  59.292 -50.962  1.00  0.00     0.035 A 
ENDROOT
BRANCH   4   7
HETATM    7  N   UNL     1     -40.985  56.005 -52.405  1.00  0.00    -0.307 N 
HETATM    8  C   UNL     1     -41.710  54.841 -52.417  1.00  0.00     0.259 C 
HETATM    9  O   UNL     1     -42.926  54.779 -52.255  1.00  0.00    -0.267 OA
HETATM   10  H   UNL     1     -39.979  55.974 -52.514  1.00  0.00     0.170 HD
BRANCH   8  11
HETATM   11  C   UNL     1     -40.966  53.556 -52.669  1.00  0.00     0.054 A 
HETATM   12  C   UNL     1     -40.152  52.864 -51.757  1.00  0.00     0.049 A 
HETATM   13 CL   UNL     1     -39.878  53.350 -50.120  1.00  0.00    -0.083 Cl
HETATM   14  C   UNL     1     -39.511  51.674 -52.143  1.00  0.00     0.025 A 
HETATM   15  C   UNL     1     -39.676  51.157 -53.427  1.00  0.00     0.002 A 
HETATM   16  C   UNL     1     -40.485  51.824 -54.337  1.00  0.00     0.001 A 
HETATM   17  C   UNL     1     -41.121  53.010 -53.961  1.00  0.00     0.019 A 
ENDBRANCH   8  11
ENDBRANCH   4   7
BRANCH   1  18
HETATM   18  N   UNL     1     -42.889  61.225 -52.011  1.00  0.00    -0.326 N 
HETATM   19  C   UNL     1     -44.200  61.636 -52.168  1.00  0.00     0.218 C 
HETATM   20  C   UNL     1     -44.357  63.122 -51.971  1.00  0.00     0.117 C 
HETATM   21  O   UNL     1     -45.158  60.925 -52.446  1.00  0.00    -0.274 OA
HETATM   22  H   UNL     1     -42.205  61.940 -51.800  1.00  0.00     0.169 HD
ENDBRANCH   1  18
TORSDOF 3
ENDMDL
