MODEL 1
REMARK VINA RESULT:      -8.4      0.000      0.000
REMARK  8 active torsions:
REMARK  status: ('A' for Active; 'I' for Inactive)
REMARK    1  A    between atoms: O_2  and  C_3 
REMARK    2  A    between atoms: C_4  and  O_5 
REMARK    3  A    between atoms: C_8  and  C_9 
REMARK    4  A    between atoms: C_9  and  C_10 
REMARK    5  A    between atoms: C_10  and  C_11 
REMARK    6  A    between atoms: C_13  and  N_14 
REMARK       I    between atoms: N_14  and  C_15 
REMARK    7  A    between atoms: C_15  and  C_16 
REMARK    8  A    between atoms: C_20  and  C_21 
ROOT
HETATM    1  C   UNL     1     -42.286  59.946 -55.884  1.00  0.00     0.140 A 
HETATM    2  N   UNL     1     -42.184  58.662 -55.608  1.00  0.00    -0.046 NA
HETATM    3  C   UNL     1     -41.700  58.639 -54.326  1.00  0.00     0.747 A 
HETATM    4  N   UNL     1     -41.521  59.846 -53.791  1.00  0.00     0.020 NA
HETATM    5  N   UNL     1     -41.895  60.656 -54.785  1.00  0.00    -0.248 N 
HETATM    6  H   UNL     1     -41.842  61.660 -54.654  1.00  0.00     0.191 HD
ENDROOT
BRANCH   3   7
HETATM    7  N   UNL     1     -41.432  57.434 -53.761  1.00  0.00    -0.149 N 
HETATM    8  C   UNL     1     -41.906  56.995 -52.551  1.00  0.00     0.290 C 
HETATM    9  O   UNL     1     -42.690  57.566 -51.803  1.00  0.00    -0.265 OA
HETATM   10  H   UNL     1     -40.766  56.847 -54.244  1.00  0.00     0.188 HD
BRANCH   8  11
HETATM   11  C   UNL     1     -41.320  55.692 -52.183  1.00  0.00     0.147 A 
HETATM   12  N   UNL     1     -40.962  55.392 -50.918  1.00  0.00    -0.169 NA
HETATM   13  N   UNL     1     -40.496  54.132 -51.008  1.00  0.00    -0.277 N 
HETATM   14  H   UNL     1     -40.134  53.699 -50.165  1.00  0.00     0.189 HD
HETATM   15  C   UNL     1     -40.580  53.578 -52.259  1.00  0.00     0.063 A 
HETATM   16  C   UNL     1     -41.082  54.595 -53.048  1.00  0.00     0.071 A 
BRANCH  15  17
HETATM   17  C   UNL     1     -40.190  52.204 -52.583  1.00  0.00    -0.008 A 
HETATM   18  C   UNL     1     -39.790  51.301 -51.587  1.00  0.00     0.014 A 
HETATM   19  C   UNL     1     -39.442  49.985 -51.910  1.00  0.00     0.001 A 
HETATM   20  C   UNL     1     -39.491  49.553 -53.233  1.00  0.00     0.000 A 
HETATM   21  C   UNL     1     -39.889  50.436 -54.234  1.00  0.00     0.001 A 
HETATM   22  C   UNL     1     -40.235  51.750 -53.910  1.00  0.00     0.014 A 
ENDBRANCH  15  17
ENDBRANCH   8  11
ENDBRANCH   3   7
BRANCH   1  23
HETATM   23  C   UNL     1     -42.683  60.603 -57.155  1.00  0.00     0.085 C 
BRANCH  23  24
HETATM   24  C   UNL     1     -41.861  60.126 -58.353  1.00  0.00     0.046 C 
BRANCH  24  25
HETATM   25  C   UNL     1     -42.527  58.938 -59.010  1.00  0.00    -0.055 A 
HETATM   26  C   UNL     1     -43.893  58.975 -59.329  1.00  0.00     0.046 A 
HETATM   27  C   UNL     1     -44.500  57.907 -60.002  1.00  0.00     0.102 A 
HETATM   28  C   UNL     1     -43.726  56.792 -60.375  1.00  0.00     0.101 A 
HETATM   29  C   UNL     1     -42.370  56.745 -60.036  1.00  0.00     0.040 A 
HETATM   30  C   UNL     1     -41.775  57.813 -59.361  1.00  0.00     0.010 A 
BRANCH  27  31
HETATM   31  O   UNL     1     -45.825  57.870 -60.365  1.00  0.00    -0.353 OA
HETATM   32  C   UNL     1     -46.792  57.864 -59.327  1.00  0.00     0.210 C 
ENDBRANCH  27  31
BRANCH  28  33
HETATM   33  O   UNL     1     -44.381  55.786 -61.042  1.00  0.00    -0.353 OA
HETATM   34  C   UNL     1     -44.744  54.646 -60.275  1.00  0.00     0.210 C 
ENDBRANCH  28  33
ENDBRANCH  24  25
ENDBRANCH  23  24
ENDBRANCH   1  23
TORSDOF 8
ENDMDL
MODEL 2
REMARK VINA RESULT:      -8.4      5.388      8.854
REMARK  8 active torsions:
REMARK  status: ('A' for Active; 'I' for Inactive)
REMARK    1  A    between atoms: O_2  and  C_3 
REMARK    2  A    between atoms: C_4  and  O_5 
REMARK    3  A    between atoms: C_8  and  C_9 
REMARK    4  A    between atoms: C_9  and  C_10 
REMARK    5  A    between atoms: C_10  and  C_11 
REMARK    6  A    between atoms: C_13  and  N_14 
REMARK       I    between atoms: N_14  and  C_15 
REMARK    7  A    between atoms: C_15  and  C_16 
REMARK    8  A    between atoms: C_20  and  C_21 
ROOT
HETATM    1  C   UNL     1     -43.152  59.857 -50.797  1.00  0.00     0.140 A 
HETATM    2  N   UNL     1     -43.061  58.758 -51.517  1.00  0.00    -0.046 NA
HETATM    3  C   UNL     1     -41.778  58.327 -51.297  1.00  0.00     0.747 A 
HETATM    4  N   UNL     1     -41.083  59.095 -50.458  1.00  0.00     0.020 NA
HETATM    5  N   UNL     1     -41.963  60.053 -50.154  1.00  0.00    -0.248 N 
HETATM    6  H   UNL     1     -41.686  60.801 -49.530  1.00  0.00     0.191 HD
ENDROOT
BRANCH   3   7
HETATM    7  N   UNL     1     -41.350  57.219 -51.954  1.00  0.00    -0.149 N 
HETATM    8  C   UNL     1     -41.240  57.088 -53.314  1.00  0.00     0.290 C 
HETATM    9  O   UNL     1     -41.442  57.944 -54.168  1.00  0.00    -0.265 OA
HETATM   10  H   UNL     1     -41.169  56.400 -51.389  1.00  0.00     0.188 HD
BRANCH   8  11
HETATM   11  C   UNL     1     -40.864  55.713 -53.696  1.00  0.00     0.147 A 
HETATM   12  N   UNL     1     -40.442  55.397 -54.937  1.00  0.00    -0.169 NA
HETATM   13  N   UNL     1     -40.192  54.076 -54.862  1.00  0.00    -0.277 N 
HETATM   14  H   UNL     1     -39.886  53.602 -55.705  1.00  0.00     0.189 HD
HETATM   15  C   UNL     1     -40.384  53.525 -53.621  1.00  0.00     0.063 A 
HETATM   16  C   UNL     1     -40.857  54.572 -52.855  1.00  0.00     0.071 A 
BRANCH  15  17
HETATM   17  C   UNL     1     -40.120  52.123 -53.289  1.00  0.00    -0.008 A 
HETATM   18  C   UNL     1     -40.204  51.111 -54.257  1.00  0.00     0.014 A 
HETATM   19  C   UNL     1     -39.927  49.781 -53.928  1.00  0.00     0.001 A 
HETATM   20  C   UNL     1     -39.560  49.443 -52.627  1.00  0.00     0.000 A 
HETATM   21  C   UNL     1     -39.469  50.435 -51.656  1.00  0.00     0.001 A 
HETATM   22  C   UNL     1     -39.748  51.764 -51.985  1.00  0.00     0.014 A 
ENDBRANCH  15  17
ENDBRANCH   8  11
ENDBRANCH   3   7
BRANCH   1  23
HETATM   23  C   UNL     1     -44.280  60.816 -50.689  1.00  0.00     0.085 C 
BRANCH  23  24
HETATM   24  C   UNL     1     -43.842  62.196 -50.194  1.00  0.00     0.046 C 
BRANCH  24  25
HETATM   25  C   UNL     1     -44.388  62.456 -48.809  1.00  0.00    -0.055 A 
HETATM   26  C   UNL     1     -44.671  61.390 -47.943  1.00  0.00     0.046 A 
HETATM   27  C   UNL     1     -45.108  61.627 -46.633  1.00  0.00     0.102 A 
HETATM   28  C   UNL     1     -45.250  62.952 -46.178  1.00  0.00     0.101 A 
HETATM   29  C   UNL     1     -44.990  64.015 -47.050  1.00  0.00     0.040 A 
HETATM   30  C   UNL     1     -44.559  63.768 -48.355  1.00  0.00     0.010 A 
BRANCH  27  31
HETATM   31  O   UNL     1     -45.391  60.642 -45.719  1.00  0.00    -0.353 OA
HETATM   32  C   UNL     1     -46.468  59.764 -46.007  1.00  0.00     0.210 C 
ENDBRANCH  27  31
BRANCH  28  33
HETATM   33  O   UNL     1     -45.671  63.113 -44.881  1.00  0.00    -0.353 OA
HETATM   34  C   UNL     1     -44.861  63.927 -44.045  1.00  0.00     0.210 C 
ENDBRANCH  28  33
ENDBRANCH  24  25
ENDBRANCH  23  24
ENDBRANCH   1  23
TORSDOF 8
ENDMDL
MODEL 3
REMARK VINA RESULT:      -8.2      3.268      9.969
REMARK  8 active torsions:
REMARK  status: ('A' for Active; 'I' for Inactive)
REMARK    1  A    between atoms: O_2  and  C_3 
REMARK    2  A    between atoms: C_4  and  O_5 
REMARK    3  A    between atoms: C_8  and  C_9 
REMARK    4  A    between atoms: C_9  and  C_10 
REMARK    5  A    between atoms: C_10  and  C_11 
REMARK    6  A    between atoms: C_13  and  N_14 
REMARK       I    between atoms: N_14  and  C_15 
REMARK    7  A    between atoms: C_15  and  C_16 
REMARK    8  A    between atoms: C_20  and  C_21 
ROOT
HETATM    1  C   UNL     1     -43.750  56.022 -54.577  1.00  0.00     0.140 A 
HETATM    2  N   UNL     1     -42.897  56.853 -55.140  1.00  0.00    -0.046 NA
HETATM    3  C   UNL     1     -43.671  57.930 -55.487  1.00  0.00     0.747 A 
HETATM    4  N   UNL     1     -44.953  57.812 -55.143  1.00  0.00     0.020 NA
HETATM    5  N   UNL     1     -44.984  56.605 -54.572  1.00  0.00    -0.248 N 
HETATM    6  H   UNL     1     -45.865  56.243 -54.225  1.00  0.00     0.191 HD
ENDROOT
BRANCH   3   7
HETATM    7  N   UNL     1     -43.082  58.959 -56.148  1.00  0.00    -0.149 N 
HETATM    8  C   UNL     1     -42.899  59.039 -57.505  1.00  0.00     0.290 C 
HETATM    9  O   UNL     1     -43.280  58.247 -58.359  1.00  0.00    -0.265 OA
HETATM   10  H   UNL     1     -42.679  59.690 -55.578  1.00  0.00     0.188 HD
BRANCH   8  11
HETATM   11  C   UNL     1     -42.114  60.232 -57.875  1.00  0.00     0.147 A 
HETATM   12  N   UNL     1     -41.688  61.129 -56.963  1.00  0.00    -0.169 NA
HETATM   13  N   UNL     1     -41.012  62.033 -57.696  1.00  0.00    -0.277 N 
HETATM   14  H   UNL     1     -40.619  62.836 -57.216  1.00  0.00     0.189 HD
HETATM   15  C   UNL     1     -40.933  61.743 -59.034  1.00  0.00     0.063 A 
HETATM   16  C   UNL     1     -41.677  60.588 -59.176  1.00  0.00     0.071 A 
BRANCH  15  17
HETATM   17  C   UNL     1     -40.200  62.549 -60.014  1.00  0.00    -0.008 A 
HETATM   18  C   UNL     1     -39.200  63.451 -59.620  1.00  0.00     0.014 A 
HETATM   19  C   UNL     1     -38.494  64.196 -60.570  1.00  0.00     0.001 A 
HETATM   20  C   UNL     1     -38.776  64.050 -61.926  1.00  0.00     0.000 A 
HETATM   21  C   UNL     1     -39.763  63.157 -62.333  1.00  0.00     0.001 A 
HETATM   22  C   UNL     1     -40.469  62.413 -61.384  1.00  0.00     0.014 A 
ENDBRANCH  15  17
ENDBRANCH   8  11
ENDBRANCH   3   7
BRANCH   1  23
HETATM   23  C   UNL     1     -43.519  54.646 -54.065  1.00  0.00     0.085 C 
BRANCH  23  24
HETATM   24  C   UNL     1     -42.466  53.882 -54.869  1.00  0.00     0.046 C 
BRANCH  24  25
HETATM   25  C   UNL     1     -41.502  53.179 -53.941  1.00  0.00    -0.055 A 
HETATM   26  C   UNL     1     -41.435  53.530 -52.585  1.00  0.00     0.046 A 
HETATM   27  C   UNL     1     -40.597  52.834 -51.705  1.00  0.00     0.102 A 
HETATM   28  C   UNL     1     -39.824  51.760 -52.186  1.00  0.00     0.101 A 
HETATM   29  C   UNL     1     -39.873  51.425 -53.544  1.00  0.00     0.040 A 
HETATM   30  C   UNL     1     -40.710  52.128 -54.414  1.00  0.00     0.010 A 
BRANCH  27  31
HETATM   31  O   UNL     1     -40.485  53.103 -50.363  1.00  0.00    -0.353 OA
HETATM   32  C   UNL     1     -40.172  54.434 -49.981  1.00  0.00     0.210 C 
ENDBRANCH  27  31
BRANCH  28  33
HETATM   33  O   UNL     1     -39.033  51.114 -51.269  1.00  0.00    -0.353 OA
HETATM   34  C   UNL     1     -39.422  49.796 -50.908  1.00  0.00     0.210 C 
ENDBRANCH  28  33
ENDBRANCH  24  25
ENDBRANCH  23  24
ENDBRANCH   1  23
TORSDOF 8
ENDMDL
MODEL 4
REMARK VINA RESULT:      -8.2      4.179      9.318
REMARK  8 active torsions:
REMARK  status: ('A' for Active; 'I' for Inactive)
REMARK    1  A    between atoms: O_2  and  C_3 
REMARK    2  A    between atoms: C_4  and  O_5 
REMARK    3  A    between atoms: C_8  and  C_9 
REMARK    4  A    between atoms: C_9  and  C_10 
REMARK    5  A    between atoms: C_10  and  C_11 
REMARK    6  A    between atoms: C_13  and  N_14 
REMARK       I    between atoms: N_14  and  C_15 
REMARK    7  A    between atoms: C_15  and  C_16 
REMARK    8  A    between atoms: C_20  and  C_21 
ROOT
HETATM    1  C   UNL     1     -42.268  55.884 -55.498  1.00  0.00     0.140 A 
HETATM    2  N   UNL     1     -42.562  56.703 -54.509  1.00  0.00    -0.046 NA
HETATM    3  C   UNL     1     -42.605  57.936 -55.106  1.00  0.00     0.747 A 
HETATM    4  N   UNL     1     -42.376  57.913 -56.418  1.00  0.00     0.020 NA
HETATM    5  N   UNL     1     -42.166  56.614 -56.647  1.00  0.00    -0.248 N 
HETATM    6  H   UNL     1     -41.945  56.305 -57.587  1.00  0.00     0.191 HD
ENDROOT
BRANCH   3   7
HETATM    7  N   UNL     1     -42.839  59.022 -54.325  1.00  0.00    -0.149 N 
HETATM    8  C   UNL     1     -41.888  59.742 -53.650  1.00  0.00     0.290 C 
HETATM    9  O   UNL     1     -40.672  59.585 -53.676  1.00  0.00    -0.265 OA
HETATM   10  H   UNL     1     -43.808  59.268 -54.173  1.00  0.00     0.188 HD
BRANCH   8  11
HETATM   11  C   UNL     1     -42.499  60.779 -52.798  1.00  0.00     0.147 A 
HETATM   12  N   UNL     1     -42.932  61.957 -53.290  1.00  0.00    -0.169 NA
HETATM   13  N   UNL     1     -43.424  62.594 -52.211  1.00  0.00    -0.277 N 
HETATM   14  H   UNL     1     -43.785  63.533 -52.337  1.00  0.00     0.189 HD
HETATM   15  C   UNL     1     -43.379  61.869 -51.048  1.00  0.00     0.063 A 
HETATM   16  C   UNL     1     -42.745  60.694 -51.404  1.00  0.00     0.071 A 
BRANCH  15  17
HETATM   17  C   UNL     1     -43.909  62.332 -49.763  1.00  0.00    -0.008 A 
HETATM   18  C   UNL     1     -43.926  63.693 -49.424  1.00  0.00     0.014 A 
HETATM   19  C   UNL     1     -44.456  64.120 -48.203  1.00  0.00     0.001 A 
HETATM   20  C   UNL     1     -44.979  63.194 -47.304  1.00  0.00     0.000 A 
HETATM   21  C   UNL     1     -44.973  61.840 -47.626  1.00  0.00     0.001 A 
HETATM   22  C   UNL     1     -44.442  61.413 -48.846  1.00  0.00     0.014 A 
ENDBRANCH  15  17
ENDBRANCH   8  11
ENDBRANCH   3   7
BRANCH   1  23
HETATM   23  C   UNL     1     -42.011  54.422 -55.460  1.00  0.00     0.085 C 
BRANCH  23  24
HETATM   24  C   UNL     1     -40.526  54.084 -55.310  1.00  0.00     0.046 C 
BRANCH  24  25
HETATM   25  C   UNL     1     -40.294  53.278 -54.052  1.00  0.00    -0.055 A 
HETATM   26  C   UNL     1     -40.612  53.812 -52.795  1.00  0.00     0.046 A 
HETATM   27  C   UNL     1     -40.466  53.045 -51.633  1.00  0.00     0.102 A 
HETATM   28  C   UNL     1     -40.009  51.716 -51.731  1.00  0.00     0.101 A 
HETATM   29  C   UNL     1     -39.669  51.192 -52.982  1.00  0.00     0.040 A 
HETATM   30  C   UNL     1     -39.814  51.967 -54.135  1.00  0.00     0.010 A 
BRANCH  27  31
HETATM   31  O   UNL     1     -40.770  53.485 -50.367  1.00  0.00    -0.353 OA
HETATM   32  C   UNL     1     -39.843  54.350 -49.731  1.00  0.00     0.210 C 
ENDBRANCH  27  31
BRANCH  28  33
HETATM   33  O   UNL     1     -39.900  51.017 -50.555  1.00  0.00    -0.353 OA
HETATM   34  C   UNL     1     -39.558  49.642 -50.661  1.00  0.00     0.210 C 
ENDBRANCH  28  33
ENDBRANCH  24  25
ENDBRANCH  23  24
ENDBRANCH   1  23
TORSDOF 8
ENDMDL
MODEL 5
REMARK VINA RESULT:      -8.1      3.079      9.646
REMARK  8 active torsions:
REMARK  status: ('A' for Active; 'I' for Inactive)
REMARK    1  A    between atoms: O_2  and  C_3 
REMARK    2  A    between atoms: C_4  and  O_5 
REMARK    3  A    between atoms: C_8  and  C_9 
REMARK    4  A    between atoms: C_9  and  C_10 
REMARK    5  A    between atoms: C_10  and  C_11 
REMARK    6  A    between atoms: C_13  and  N_14 
REMARK       I    between atoms: N_14  and  C_15 
REMARK    7  A    between atoms: C_15  and  C_16 
REMARK    8  A    between atoms: C_20  and  C_21 
ROOT
HETATM    1  C   UNL     1     -43.049  55.841 -52.466  1.00  0.00     0.140 A 
HETATM    2  N   UNL     1     -42.539  56.931 -53.000  1.00  0.00    -0.046 NA
HETATM    3  C   UNL     1     -43.253  57.092 -54.160  1.00  0.00     0.747 A 
HETATM    4  N   UNL     1     -44.193  56.168 -54.352  1.00  0.00     0.020 NA
HETATM    5  N   UNL     1     -44.050  55.389 -53.276  1.00  0.00    -0.248 N 
HETATM    6  H   UNL     1     -44.644  54.574 -53.171  1.00  0.00     0.191 HD
ENDROOT
BRANCH   3   7
HETATM    7  N   UNL     1     -42.924  58.122 -54.980  1.00  0.00    -0.149 N 
HETATM    8  C   UNL     1     -42.534  58.009 -56.290  1.00  0.00     0.290 C 
HETATM    9  O   UNL     1     -42.473  56.989 -56.967  1.00  0.00    -0.265 OA
HETATM   10  H   UNL     1     -42.894  59.042 -54.561  1.00  0.00     0.188 HD
BRANCH   8  11
HETATM   11  C   UNL     1     -42.130  59.314 -56.848  1.00  0.00     0.147 A 
HETATM   12  N   UNL     1     -42.111  60.442 -56.110  1.00  0.00    -0.169 NA
HETATM   13  N   UNL     1     -41.679  61.381 -56.972  1.00  0.00    -0.277 N 
HETATM   14  H   UNL     1     -41.614  62.337 -56.640  1.00  0.00     0.189 HD
HETATM   15  C   UNL     1     -41.367  60.911 -58.222  1.00  0.00     0.063 A 
HETATM   16  C   UNL     1     -41.689  59.569 -58.171  1.00  0.00     0.071 A 
BRANCH  15  17
HETATM   17  C   UNL     1     -40.824  61.737 -59.304  1.00  0.00    -0.008 A 
HETATM   18  C   UNL     1     -41.333  61.664 -60.609  1.00  0.00     0.014 A 
HETATM   19  C   UNL     1     -40.818  62.476 -61.625  1.00  0.00     0.001 A 
HETATM   20  C   UNL     1     -39.788  63.372 -61.351  1.00  0.00     0.000 A 
HETATM   21  C   UNL     1     -39.273  63.459 -60.060  1.00  0.00     0.001 A 
HETATM   22  C   UNL     1     -39.787  62.647 -59.046  1.00  0.00     0.014 A 
ENDBRANCH  15  17
ENDBRANCH   8  11
ENDBRANCH   3   7
BRANCH   1  23
HETATM   23  C   UNL     1     -42.634  55.118 -51.236  1.00  0.00     0.085 C 
BRANCH  23  24
HETATM   24  C   UNL     1     -41.115  55.049 -51.071  1.00  0.00     0.046 C 
BRANCH  24  25
HETATM   25  C   UNL     1     -40.553  53.882 -51.850  1.00  0.00    -0.055 A 
HETATM   26  C   UNL     1     -40.014  52.773 -51.180  1.00  0.00     0.046 A 
HETATM   27  C   UNL     1     -39.558  51.657 -51.894  1.00  0.00     0.102 A 
HETATM   28  C   UNL     1     -39.655  51.645 -53.299  1.00  0.00     0.101 A 
HETATM   29  C   UNL     1     -40.169  52.761 -53.967  1.00  0.00     0.040 A 
HETATM   30  C   UNL     1     -40.619  53.870 -53.246  1.00  0.00     0.010 A 
BRANCH  27  31
HETATM   31  O   UNL     1     -39.033  50.527 -51.316  1.00  0.00    -0.353 OA
HETATM   32  C   UNL     1     -39.941  49.588 -50.762  1.00  0.00     0.210 C 
ENDBRANCH  27  31
BRANCH  28  33
HETATM   33  O   UNL     1     -39.199  50.517 -53.935  1.00  0.00    -0.353 OA
HETATM   34  C   UNL     1     -40.165  49.750 -54.641  1.00  0.00     0.210 C 
ENDBRANCH  28  33
ENDBRANCH  24  25
ENDBRANCH  23  24
ENDBRANCH   1  23
TORSDOF 8
ENDMDL
MODEL 6
REMARK VINA RESULT:      -8.1      3.327      9.988
REMARK  8 active torsions:
REMARK  status: ('A' for Active; 'I' for Inactive)
REMARK    1  A    between atoms: O_2  and  C_3 
REMARK    2  A    between atoms: C_4  and  O_5 
REMARK    3  A    between atoms: C_8  and  C_9 
REMARK    4  A    between atoms: C_9  and  C_10 
REMARK    5  A    between atoms: C_10  and  C_11 
REMARK    6  A    between atoms: C_13  and  N_14 
REMARK       I    between atoms: N_14  and  C_15 
REMARK    7  A    between atoms: C_15  and  C_16 
REMARK    8  A    between atoms: C_20  and  C_21 
ROOT
HETATM    1  C   UNL     1     -43.030  55.075 -56.334  1.00  0.00     0.140 A 
HETATM    2  N   UNL     1     -42.480  56.263 -56.187  1.00  0.00    -0.046 NA
HETATM    3  C   UNL     1     -42.708  56.880 -57.391  1.00  0.00     0.747 A 
HETATM    4  N   UNL     1     -43.392  56.138 -58.261  1.00  0.00     0.020 NA
HETATM    5  N   UNL     1     -43.586  55.006 -57.579  1.00  0.00    -0.248 N 
HETATM    6  H   UNL     1     -44.079  54.239 -58.021  1.00  0.00     0.191 HD
ENDROOT
BRANCH   3   7
HETATM    7  N   UNL     1     -42.207  58.127 -57.579  1.00  0.00    -0.149 N 
HETATM    8  C   UNL     1     -42.946  59.270 -57.743  1.00  0.00     0.290 C 
HETATM    9  O   UNL     1     -44.165  59.388 -57.688  1.00  0.00    -0.265 OA
HETATM   10  H   UNL     1     -41.203  58.200 -57.680  1.00  0.00     0.188 HD
BRANCH   8  11
HETATM   11  C   UNL     1     -42.087  60.430 -58.049  1.00  0.00     0.147 A 
HETATM   12  N   UNL     1     -41.613  61.252 -57.091  1.00  0.00    -0.169 NA
HETATM   13  N   UNL     1     -40.878  62.149 -57.775  1.00  0.00    -0.277 N 
HETATM   14  H   UNL     1     -40.439  62.900 -57.253  1.00  0.00     0.189 HD
HETATM   15  C   UNL     1     -40.809  61.923 -59.126  1.00  0.00     0.063 A 
HETATM   16  C   UNL     1     -41.622  60.826 -59.329  1.00  0.00     0.071 A 
BRANCH  15  17
HETATM   17  C   UNL     1     -40.022  62.732 -60.060  1.00  0.00    -0.008 A 
HETATM   18  C   UNL     1     -39.042  63.628 -59.609  1.00  0.00     0.014 A 
HETATM   19  C   UNL     1     -38.284  64.376 -60.516  1.00  0.00     0.001 A 
HETATM   20  C   UNL     1     -38.494  64.238 -61.886  1.00  0.00     0.000 A 
HETATM   21  C   UNL     1     -39.460  63.350 -62.350  1.00  0.00     0.001 A 
HETATM   22  C   UNL     1     -40.218  62.604 -61.443  1.00  0.00     0.014 A 
ENDBRANCH  15  17
ENDBRANCH   8  11
ENDBRANCH   3   7
BRANCH   1  23
HETATM   23  C   UNL     1     -43.041  53.925 -55.394  1.00  0.00     0.085 C 
BRANCH  23  24
HETATM   24  C   UNL     1     -41.661  53.627 -54.805  1.00  0.00     0.046 C 
BRANCH  24  25
HETATM   25  C   UNL     1     -41.670  53.839 -53.308  1.00  0.00    -0.055 A 
HETATM   26  C   UNL     1     -42.738  54.507 -52.690  1.00  0.00     0.046 A 
HETATM   27  C   UNL     1     -42.788  54.644 -51.297  1.00  0.00     0.102 A 
HETATM   28  C   UNL     1     -41.760  54.090 -50.508  1.00  0.00     0.101 A 
HETATM   29  C   UNL     1     -40.684  53.446 -51.127  1.00  0.00     0.040 A 
HETATM   30  C   UNL     1     -40.642  53.318 -52.517  1.00  0.00     0.010 A 
BRANCH  27  31
HETATM   31  O   UNL     1     -43.803  55.267 -50.613  1.00  0.00    -0.353 OA
HETATM   32  C   UNL     1     -44.100  56.612 -50.957  1.00  0.00     0.210 C 
ENDBRANCH  27  31
BRANCH  28  33
HETATM   33  O   UNL     1     -41.877  54.251 -49.150  1.00  0.00    -0.353 OA
HETATM   34  C   UNL     1     -40.669  54.444 -48.426  1.00  0.00     0.210 C 
ENDBRANCH  28  33
ENDBRANCH  24  25
ENDBRANCH  23  24
ENDBRANCH   1  23
TORSDOF 8
ENDMDL
MODEL 7
REMARK VINA RESULT:      -7.7      2.011      2.797
REMARK  8 active torsions:
REMARK  status: ('A' for Active; 'I' for Inactive)
REMARK    1  A    between atoms: O_2  and  C_3 
REMARK    2  A    between atoms: C_4  and  O_5 
REMARK    3  A    between atoms: C_8  and  C_9 
REMARK    4  A    between atoms: C_9  and  C_10 
REMARK    5  A    between atoms: C_10  and  C_11 
REMARK    6  A    between atoms: C_13  and  N_14 
REMARK       I    between atoms: N_14  and  C_15 
REMARK    7  A    between atoms: C_15  and  C_16 
REMARK    8  A    between atoms: C_20  and  C_21 
ROOT
HETATM    1  C   UNL     1     -44.999  59.629 -55.479  1.00  0.00     0.140 A 
HETATM    2  N   UNL     1     -44.135  58.663 -55.715  1.00  0.00    -0.046 NA
HETATM    3  C   UNL     1     -44.130  57.937 -54.552  1.00  0.00     0.747 A 
HETATM    4  N   UNL     1     -44.967  58.395 -53.622  1.00  0.00     0.020 NA
HETATM    5  N   UNL     1     -45.505  59.460 -54.222  1.00  0.00    -0.248 N 
HETATM    6  H   UNL     1     -46.182  60.023 -53.721  1.00  0.00     0.191 HD
ENDROOT
BRANCH   3   7
HETATM    7  N   UNL     1     -43.283  56.880 -54.457  1.00  0.00    -0.149 N 
HETATM    8  C   UNL     1     -42.121  56.850 -53.731  1.00  0.00     0.290 C 
HETATM    9  O   UNL     1     -41.672  57.725 -52.999  1.00  0.00    -0.265 OA
HETATM   10  H   UNL     1     -43.496  56.078 -55.033  1.00  0.00     0.188 HD
BRANCH   8  11
HETATM   11  C   UNL     1     -41.381  55.592 -53.949  1.00  0.00     0.147 A 
HETATM   12  N   UNL     1     -40.447  55.460 -54.912  1.00  0.00    -0.169 NA
HETATM   13  N   UNL     1     -40.013  54.193 -54.765  1.00  0.00    -0.277 N 
HETATM   14  H   UNL     1     -39.315  53.852 -55.416  1.00  0.00     0.189 HD
HETATM   15  C   UNL     1     -40.583  53.510 -53.721  1.00  0.00     0.063 A 
HETATM   16  C   UNL     1     -41.505  54.395 -53.198  1.00  0.00     0.071 A 
BRANCH  15  17
HETATM   17  C   UNL     1     -40.224  52.143 -53.334  1.00  0.00    -0.008 A 
HETATM   18  C   UNL     1     -40.215  51.095 -54.267  1.00  0.00     0.014 A 
HETATM   19  C   UNL     1     -39.849  49.801 -53.885  1.00  0.00     0.001 A 
HETATM   20  C   UNL     1     -39.485  49.535 -52.568  1.00  0.00     0.000 A 
HETATM   21  C   UNL     1     -39.485  50.564 -51.631  1.00  0.00     0.001 A 
HETATM   22  C   UNL     1     -39.853  51.858 -52.012  1.00  0.00     0.014 A 
ENDBRANCH  15  17
ENDBRANCH   8  11
ENDBRANCH   3   7
BRANCH   1  23
HETATM   23  C   UNL     1     -45.377  60.780 -56.339  1.00  0.00     0.085 C 
BRANCH  23  24
HETATM   24  C   UNL     1     -46.588  60.486 -57.227  1.00  0.00     0.046 C 
BRANCH  24  25
HETATM   25  C   UNL     1     -46.269  59.377 -58.202  1.00  0.00    -0.055 A 
HETATM   26  C   UNL     1     -45.150  59.468 -59.044  1.00  0.00     0.046 A 
HETATM   27  C   UNL     1     -44.809  58.412 -59.898  1.00  0.00     0.102 A 
HETATM   28  C   UNL     1     -45.590  57.240 -59.900  1.00  0.00     0.101 A 
HETATM   29  C   UNL     1     -46.719  57.160 -59.079  1.00  0.00     0.040 A 
HETATM   30  C   UNL     1     -47.053  58.219 -58.233  1.00  0.00     0.010 A 
BRANCH  27  31
HETATM   31  O   UNL     1     -43.723  58.414 -60.740  1.00  0.00    -0.353 OA
HETATM   32  C   UNL     1     -42.804  59.489 -60.628  1.00  0.00     0.210 C 
ENDBRANCH  27  31
BRANCH  28  33
HETATM   33  O   UNL     1     -45.193  56.240 -60.754  1.00  0.00    -0.353 OA
HETATM   34  C   UNL     1     -45.122  54.930 -60.209  1.00  0.00     0.210 C 
ENDBRANCH  28  33
ENDBRANCH  24  25
ENDBRANCH  23  24
ENDBRANCH   1  23
TORSDOF 8
ENDMDL
MODEL 8
REMARK VINA RESULT:      -7.6      2.211      2.875
REMARK  8 active torsions:
REMARK  status: ('A' for Active; 'I' for Inactive)
REMARK    1  A    between atoms: O_2  and  C_3 
REMARK    2  A    between atoms: C_4  and  O_5 
REMARK    3  A    between atoms: C_8  and  C_9 
REMARK    4  A    between atoms: C_9  and  C_10 
REMARK    5  A    between atoms: C_10  and  C_11 
REMARK    6  A    between atoms: C_13  and  N_14 
REMARK       I    between atoms: N_14  and  C_15 
REMARK    7  A    between atoms: C_15  and  C_16 
REMARK    8  A    between atoms: C_20  and  C_21 
ROOT
HETATM    1  C   UNL     1     -44.977  58.949 -52.602  1.00  0.00     0.140 A 
HETATM    2  N   UNL     1     -44.005  58.065 -52.692  1.00  0.00    -0.046 NA
HETATM    3  C   UNL     1     -44.086  57.368 -51.514  1.00  0.00     0.747 A 
HETATM    4  N   UNL     1     -45.076  57.764 -50.716  1.00  0.00     0.020 NA
HETATM    5  N   UNL     1     -45.626  58.760 -51.416  1.00  0.00    -0.248 N 
HETATM    6  H   UNL     1     -46.412  59.266 -51.024  1.00  0.00     0.191 HD
ENDROOT
BRANCH   3   7
HETATM    7  N   UNL     1     -43.166  56.398 -51.276  1.00  0.00    -0.149 N 
HETATM    8  C   UNL     1     -41.869  56.606 -50.883  1.00  0.00     0.290 C 
HETATM    9  O   UNL     1     -41.329  57.674 -50.619  1.00  0.00    -0.265 OA
HETATM   10  H   UNL     1     -43.447  55.449 -51.480  1.00  0.00     0.188 HD
BRANCH   8  11
HETATM   11  C   UNL     1     -41.110  55.342 -50.836  1.00  0.00     0.147 A 
HETATM   12  N   UNL     1     -40.277  55.036 -49.821  1.00  0.00    -0.169 NA
HETATM   13  N   UNL     1     -39.808  53.817 -50.149  1.00  0.00    -0.277 N 
HETATM   14  H   UNL     1     -39.125  53.390 -49.534  1.00  0.00     0.189 HD
HETATM   15  C   UNL     1     -40.332  53.292 -51.303  1.00  0.00     0.063 A 
HETATM   16  C   UNL     1     -41.158  54.289 -51.785  1.00  0.00     0.071 A 
BRANCH  15  17
HETATM   17  C   UNL     1     -40.015  51.960 -51.824  1.00  0.00    -0.008 A 
HETATM   18  C   UNL     1     -39.839  50.861 -50.970  1.00  0.00     0.014 A 
HETATM   19  C   UNL     1     -39.559  49.592 -51.487  1.00  0.00     0.001 A 
HETATM   20  C   UNL     1     -39.453  49.402 -52.862  1.00  0.00     0.000 A 
HETATM   21  C   UNL     1     -39.629  50.482 -53.723  1.00  0.00     0.001 A 
HETATM   22  C   UNL     1     -39.907  51.751 -53.207  1.00  0.00     0.014 A 
ENDBRANCH  15  17
ENDBRANCH   8  11
ENDBRANCH   3   7
BRANCH   1  23
HETATM   23  C   UNL     1     -45.342  60.041 -53.541  1.00  0.00     0.085 C 
BRANCH  23  24
HETATM   24  C   UNL     1     -44.146  60.561 -54.340  1.00  0.00     0.046 C 
BRANCH  24  25
HETATM   25  C   UNL     1     -43.935  59.723 -55.580  1.00  0.00    -0.055 A 
HETATM   26  C   UNL     1     -45.005  59.451 -56.446  1.00  0.00     0.046 A 
HETATM   27  C   UNL     1     -44.801  58.736 -57.633  1.00  0.00     0.102 A 
HETATM   28  C   UNL     1     -43.505  58.298 -57.966  1.00  0.00     0.101 A 
HETATM   29  C   UNL     1     -42.444  58.548 -57.090  1.00  0.00     0.040 A 
HETATM   30  C   UNL     1     -42.657  59.259 -55.908  1.00  0.00     0.010 A 
BRANCH  27  31
HETATM   31  O   UNL     1     -45.789  58.442 -58.542  1.00  0.00    -0.353 OA
HETATM   32  C   UNL     1     -47.034  57.986 -58.037  1.00  0.00     0.210 C 
ENDBRANCH  27  31
BRANCH  28  33
HETATM   33  O   UNL     1     -43.375  57.612 -59.149  1.00  0.00    -0.353 OA
HETATM   34  C   UNL     1     -43.027  56.238 -59.052  1.00  0.00     0.210 C 
ENDBRANCH  28  33
ENDBRANCH  24  25
ENDBRANCH  23  24
ENDBRANCH   1  23
TORSDOF 8
ENDMDL
MODEL 9
REMARK VINA RESULT:      -7.4      5.120      9.784
REMARK  8 active torsions:
REMARK  status: ('A' for Active; 'I' for Inactive)
REMARK    1  A    between atoms: O_2  and  C_3 
REMARK    2  A    between atoms: C_4  and  O_5 
REMARK    3  A    between atoms: C_8  and  C_9 
REMARK    4  A    between atoms: C_9  and  C_10 
REMARK    5  A    between atoms: C_10  and  C_11 
REMARK    6  A    between atoms: C_13  and  N_14 
REMARK       I    between atoms: N_14  and  C_15 
REMARK    7  A    between atoms: C_15  and  C_16 
REMARK    8  A    between atoms: C_20  and  C_21 
ROOT
HETATM    1  C   UNL     1     -41.788  56.615 -54.350  1.00  0.00     0.140 A 
HETATM    2  N   UNL     1     -41.804  57.305 -53.228  1.00  0.00    -0.046 NA
HETATM    3  C   UNL     1     -42.860  58.165 -53.387  1.00  0.00     0.747 A 
HETATM    4  N   UNL     1     -43.508  58.021 -54.542  1.00  0.00     0.020 NA
HETATM    5  N   UNL     1     -42.820  57.042 -55.135  1.00  0.00    -0.248 N 
HETATM    6  H   UNL     1     -43.093  56.735 -56.061  1.00  0.00     0.191 HD
ENDROOT
BRANCH   3   7
HETATM    7  N   UNL     1     -43.111  59.064 -52.401  1.00  0.00    -0.149 N 
HETATM    8  C   UNL     1     -44.180  59.032 -51.543  1.00  0.00     0.290 C 
HETATM    9  O   UNL     1     -45.051  58.173 -51.464  1.00  0.00    -0.265 OA
HETATM   10  H   UNL     1     -42.494  59.863 -52.351  1.00  0.00     0.188 HD
BRANCH   8  11
HETATM   11  C   UNL     1     -44.214  60.227 -50.678  1.00  0.00     0.147 A 
HETATM   12  N   UNL     1     -43.433  61.303 -50.901  1.00  0.00    -0.169 NA
HETATM   13  N   UNL     1     -43.777  62.156 -49.918  1.00  0.00    -0.277 N 
HETATM   14  H   UNL     1     -43.286  63.042 -49.864  1.00  0.00     0.189 HD
HETATM   15  C   UNL     1     -44.780  61.710 -49.096  1.00  0.00     0.063 A 
HETATM   16  C   UNL     1     -45.054  60.436 -49.555  1.00  0.00     0.071 A 
BRANCH  15  17
HETATM   17  C   UNL     1     -45.358  62.488 -47.998  1.00  0.00    -0.008 A 
HETATM   18  C   UNL     1     -44.834  63.736 -47.628  1.00  0.00     0.014 A 
HETATM   19  C   UNL     1     -45.412  64.476 -46.592  1.00  0.00     0.001 A 
HETATM   20  C   UNL     1     -46.522  63.982 -45.913  1.00  0.00     0.000 A 
HETATM   21  C   UNL     1     -47.057  62.747 -46.269  1.00  0.00     0.001 A 
HETATM   22  C   UNL     1     -46.478  62.007 -47.304  1.00  0.00     0.014 A 
ENDBRANCH  15  17
ENDBRANCH   8  11
ENDBRANCH   3   7
BRANCH   1  23
HETATM   23  C   UNL     1     -40.821  55.581 -54.801  1.00  0.00     0.085 C 
BRANCH  23  24
HETATM   24  C   UNL     1     -41.444  54.187 -54.896  1.00  0.00     0.046 C 
BRANCH  24  25
HETATM   25  C   UNL     1     -40.769  53.242 -53.928  1.00  0.00    -0.055 A 
HETATM   26  C   UNL     1     -40.699  53.553 -52.561  1.00  0.00     0.046 A 
HETATM   27  C   UNL     1     -40.139  52.649 -51.649  1.00  0.00     0.102 A 
HETATM   28  C   UNL     1     -39.655  51.409 -52.108  1.00  0.00     0.101 A 
HETATM   29  C   UNL     1     -39.703  51.111 -53.474  1.00  0.00     0.040 A 
HETATM   30  C   UNL     1     -40.260  52.020 -54.376  1.00  0.00     0.010 A 
BRANCH  27  31
HETATM   31  O   UNL     1     -40.048  52.868 -50.296  1.00  0.00    -0.353 OA
HETATM   32  C   UNL     1     -39.805  54.196 -49.858  1.00  0.00     0.210 C 
ENDBRANCH  27  31
BRANCH  28  33
HETATM   33  O   UNL     1     -39.130  50.567 -51.160  1.00  0.00    -0.353 OA
HETATM   34  C   UNL     1     -39.841  49.361 -50.916  1.00  0.00     0.210 C 
ENDBRANCH  28  33
ENDBRANCH  24  25
ENDBRANCH  23  24
ENDBRANCH   1  23
TORSDOF 8
ENDMDL
MODEL 10
REMARK VINA RESULT:      -7.4      2.688      8.777
REMARK  8 active torsions:
REMARK  status: ('A' for Active; 'I' for Inactive)
REMARK    1  A    between atoms: O_2  and  C_3 
REMARK    2  A    between atoms: C_4  and  O_5 
REMARK    3  A    between atoms: C_8  and  C_9 
REMARK    4  A    between atoms: C_9  and  C_10 
REMARK    5  A    between atoms: C_10  and  C_11 
REMARK    6  A    between atoms: C_13  and  N_14 
REMARK       I    between atoms: N_14  and  C_15 
REMARK    7  A    between atoms: C_15  and  C_16 
REMARK    8  A    between atoms: C_20  and  C_21 
ROOT
HETATM    1  C   UNL     1     -41.711  56.968 -51.310  1.00  0.00     0.140 A 
HETATM    2  N   UNL     1     -41.669  56.933 -52.626  1.00  0.00    -0.046 NA
HETATM    3  C   UNL     1     -42.727  57.719 -53.008  1.00  0.00     0.747 A 
HETATM    4  N   UNL     1     -43.401  58.254 -51.992  1.00  0.00     0.020 NA
HETATM    5  N   UNL     1     -42.748  57.771 -50.931  1.00  0.00    -0.248 N 
HETATM    6  H   UNL     1     -43.069  58.010 -50.000  1.00  0.00     0.191 HD
ENDROOT
BRANCH   3   7
HETATM    7  N   UNL     1     -42.988  57.844 -54.334  1.00  0.00    -0.149 N 
HETATM    8  C   UNL     1     -42.378  58.723 -55.191  1.00  0.00     0.290 C 
HETATM    9  O   UNL     1     -41.460  59.497 -54.941  1.00  0.00    -0.265 OA
HETATM   10  H   UNL     1     -43.752  57.290 -54.698  1.00  0.00     0.188 HD
BRANCH   8  11
HETATM   11  C   UNL     1     -42.988  58.682 -56.533  1.00  0.00     0.147 A 
HETATM   12  N   UNL     1     -42.404  59.243 -57.611  1.00  0.00    -0.169 NA
HETATM   13  N   UNL     1     -43.260  58.973 -58.615  1.00  0.00    -0.277 N 
HETATM   14  H   UNL     1     -43.038  59.332 -59.537  1.00  0.00     0.189 HD
HETATM   15  C   UNL     1     -44.348  58.220 -58.254  1.00  0.00     0.063 A 
HETATM   16  C   UNL     1     -44.206  58.051 -56.891  1.00  0.00     0.071 A 
BRANCH  15  17
HETATM   17  C   UNL     1     -45.378  57.756 -59.187  1.00  0.00    -0.008 A 
HETATM   18  C   UNL     1     -46.343  58.630 -59.708  1.00  0.00     0.014 A 
HETATM   19  C   UNL     1     -47.306  58.175 -60.614  1.00  0.00     0.001 A 
HETATM   20  C   UNL     1     -47.317  56.842 -61.014  1.00  0.00     0.000 A 
HETATM   21  C   UNL     1     -46.364  55.962 -60.509  1.00  0.00     0.001 A 
HETATM   22  C   UNL     1     -45.403  56.416 -59.602  1.00  0.00     0.014 A 
ENDBRANCH  15  17
ENDBRANCH   8  11
ENDBRANCH   3   7
BRANCH   1  23
HETATM   23  C   UNL     1     -40.865  56.246 -50.326  1.00  0.00     0.085 C 
BRANCH  23  24
HETATM   24  C   UNL     1     -41.465  54.906 -49.896  1.00  0.00     0.046 C 
BRANCH  24  25
HETATM   25  C   UNL     1     -40.940  53.789 -50.768  1.00  0.00    -0.055 A 
HETATM   26  C   UNL     1     -40.815  53.967 -52.154  1.00  0.00     0.046 A 
HETATM   27  C   UNL     1     -40.262  52.962 -52.959  1.00  0.00     0.102 A 
HETATM   28  C   UNL     1     -39.812  51.767 -52.365  1.00  0.00     0.101 A 
HETATM   29  C   UNL     1     -39.958  51.581 -50.986  1.00  0.00     0.040 A 
HETATM   30  C   UNL     1     -40.515  52.588 -50.194  1.00  0.00     0.010 A 
BRANCH  27  31
HETATM   31  O   UNL     1     -40.090  53.062 -54.318  1.00  0.00    -0.353 OA
HETATM   32  C   UNL     1     -40.781  54.100 -54.995  1.00  0.00     0.210 C 
ENDBRANCH  27  31
BRANCH  28  33
HETATM   33  O   UNL     1     -39.270  50.830 -53.209  1.00  0.00    -0.353 OA
HETATM   34  C   UNL     1     -39.619  49.474 -52.962  1.00  0.00     0.210 C 
ENDBRANCH  28  33
ENDBRANCH  24  25
ENDBRANCH  23  24
ENDBRANCH   1  23
TORSDOF 8
ENDMDL
